data_image0
_chemical_formula_structural       Cu2H28C30N6O12
_chemical_formula_sum              "Cu2 H28 C30 N6 O12"
_cell_length_a       6.84879
_cell_length_b       10.1129
_cell_length_c       11.044
_cell_angle_alpha    104.191
_cell_angle_beta     99.8528
_cell_angle_gamma    99.1034

_space_group_name_H-M_alt    "P 1"
_space_group_IT_number       1

loop_
  _space_group_symop_operation_xyz
  'x, y, z'

loop_
  _atom_site_type_symbol
  _atom_site_label
  _atom_site_symmetry_multiplicity
  _atom_site_fract_x
  _atom_site_fract_y
  _atom_site_fract_z
  _atom_site_occupancy
  Cu  Cu1       1.0  0.31431  0.21667  0.34002  1.0000
  Cu  Cu2       1.0  0.68569  0.78332  0.65998  1.0000
  H   H1        1.0  0.75166  0.22096  0.33200  1.0000
  H   H2        1.0  0.24834  0.77904  0.66800  1.0000
  H   H3        1.0  0.61095  0.09432  0.36276  1.0000
  H   H4        1.0  0.38905  0.90568  0.63724  1.0000
  H   H5        1.0  0.53147  0.63197  0.43745  1.0000
  H   H6        1.0  0.46853  0.36803  0.56254  1.0000
  H   H7        1.0  0.57037  0.79735  0.43093  1.0000
  H   H8        1.0  0.42963  0.20266  0.56907  1.0000
  H   H9        1.0  0.80272  0.36976  0.10344  1.0000
  H   H10       1.0  0.19728  0.63024  0.89656  1.0000
  H   H11       1.0  0.90092  0.91920  0.41533  1.0000
  H   H12       1.0  0.09909  0.08080  0.58467  1.0000
  H   H13       1.0  0.75962  0.48227  0.39411  1.0000
  H   H14       1.0  0.24039  0.51773  0.60589  1.0000
  H   H15       1.0  0.30149  0.65341  0.28868  1.0000
  H   H16       1.0  0.69851  0.34659  0.71132  1.0000
  H   H17       1.0  0.49731  0.36447  0.18439  1.0000
  H   H18       1.0  0.50268  0.63553  0.81562  1.0000
  H   H19       1.0  0.92624  0.61251  0.09206  1.0000
  H   H20       1.0  0.07376  0.38749  0.90794  1.0000
  H   H21       1.0  0.82517  0.54613  0.92410  1.0000
  H   H22       1.0  0.17482  0.45387  0.07590  1.0000
  H   H23       1.0  0.36372  0.09822  0.79855  1.0000
  H   H24       1.0  0.63628  0.90178  0.20145  1.0000
  H   H25       1.0  0.16473  0.91183  0.87405  1.0000
  H   H26       1.0  0.83526  0.08817  0.12595  1.0000
  H   H27       1.0  0.15234  0.96633  0.10674  1.0000
  H   H28       1.0  0.84766  0.03367  0.89325  1.0000
  C   C1        1.0  0.26077  0.92424  0.34510  1.0000
  C   C2        1.0  0.73923  0.07576  0.65490  1.0000
  C   C3        1.0  0.11712  0.79958  0.35282  1.0000
  C   C4        1.0  0.88288  0.20042  0.64718  1.0000
  C   C5        1.0  0.93868  0.81667  0.39441  1.0000
  C   C6        1.0  0.06132  0.18333  0.60559  1.0000
  C   C7        1.0  0.81160  0.70334  0.41168  1.0000
  C   C8        1.0  0.18841  0.29666  0.58832  1.0000
  C   C9        1.0  0.85918  0.57138  0.38225  1.0000
  C   C10       1.0  0.14083  0.42862  0.61776  1.0000
  C   C11       1.0  0.03684  0.55439  0.33956  1.0000
  C   C12       1.0  0.96316  0.44561  0.66044  1.0000
  C   C13       1.0  0.08924  0.41349  0.31280  1.0000
  C   C14       1.0  0.91076  0.58651  0.68721  1.0000
  C   C15       1.0  0.16636  0.66820  0.32531  1.0000
  C   C16       1.0  0.83365  0.33179  0.67469  1.0000
  C   C17       1.0  0.43036  0.26434  0.11369  1.0000
  C   C18       1.0  0.56964  0.73566  0.88631  1.0000
  C   C19       1.0  0.45151  0.24119  0.98745  1.0000
  C   C20       1.0  0.54849  0.75881  0.01255  1.0000
  C   C21       1.0  0.57609  0.35216  0.94857  1.0000
  C   C22       1.0  0.42391  0.64784  0.05143  1.0000
  C   C23       1.0  0.89975  0.52052  0.00900  1.0000
  C   C24       1.0  0.10024  0.47948  0.99100  1.0000
  C   C25       1.0  0.35070  0.11488  0.89784  1.0000
  C   C26       1.0  0.64930  0.88512  0.10216  1.0000
  C   C27       1.0  0.24305  0.01288  0.93985  1.0000
  C   C28       1.0  0.75694  0.98712  0.06015  1.0000
  C   C29       1.0  0.23401  0.04227  0.06864  1.0000
  C   C30       1.0  0.76598  0.95773  0.93135  1.0000
  N   N1        1.0  0.63797  0.72323  0.46240  1.0000
  N   N2        1.0  0.36203  0.27677  0.53760  1.0000
  N   N3        1.0  0.32084  0.16689  0.15298  1.0000
  N   N4        1.0  0.67916  0.83310  0.84702  1.0000
  N   N5        1.0  0.76188  0.40609  0.02605  1.0000
  N   N6        1.0  0.23811  0.59391  0.97395  1.0000
  O   O1        1.0  0.17815  0.02746  0.33331  1.0000
  O   O2        1.0  0.82185  0.97254  0.66669  1.0000
  O   O3        1.0  0.64843  0.19672  0.37945  1.0000
  O   O4        1.0  0.35157  0.80329  0.62055  1.0000
  O   O5        1.0  0.44680  0.92280  0.35200  1.0000
  O   O6        1.0  0.55319  0.07720  0.64800  1.0000
  O   O7        1.0  0.94960  0.30583  0.26171  1.0000
  O   O8        1.0  0.05041  0.69417  0.73830  1.0000
  O   O9        1.0  0.27907  0.41216  0.34612  1.0000
  O   O10       1.0  0.72093  0.58784  0.65388  1.0000
  O   O11       1.0  0.50982  0.38868  0.85257  1.0000
  O   O12       1.0  0.49017  0.61131  0.14742  1.0000
