data_image0
_chemical_formula_structural       CdH14C20S2N16
_chemical_formula_sum              "Cd1 H14 C20 S2 N16"
_cell_length_a       7.94618
_cell_length_b       8.96173
_cell_length_c       9.75874
_cell_angle_alpha    71.9851
_cell_angle_beta     87.3176
_cell_angle_gamma    64.6837

_space_group_name_H-M_alt    "P 1"
_space_group_IT_number       1

loop_
  _space_group_symop_operation_xyz
  'x, y, z'

loop_
  _atom_site_type_symbol
  _atom_site_label
  _atom_site_symmetry_multiplicity
  _atom_site_fract_x
  _atom_site_fract_y
  _atom_site_fract_z
  _atom_site_occupancy
  Cd  Cd1       1.0  0.00000  1.00000  0.50000  1.0000
  H   H1        1.0  0.28719  0.25637  0.65109  1.0000
  H   H2        1.0  0.71281  0.74364  0.34891  1.0000
  H   H3        1.0  0.77205  0.77557  0.73761  1.0000
  H   H4        1.0  0.22795  0.22443  0.26239  1.0000
  H   H5        1.0  0.19491  0.14044  0.87066  1.0000
  H   H6        1.0  0.80510  0.85956  0.12934  1.0000
  H   H7        1.0  0.13120  0.98660  0.11271  1.0000
  H   H8        1.0  0.86880  0.01341  0.88729  1.0000
  H   H9        1.0  0.35056  0.67730  0.24181  1.0000
  H   H10       1.0  0.64943  0.32270  0.75818  1.0000
  H   H11       1.0  0.59720  0.41000  0.35396  1.0000
  H   H12       1.0  0.40280  0.59001  0.64604  1.0000
  H   H13       1.0  0.83760  0.44906  0.95241  1.0000
  H   H14       1.0  0.16240  0.55094  0.04759  1.0000
  C   C1        1.0  0.42435  0.15769  0.64352  1.0000
  C   C2        1.0  0.57565  0.84232  0.35648  1.0000
  C   C3        1.0  0.67422  0.91018  0.68747  1.0000
  C   C4        1.0  0.32578  0.08982  0.31253  1.0000
  C   C5        1.0  0.44744  0.91052  0.86920  1.0000
  C   C6        1.0  0.55256  0.08948  0.13080  1.0000
  C   C7        1.0  0.28764  0.00426  0.92689  1.0000
  C   C8        1.0  0.71236  0.99574  0.07310  1.0000
  C   C9        1.0  0.25305  0.91751  0.06261  1.0000
  C   C10       1.0  0.74695  0.08250  0.93739  1.0000
  C   C11       1.0  0.37605  0.74490  0.13555  1.0000
  C   C12       1.0  0.62395  0.25510  0.86445  1.0000
  C   C13       1.0  0.53047  0.66596  0.06603  1.0000
  C   C14       1.0  0.46953  0.33404  0.93397  1.0000
  C   C15       1.0  0.68965  0.38304  0.27041  1.0000
  C   C16       1.0  0.31035  0.61696  0.72959  1.0000
  C   C17       1.0  0.81536  0.40020  0.06516  1.0000
  C   C18       1.0  0.18464  0.59981  0.93484  1.0000
  C   C19       1.0  0.04776  0.68374  0.34972  1.0000
  C   C20       1.0  0.95225  0.31624  0.65031  1.0000
  S   S1        1.0  0.03496  0.53376  0.29696  1.0000
  S   S2        1.0  0.96504  0.46622  0.70305  1.0000
  N   N1        1.0  0.53750  0.18144  0.54535  1.0000
  N   N2        1.0  0.46250  0.81856  0.45465  1.0000
  N   N3        1.0  0.69614  0.02332  0.57394  1.0000
  N   N4        1.0  0.30386  0.97669  0.42606  1.0000
  N   N5        1.0  0.50441  0.98833  0.73663  1.0000
  N   N6        1.0  0.49559  0.01167  0.26337  1.0000
  N   N7        1.0  0.56576  0.74487  0.93590  1.0000
  N   N8        1.0  0.43424  0.25513  0.06410  1.0000
  N   N9        1.0  0.66719  0.49167  0.13118  1.0000
  N   N10       1.0  0.33281  0.50834  0.86882  1.0000
  N   N11       1.0  0.84081  0.23630  0.28660  1.0000
  N   N12       1.0  0.15919  0.76371  0.71340  1.0000
  N   N13       1.0  0.92035  0.24620  0.15687  1.0000
  N   N14       1.0  0.07965  0.75381  0.84312  1.0000
  N   N15       1.0  0.05141  0.79803  0.38458  1.0000
  N   N16       1.0  0.94860  0.20195  0.61544  1.0000
