data_image0
_chemical_formula_structural       Zn4H36C52N4O20
_chemical_formula_sum              "Zn4 H36 C52 N4 O20"
_cell_length_a       6.39769
_cell_length_b       13.2015
_cell_length_c       15.3314
_cell_angle_alpha    111.093
_cell_angle_beta     90.0013
_cell_angle_gamma    89.9991

_space_group_name_H-M_alt    "P 1"
_space_group_IT_number       1

loop_
  _space_group_symop_operation_xyz
  'x, y, z'

loop_
  _atom_site_type_symbol
  _atom_site_label
  _atom_site_symmetry_multiplicity
  _atom_site_fract_x
  _atom_site_fract_y
  _atom_site_fract_z
  _atom_site_occupancy
  Zn  Zn1       1.0  0.86338  0.27819  0.39489  1.0000
  Zn  Zn2       1.0  0.86337  0.22182  0.10511  1.0000
  Zn  Zn3       1.0  0.13663  0.72181  0.60511  1.0000
  Zn  Zn4       1.0  0.13660  0.77818  0.89489  1.0000
  H   H1        1.0  0.63072  0.69957  0.49283  1.0000
  H   H2        1.0  0.63073  0.80044  0.00717  1.0000
  H   H3        1.0  0.36930  0.30044  0.50718  1.0000
  H   H4        1.0  0.36925  0.19956  0.99283  1.0000
  H   H5        1.0  0.60679  0.83082  0.41574  1.0000
  H   H6        1.0  0.60680  0.66919  0.08425  1.0000
  H   H7        1.0  0.39323  0.16919  0.58426  1.0000
  H   H8        1.0  0.39321  0.33082  0.91576  1.0000
  H   H9        1.0  0.57962  0.56778  0.14836  1.0000
  H   H10       1.0  0.57961  0.93222  0.35163  1.0000
  H   H11       1.0  0.42038  0.43222  0.85165  1.0000
  H   H12       1.0  0.42041  0.06779  0.64837  1.0000
  H   H13       1.0  0.87500  0.10481  0.46945  1.0000
  H   H14       1.0  0.87497  0.39519  0.03055  1.0000
  H   H15       1.0  0.12504  0.89518  0.53054  1.0000
  H   H16       1.0  0.12502  0.60481  0.96944  1.0000
  H   H17       1.0  0.89253  0.08092  0.62312  1.0000
  H   H18       1.0  0.89250  0.41910  0.87689  1.0000
  H   H19       1.0  0.10751  0.91908  0.37688  1.0000
  H   H20       1.0  0.10750  0.58090  0.12310  1.0000
  H   H21       1.0  0.89518  0.43260  0.75254  1.0000
  H   H22       1.0  0.89518  0.06742  0.74746  1.0000
  H   H23       1.0  0.10480  0.56740  0.24746  1.0000
  H   H24       1.0  0.10480  0.93258  0.25254  1.0000
  H   H25       1.0  0.86845  0.43921  0.59426  1.0000
  H   H26       1.0  0.86843  0.06079  0.90573  1.0000
  H   H27       1.0  0.13156  0.56078  0.40573  1.0000
  H   H28       1.0  0.13154  0.93920  0.09427  1.0000
  H   H29       1.0  0.22082  0.36821  0.41621  1.0000
  H   H30       1.0  0.22080  0.13179  0.08378  1.0000
  H   H31       1.0  0.77919  0.63179  0.58378  1.0000
  H   H32       1.0  0.77916  0.86821  0.91621  1.0000
  H   H33       1.0  0.26387  0.24524  0.34431  1.0000
  H   H34       1.0  0.26386  0.25475  0.15569  1.0000
  H   H35       1.0  0.73614  0.75476  0.65569  1.0000
  H   H36       1.0  0.73612  0.74524  0.84431  1.0000
  C   C1        1.0  0.69030  0.48192  0.41439  1.0000
  C   C2        1.0  0.69030  0.01809  0.08561  1.0000
  C   C3        1.0  0.30970  0.51809  0.58562  1.0000
  C   C4        1.0  0.30968  0.98191  0.91438  1.0000
  C   C5        1.0  0.63394  0.55835  0.36572  1.0000
  C   C6        1.0  0.63394  0.94166  0.13428  1.0000
  C   C7        1.0  0.36607  0.44166  0.63429  1.0000
  C   C8        1.0  0.36605  0.05834  0.86572  1.0000
  C   C9        1.0  0.62227  0.67033  0.41686  1.0000
  C   C10       1.0  0.62227  0.82968  0.08313  1.0000
  C   C11       1.0  0.37774  0.32967  0.58314  1.0000
  C   C12       1.0  0.37771  0.17032  0.91687  1.0000
  C   C13       1.0  0.60675  0.74491  0.37263  1.0000
  C   C14       1.0  0.60675  0.75510  0.12736  1.0000
  C   C15       1.0  0.39326  0.25510  0.62738  1.0000
  C   C16       1.0  0.39324  0.24490  0.87264  1.0000
  C   C17       1.0  0.59664  0.71090  0.27440  1.0000
  C   C18       1.0  0.59664  0.78910  0.22560  1.0000
  C   C19       1.0  0.40337  0.28910  0.72561  1.0000
  C   C20       1.0  0.40337  0.21090  0.77440  1.0000
  C   C21       1.0  0.59325  0.59867  0.22426  1.0000
  C   C22       1.0  0.59324  0.90133  0.27573  1.0000
  C   C23       1.0  0.40675  0.40133  0.77574  1.0000
  C   C24       1.0  0.40676  0.09867  0.72427  1.0000
  C   C25       1.0  0.61374  0.52283  0.26792  1.0000
  C   C26       1.0  0.61374  0.97717  0.23207  1.0000
  C   C27       1.0  0.38626  0.47718  0.73209  1.0000
  C   C28       1.0  0.38626  0.02282  0.76793  1.0000
  C   C29       1.0  0.62854  0.40622  0.20278  1.0000
  C   C30       1.0  0.62853  0.09378  0.29722  1.0000
  C   C31       1.0  0.37146  0.59378  0.79723  1.0000
  C   C32       1.0  0.37147  0.90622  0.70278  1.0000
  C   C33       1.0  0.88041  0.17450  0.53497  1.0000
  C   C34       1.0  0.88037  0.32551  0.96504  1.0000
  C   C35       1.0  0.11963  0.82549  0.46503  1.0000
  C   C36       1.0  0.11961  0.67449  0.03496  1.0000
  C   C37       1.0  0.89074  0.16246  0.62102  1.0000
  C   C38       1.0  0.89072  0.33756  0.87899  1.0000
  C   C39       1.0  0.10928  0.83753  0.37898  1.0000
  C   C40       1.0  0.10927  0.66244  0.12101  1.0000
  C   C41       1.0  0.89526  0.25493  0.70348  1.0000
  C   C42       1.0  0.89524  0.24509  0.79653  1.0000
  C   C43       1.0  0.10475  0.74507  0.29652  1.0000
  C   C44       1.0  0.10475  0.75491  0.20347  1.0000
  C   C45       1.0  0.89086  0.35629  0.69325  1.0000
  C   C46       1.0  0.89085  0.14372  0.80675  1.0000
  C   C47       1.0  0.10914  0.64370  0.30674  1.0000
  C   C48       1.0  0.10913  0.85627  0.19325  1.0000
  C   C49       1.0  0.87846  0.36200  0.60473  1.0000
  C   C50       1.0  0.87844  0.13801  0.89527  1.0000
  C   C51       1.0  0.12155  0.63799  0.39526  1.0000
  C   C52       1.0  0.12154  0.86198  0.10473  1.0000
  N   N1        1.0  0.87314  0.27258  0.52655  1.0000
  N   N2        1.0  0.87312  0.22743  0.97346  1.0000
  N   N3        1.0  0.12688  0.72741  0.47345  1.0000
  N   N4        1.0  0.12686  0.77257  0.02654  1.0000
  O   O1        1.0  0.68963  0.38038  0.36271  1.0000
  O   O2        1.0  0.68963  0.11963  0.13729  1.0000
  O   O3        1.0  0.31038  0.61962  0.63729  1.0000
  O   O4        1.0  0.31036  0.88037  0.86271  1.0000
  O   O5        1.0  0.74525  0.51754  0.49897  1.0000
  O   O6        1.0  0.74525  0.98247  0.00104  1.0000
  O   O7        1.0  0.25474  0.48246  0.50104  1.0000
  O   O8        1.0  0.25471  0.01753  0.99896  1.0000
  O   O9        1.0  0.81958  0.37502  0.18084  1.0000
  O   O10       1.0  0.81958  0.12499  0.31916  1.0000
  O   O11       1.0  0.18042  0.62498  0.81916  1.0000
  O   O12       1.0  0.18043  0.87501  0.68083  1.0000
  O   O13       1.0  0.46720  0.35411  0.16784  1.0000
  O   O14       1.0  0.46719  0.14588  0.33217  1.0000
  O   O15       1.0  0.53280  0.64589  0.83218  1.0000
  O   O16       1.0  0.53282  0.85413  0.66783  1.0000
  O   O17       1.0  0.15962  0.30462  0.36406  1.0000
  O   O18       1.0  0.15961  0.19538  0.13593  1.0000
  O   O19       1.0  0.84040  0.69538  0.63594  1.0000
  O   O20       1.0  0.84037  0.80462  0.86406  1.0000
