data_image0
_chemical_formula_structural       Cd2H18C22N14O10
_chemical_formula_sum              "Cd2 H18 C22 N14 O10"
_cell_length_a       6.68958
_cell_length_b       9.79505
_cell_length_c       12.3993
_cell_angle_alpha    95.1331
_cell_angle_beta     104.546
_cell_angle_gamma    98.1357

_space_group_name_H-M_alt    "P 1"
_space_group_IT_number       1

loop_
  _space_group_symop_operation_xyz
  'x, y, z'

loop_
  _atom_site_type_symbol
  _atom_site_label
  _atom_site_symmetry_multiplicity
  _atom_site_fract_x
  _atom_site_fract_y
  _atom_site_fract_z
  _atom_site_occupancy
  Cd  Cd1       1.0  0.24898  0.22846  0.49967  1.0000
  Cd  Cd2       1.0  0.75101  0.77153  0.50033  1.0000
  H   H1        1.0  0.00408  0.28932  0.24386  1.0000
  H   H2        1.0  0.99592  0.71068  0.75614  1.0000
  H   H3        1.0  0.83107  0.85592  0.12474  1.0000
  H   H4        1.0  0.16892  0.14408  0.87526  1.0000
  H   H5        1.0  0.56329  0.00375  0.76604  1.0000
  H   H6        1.0  0.43669  0.99626  0.23397  1.0000
  H   H7        1.0  0.70779  0.91339  0.94577  1.0000
  H   H8        1.0  0.29218  0.08662  0.05422  1.0000
  H   H9        1.0  0.57316  0.25943  0.76205  1.0000
  H   H10       1.0  0.42683  0.74058  0.23795  1.0000
  H   H11       1.0  0.80377  0.50589  0.13270  1.0000
  H   H12       1.0  0.19626  0.49410  0.86731  1.0000
  H   H13       1.0  0.64233  0.49601  0.77791  1.0000
  H   H14       1.0  0.35768  0.50400  0.22210  1.0000
  H   H15       1.0  0.97991  0.16567  0.63055  1.0000
  H   H16       1.0  0.02008  0.83431  0.36945  1.0000
  H   H17       1.0  0.84592  0.23674  0.53327  1.0000
  H   H18       1.0  0.15408  0.76325  0.46672  1.0000
  C   C1        1.0  0.56797  0.03686  0.46406  1.0000
  C   C2        1.0  0.43203  0.96313  0.53593  1.0000
  C   C3        1.0  0.56469  0.49753  0.56216  1.0000
  C   C4        1.0  0.43530  0.50246  0.43784  1.0000
  C   C5        1.0  0.78688  0.12256  0.03999  1.0000
  C   C6        1.0  0.21315  0.87745  0.96002  1.0000
  C   C7        1.0  0.71333  0.30434  0.94285  1.0000
  C   C8        1.0  0.28669  0.69566  0.05714  1.0000
  C   C9        1.0  0.98114  0.17742  0.24081  1.0000
  C   C10       1.0  0.01886  0.82259  0.75919  1.0000
  C   C11       1.0  0.89333  0.95493  0.17951  1.0000
  C   C12       1.0  0.10667  0.04507  0.82049  1.0000
  C   C13       1.0  0.62851  0.07569  0.84332  1.0000
  C   C14       1.0  0.37149  0.92432  0.15668  1.0000
  C   C15       1.0  0.70764  0.02454  0.94425  1.0000
  C   C16       1.0  0.29233  0.97546  0.05575  1.0000
  C   C17       1.0  0.63166  0.21808  0.84048  1.0000
  C   C18       1.0  0.36831  0.78192  0.15951  1.0000
  C   C19       1.0  0.76736  0.53992  0.05026  1.0000
  C   C20       1.0  0.23267  0.46009  0.94975  1.0000
  C   C21       1.0  0.68351  0.53453  0.86740  1.0000
  C   C22       1.0  0.31651  0.46549  0.13261  1.0000
  N   N1        1.0  0.99858  0.96810  0.28593  1.0000
  N   N2        1.0  0.00141  0.03190  0.71406  1.0000
  N   N3        1.0  0.72184  0.45086  0.95161  1.0000
  N   N4        1.0  0.27818  0.54914  0.04840  1.0000
  N   N5        1.0  0.78783  0.25844  0.04031  1.0000
  N   N6        1.0  0.21217  0.74156  0.95969  1.0000
  N   N7        1.0  0.87802  0.08476  0.14725  1.0000
  N   N8        1.0  0.12197  0.91525  0.85275  1.0000
  N   N9        1.0  0.05304  0.10853  0.32420  1.0000
  N   N10       1.0  0.94695  0.89147  0.67579  1.0000
  N   N11       1.0  0.70401  0.66480  0.91171  1.0000
  N   N12       1.0  0.29600  0.33522  0.08830  1.0000
  N   N13       1.0  0.75667  0.66774  0.02786  1.0000
  N   N14       1.0  0.24336  0.33227  0.97216  1.0000
  O   O1        1.0  0.49832  0.40320  0.61484  1.0000
  O   O2        1.0  0.50166  0.59678  0.38516  1.0000
  O   O3        1.0  0.55826  0.16338  0.45305  1.0000
  O   O4        1.0  0.44173  0.83662  0.54694  1.0000
  O   O5        1.0  0.72752  0.58787  0.60367  1.0000
  O   O6        1.0  0.27245  0.41212  0.39634  1.0000
  O   O7        1.0  0.68121  0.96646  0.42174  1.0000
  O   O8        1.0  0.31880  0.03353  0.57826  1.0000
  O   O9        1.0  0.98629  0.24664  0.58603  1.0000
  O   O10       1.0  0.01371  0.75335  0.41396  1.0000
