data_image0
_chemical_formula_structural       Zn2H10C16O10
_chemical_formula_sum              "Zn2 H10 C16 O10"
_cell_length_a       4.77219
_cell_length_b       6.74772
_cell_length_c       11.9811
_cell_angle_alpha    85.0488
_cell_angle_beta     87.3822
_cell_angle_gamma    83.4833

_space_group_name_H-M_alt    "P 1"
_space_group_IT_number       1

loop_
  _space_group_symop_operation_xyz
  'x, y, z'

loop_
  _atom_site_type_symbol
  _atom_site_label
  _atom_site_symmetry_multiplicity
  _atom_site_fract_x
  _atom_site_fract_y
  _atom_site_fract_z
  _atom_site_occupancy
  Zn  Zn1       1.0  0.44026  0.73783  0.86347  1.0000
  Zn  Zn2       1.0  0.55974  0.26217  0.13654  1.0000
  H   H1        1.0  0.92234  0.97289  0.60903  1.0000
  H   H2        1.0  0.07766  0.02711  0.39097  1.0000
  H   H3        1.0  0.61124  0.15667  0.46892  1.0000
  H   H4        1.0  0.38877  0.84333  0.53108  1.0000
  H   H5        1.0  0.64979  0.69722  0.63349  1.0000
  H   H6        1.0  0.35022  0.30278  0.36651  1.0000
  H   H7        1.0  0.56669  0.79317  0.06221  1.0000
  H   H8        1.0  0.43332  0.20683  0.93780  1.0000
  H   H9        1.0  0.21766  0.79501  0.06162  1.0000
  H   H10       1.0  0.78234  0.20500  0.93838  1.0000
  C   C1        1.0  0.13913  0.10452  0.78674  1.0000
  C   C2        1.0  0.86087  0.89548  0.21326  1.0000
  C   C3        1.0  0.96451  0.22724  0.69998  1.0000
  C   C4        1.0  0.03549  0.77276  0.30002  1.0000
  C   C5        1.0  0.86274  0.13279  0.61315  1.0000
  C   C6        1.0  0.13726  0.86721  0.38685  1.0000
  C   C7        1.0  0.68388  0.23776  0.53480  1.0000
  C   C8        1.0  0.31612  0.76224  0.46520  1.0000
  C   C9        1.0  0.59821  0.44330  0.54033  1.0000
  C   C10       1.0  0.40178  0.55669  0.45967  1.0000
  C   C11       1.0  0.70596  0.53771  0.62652  1.0000
  C   C12       1.0  0.29404  0.46229  0.37348  1.0000
  C   C13       1.0  0.88453  0.43362  0.70571  1.0000
  C   C14       1.0  0.11546  0.56638  0.29429  1.0000
  C   C15       1.0  0.00527  0.55227  0.78801  1.0000
  C   C16       1.0  0.99472  0.44774  0.21199  1.0000
  O   O1        1.0  0.31470  0.96236  0.75219  1.0000
  O   O2        1.0  0.68529  0.03764  0.24781  1.0000
  O   O3        1.0  0.10465  0.14100  0.88909  1.0000
  O   O4        1.0  0.89536  0.85900  0.11092  1.0000
  O   O5        1.0  0.27093  0.52157  0.79866  1.0000
  O   O6        1.0  0.72907  0.47844  0.20134  1.0000
  O   O7        1.0  0.85342  0.68745  0.83855  1.0000
  O   O8        1.0  0.14658  0.31255  0.16145  1.0000
  O   O9        1.0  0.40609  0.74427  0.02685  1.0000
  O   O10       1.0  0.59391  0.25573  0.97315  1.0000
