data_image0
_chemical_formula_structural       Zn2H40C56N4O16
_chemical_formula_sum              "Zn2 H40 C56 N4 O16"
_cell_length_a       9.0617
_cell_length_b       10.7004
_cell_length_c       12.461
_cell_angle_alpha    96.0891
_cell_angle_beta     108.763
_cell_angle_gamma    92.2344

_space_group_name_H-M_alt    "P 1"
_space_group_IT_number       1

loop_
  _space_group_symop_operation_xyz
  'x, y, z'

loop_
  _atom_site_type_symbol
  _atom_site_label
  _atom_site_symmetry_multiplicity
  _atom_site_fract_x
  _atom_site_fract_y
  _atom_site_fract_z
  _atom_site_occupancy
  Zn  Zn1       1.0  0.08181  0.84526  0.90680  1.0000
  Zn  Zn2       1.0  0.91820  0.15474  0.09320  1.0000
  H   H1        1.0  0.50678  0.87399  0.69427  1.0000
  H   H2        1.0  0.49321  0.12601  0.30574  1.0000
  H   H3        1.0  0.49744  0.74358  0.53696  1.0000
  H   H4        1.0  0.50256  0.25641  0.46305  1.0000
  H   H5        1.0  0.02432  0.26966  0.80488  1.0000
  H   H6        1.0  0.97568  0.73034  0.19512  1.0000
  H   H7        1.0  0.90798  0.17934  0.44083  1.0000
  H   H8        1.0  0.09202  0.82065  0.55917  1.0000
  H   H9        1.0  0.72291  0.00250  0.44555  1.0000
  H   H10       1.0  0.27707  0.99750  0.55445  1.0000
  H   H11       1.0  0.32867  0.44814  0.49122  1.0000
  H   H12       1.0  0.67133  0.55185  0.50878  1.0000
  H   H13       1.0  0.15935  0.26074  0.49001  1.0000
  H   H14       1.0  0.84064  0.73926  0.50999  1.0000
  H   H15       1.0  0.01174  0.46627  0.74970  1.0000
  H   H16       1.0  0.98825  0.53372  0.25030  1.0000
  H   H17       1.0  0.79510  0.70656  0.70287  1.0000
  H   H18       1.0  0.20491  0.29343  0.29713  1.0000
  H   H19       1.0  0.61407  0.51163  0.66047  1.0000
  H   H20       1.0  0.38594  0.48837  0.33953  1.0000
  H   H21       1.0  0.79640  0.46671  0.01779  1.0000
  H   H22       1.0  0.20360  0.53330  0.98221  1.0000
  H   H23       1.0  0.97557  0.65878  0.04301  1.0000
  H   H24       1.0  0.02443  0.34122  0.95699  1.0000
  H   H25       1.0  0.51290  0.33399  0.72405  1.0000
  H   H26       1.0  0.48710  0.66601  0.27595  1.0000
  H   H27       1.0  0.66504  0.27415  0.83081  1.0000
  H   H28       1.0  0.33496  0.72586  0.16919  1.0000
  H   H29       1.0  0.39413  0.41433  0.86827  1.0000
  H   H30       1.0  0.60587  0.58567  0.13174  1.0000
  H   H31       1.0  0.55928  0.38295  0.98146  1.0000
  H   H32       1.0  0.44072  0.61705  0.01855  1.0000
  H   H33       1.0  0.17580  0.96850  0.72718  1.0000
  H   H34       1.0  0.82421  0.03151  0.27282  1.0000
  H   H35       1.0  0.32188  0.16492  0.71153  1.0000
  H   H36       1.0  0.67814  0.83509  0.28848  1.0000
  H   H37       1.0  0.48042  0.23603  0.07976  1.0000
  H   H38       1.0  0.51958  0.76398  0.92025  1.0000
  H   H39       1.0  0.32921  0.03775  0.07981  1.0000
  H   H40       1.0  0.67079  0.96225  0.92020  1.0000
  C   C1        1.0  0.87207  0.07370  0.84590  1.0000
  C   C2        1.0  0.12793  0.92631  0.15409  1.0000
  C   C3        1.0  0.85913  0.11044  0.72996  1.0000
  C   C4        1.0  0.14086  0.88956  0.27004  1.0000
  C   C5        1.0  0.95496  0.21316  0.72545  1.0000
  C   C6        1.0  0.04503  0.78684  0.27455  1.0000
  C   C7        1.0  0.97328  0.23987  0.62236  1.0000
  C   C8        1.0  0.02671  0.76013  0.37764  1.0000
  C   C9        1.0  0.89448  0.15979  0.52160  1.0000
  C   C10       1.0  0.10551  0.84021  0.47839  1.0000
  C   C11       1.0  0.79232  0.06073  0.52418  1.0000
  C   C12       1.0  0.20767  0.93927  0.47582  1.0000
  C   C13       1.0  0.77154  0.03623  0.62682  1.0000
  C   C14       1.0  0.22844  0.96377  0.37318  1.0000
  C   C15       1.0  0.65080  0.93658  0.62072  1.0000
  C   C16       1.0  0.34919  0.06342  0.37928  1.0000
  C   C17       1.0  0.36737  0.67278  0.61771  1.0000
  C   C18       1.0  0.63263  0.32721  0.38229  1.0000
  C   C19       1.0  0.26419  0.56345  0.61869  1.0000
  C   C20       1.0  0.73581  0.43654  0.38130  1.0000
  C   C21       1.0  0.25707  0.45161  0.54653  1.0000
  C   C22       1.0  0.74293  0.54839  0.45347  1.0000
  C   C23       1.0  0.16286  0.34645  0.54645  1.0000
  C   C24       1.0  0.83714  0.65355  0.45355  1.0000
  C   C25       1.0  0.07474  0.35002  0.62103  1.0000
  C   C26       1.0  0.92526  0.64997  0.37896  1.0000
  C   C27       1.0  0.08332  0.46122  0.69400  1.0000
  C   C28       1.0  0.91667  0.53878  0.30600  1.0000
  C   C29       1.0  0.17504  0.56856  0.69286  1.0000
  C   C30       1.0  0.82496  0.43143  0.30714  1.0000
  C   C31       1.0  0.15895  0.68488  0.76607  1.0000
  C   C32       1.0  0.84105  0.31511  0.23393  1.0000
  C   C33       1.0  0.79077  0.65120  0.77045  1.0000
  C   C34       1.0  0.20924  0.34880  0.22954  1.0000
  C   C35       1.0  0.68966  0.54280  0.74766  1.0000
  C   C36       1.0  0.31034  0.45720  0.25233  1.0000
  C   C37       1.0  0.68742  0.47226  0.83572  1.0000
  C   C38       1.0  0.31258  0.52774  0.16428  1.0000
  C   C39       1.0  0.79010  0.51758  0.94517  1.0000
  C   C40       1.0  0.20990  0.48242  0.05482  1.0000
  C   C41       1.0  0.88957  0.62496  0.96027  1.0000
  C   C42       1.0  0.11044  0.37505  0.03973  1.0000
  C   C43       1.0  0.58636  0.35096  0.81431  1.0000
  C   C44       1.0  0.41364  0.64905  0.18570  1.0000
  C   C45       1.0  0.48635  0.34852  0.89354  1.0000
  C   C46       1.0  0.51365  0.65149  0.10646  1.0000
  C   C47       1.0  0.24522  0.03109  0.80296  1.0000
  C   C48       1.0  0.75478  0.96892  0.19704  1.0000
  C   C49       1.0  0.32692  0.14091  0.79547  1.0000
  C   C50       1.0  0.67308  0.85909  0.20454  1.0000
  C   C51       1.0  0.40957  0.22148  0.89491  1.0000
  C   C52       1.0  0.59044  0.77852  0.10510  1.0000
  C   C53       1.0  0.41273  0.18082  0.99890  1.0000
  C   C54       1.0  0.58727  0.81919  0.00110  1.0000
  C   C55       1.0  0.32958  0.06914  0.99971  1.0000
  C   C56       1.0  0.67042  0.93087  0.00029  1.0000
  N   N1        1.0  0.89213  0.69189  0.87522  1.0000
  N   N2        1.0  0.10788  0.30811  0.12478  1.0000
  N   N3        1.0  0.24319  0.99590  0.90330  1.0000
  N   N4        1.0  0.75681  0.00410  0.09670  1.0000
  O   O1        1.0  0.89946  0.96139  0.86242  1.0000
  O   O2        1.0  0.10054  0.03861  0.13758  1.0000
  O   O3        1.0  0.85912  0.16056  0.92019  1.0000
  O   O4        1.0  0.14088  0.83943  0.07981  1.0000
  O   O5        1.0  0.58496  0.95128  0.70065  1.0000
  O   O6        1.0  0.41503  0.04872  0.29936  1.0000
  O   O7        1.0  0.61184  0.84766  0.54042  1.0000
  O   O8        1.0  0.38815  0.15234  0.45958  1.0000
  O   O9        1.0  0.42360  0.66405  0.53181  1.0000
  O   O10       1.0  0.57640  0.33595  0.46820  1.0000
  O   O11       1.0  0.39942  0.76525  0.69402  1.0000
  O   O12       1.0  0.60058  0.23474  0.30598  1.0000
  O   O13       1.0  0.07152  0.76658  0.71823  1.0000
  O   O14       1.0  0.92849  0.23343  0.28177  1.0000
  O   O15       1.0  0.21827  0.68896  0.87417  1.0000
  O   O16       1.0  0.78172  0.31103  0.12583  1.0000
