data_image0
_chemical_formula_structural       Tb2H34C40N4O22
_chemical_formula_sum              "Tb2 H34 C40 N4 O22"
_cell_length_a       8.76696
_cell_length_b       9.99726
_cell_length_c       14.2437
_cell_angle_alpha    107.769
_cell_angle_beta     94.8662
_cell_angle_gamma    105.197

_space_group_name_H-M_alt    "P 1"
_space_group_IT_number       1

loop_
  _space_group_symop_operation_xyz
  'x, y, z'

loop_
  _atom_site_type_symbol
  _atom_site_label
  _atom_site_symmetry_multiplicity
  _atom_site_fract_x
  _atom_site_fract_y
  _atom_site_fract_z
  _atom_site_occupancy
  Tb  Tb1       1.0  0.73865  0.53085  0.52792  1.0000
  Tb  Tb2       1.0  0.26136  0.46913  0.47209  1.0000
  H   H1        1.0  0.89885  0.81661  0.52178  1.0000
  H   H2        1.0  0.10115  0.18338  0.47821  1.0000
  H   H3        1.0  0.01546  0.72250  0.47356  1.0000
  H   H4        1.0  0.98456  0.27749  0.52644  1.0000
  H   H5        1.0  0.69524  0.19289  0.44930  1.0000
  H   H6        1.0  0.30478  0.80711  0.55070  1.0000
  H   H7        1.0  0.70343  0.23995  0.56783  1.0000
  H   H8        1.0  0.29659  0.76004  0.43218  1.0000
  H   H9        1.0  0.41470  0.12832  0.17475  1.0000
  H   H10       1.0  0.58531  0.87168  0.82525  1.0000
  H   H11       1.0  0.34491  0.34338  0.71979  1.0000
  H   H12       1.0  0.65507  0.65664  0.28021  1.0000
  H   H13       1.0  0.36681  0.53399  0.74657  1.0000
  H   H14       1.0  0.63322  0.46604  0.25343  1.0000
  H   H15       1.0  0.80234  0.31894  0.00461  1.0000
  H   H16       1.0  0.19763  0.68106  0.99541  1.0000
  H   H17       1.0  0.96438  0.50977  0.16543  1.0000
  H   H18       1.0  0.03560  0.49024  0.83458  1.0000
  H   H19       1.0  0.94575  0.76405  0.21697  1.0000
  H   H20       1.0  0.05425  0.23597  0.78303  1.0000
  H   H21       1.0  0.77174  0.83727  0.10598  1.0000
  H   H22       1.0  0.22827  0.16274  0.89401  1.0000
  H   H23       1.0  0.56712  0.95529  0.06494  1.0000
  H   H24       1.0  0.43287  0.04472  0.93507  1.0000
  H   H25       1.0  0.77809  0.98595  0.96190  1.0000
  H   H26       1.0  0.22188  0.01405  0.03809  1.0000
  H   H27       1.0  0.04366  0.17670  0.03620  1.0000
  H   H28       1.0  0.95631  0.82330  0.96378  1.0000
  H   H29       1.0  0.09133  0.34578  0.21380  1.0000
  H   H30       1.0  0.90867  0.65422  0.78619  1.0000
  H   H31       1.0  0.19883  0.95116  0.20778  1.0000
  H   H32       1.0  0.80118  0.04884  0.79220  1.0000
  H   H33       1.0  0.33767  0.93553  0.29804  1.0000
  H   H34       1.0  0.66233  0.06445  0.70195  1.0000
  C   C1        1.0  0.53774  0.45886  0.66368  1.0000
  C   C2        1.0  0.46227  0.54113  0.33633  1.0000
  C   C3        1.0  0.43273  0.45361  0.74280  1.0000
  C   C4        1.0  0.56728  0.54640  0.25720  1.0000
  C   C5        1.0  0.59458  0.38827  0.86669  1.0000
  C   C6        1.0  0.40540  0.61173  0.13333  1.0000
  C   C7        1.0  0.70202  0.47462  0.96533  1.0000
  C   C8        1.0  0.29796  0.52537  0.03468  1.0000
  C   C9        1.0  0.79725  0.43179  0.02619  1.0000
  C   C10       1.0  0.20272  0.56821  0.97382  1.0000
  C   C11       1.0  0.88684  0.53928  0.11648  1.0000
  C   C12       1.0  0.11314  0.46073  0.88353  1.0000
  C   C13       1.0  0.87762  0.68350  0.14515  1.0000
  C   C14       1.0  0.12238  0.31651  0.85485  1.0000
  C   C15       1.0  0.78042  0.72569  0.08332  1.0000
  C   C16       1.0  0.21957  0.27432  0.91668  1.0000
  C   C17       1.0  0.69511  0.61965  0.99280  1.0000
  C   C18       1.0  0.30487  0.38035  0.00721  1.0000
  C   C19       1.0  0.58820  0.63016  0.91022  1.0000
  C   C20       1.0  0.41178  0.36984  0.08979  1.0000
  C   C21       1.0  0.87735  0.36215  0.33726  1.0000
  C   C22       1.0  0.12267  0.63785  0.66274  1.0000
  C   C23       1.0  0.85438  0.24803  0.23681  1.0000
  C   C24       1.0  0.14563  0.75197  0.76318  1.0000
  C   C25       1.0  0.70675  0.13589  0.19657  1.0000
  C   C26       1.0  0.29326  0.86412  0.80344  1.0000
  C   C27       1.0  0.68002  0.04371  0.09678  1.0000
  C   C28       1.0  0.31998  0.95629  0.90322  1.0000
  C   C29       1.0  0.80030  0.05995  0.03904  1.0000
  C   C30       1.0  0.19969  0.94005  0.96096  1.0000
  C   C31       1.0  0.94949  0.16588  0.08100  1.0000
  C   C32       1.0  0.05050  0.83412  0.91899  1.0000
  C   C33       1.0  0.97660  0.26016  0.17996  1.0000
  C   C34       1.0  0.02340  0.73984  0.82003  1.0000
  C   C35       1.0  0.58774  0.09859  0.26194  1.0000
  C   C36       1.0  0.41227  0.90142  0.73807  1.0000
  C   C37       1.0  0.24342  0.11747  0.35183  1.0000
  C   C38       1.0  0.75658  0.88252  0.64816  1.0000
  C   C39       1.0  0.30233  0.01476  0.26894  1.0000
  C   C40       1.0  0.69768  0.98523  0.73106  1.0000
  N   N1        1.0  0.52730  0.48815  0.83985  1.0000
  N   N2        1.0  0.47268  0.51184  0.16015  1.0000
  N   N3        1.0  0.43409  0.08201  0.22751  1.0000
  N   N4        1.0  0.56592  0.91799  0.77249  1.0000
  O   O1        1.0  0.90243  0.71688  0.47565  1.0000
  O   O2        1.0  0.09758  0.28311  0.52434  1.0000
  O   O3        1.0  0.68647  0.48078  0.68522  1.0000
  O   O4        1.0  0.31355  0.51921  0.31480  1.0000
  O   O5        1.0  0.74237  0.27562  0.51528  1.0000
  O   O6        1.0  0.25766  0.72438  0.48473  1.0000
  O   O7        1.0  0.75302  0.39172  0.36642  1.0000
  O   O8        1.0  0.24700  0.60828  0.63358  1.0000
  O   O9        1.0  0.29589  0.25634  0.36832  1.0000
  O   O10       1.0  0.70413  0.74365  0.63169  1.0000
  O   O11       1.0  0.01833  0.42851  0.38712  1.0000
  O   O12       1.0  0.98170  0.57148  0.61288  1.0000
  O   O13       1.0  0.47198  0.44189  0.57474  1.0000
  O   O14       1.0  0.52804  0.55809  0.42527  1.0000
  O   O15       1.0  0.63115  0.07079  0.33818  1.0000
  O   O16       1.0  0.36886  0.92922  0.66182  1.0000
  O   O17       1.0  0.56485  0.25824  0.81649  1.0000
  O   O18       1.0  0.43514  0.74176  0.18351  1.0000
  O   O19       1.0  0.55813  0.73992  0.90186  1.0000
  O   O20       1.0  0.44184  0.26007  0.09815  1.0000
  O   O21       1.0  0.14426  0.05509  0.39590  1.0000
  O   O22       1.0  0.85572  0.94489  0.60408  1.0000
