data_image0
_chemical_formula_structural       Ag4H8C16N20O20
_chemical_formula_sum              "Ag4 H8 C16 N20 O20"
_cell_length_a       5.33169
_cell_length_b       10.2003
_cell_length_c       14.5407
_cell_angle_alpha    89.9998
_cell_angle_beta     90.0002
_cell_angle_gamma    89.9999

_space_group_name_H-M_alt    "P 1"
_space_group_IT_number       1

loop_
  _space_group_symop_operation_xyz
  'x, y, z'

loop_
  _atom_site_type_symbol
  _atom_site_label
  _atom_site_symmetry_multiplicity
  _atom_site_fract_x
  _atom_site_fract_y
  _atom_site_fract_z
  _atom_site_occupancy
  Ag  Ag1       1.0  0.02890  0.49787  0.75000  1.0000
  Ag  Ag2       1.0  0.52890  0.00213  0.25000  1.0000
  Ag  Ag3       1.0  0.97110  0.50213  0.25000  1.0000
  Ag  Ag4       1.0  0.47111  0.99787  0.75000  1.0000
  H   H1        1.0  0.48233  0.31334  0.64935  1.0000
  H   H2        1.0  0.98233  0.18665  0.35065  1.0000
  H   H3        1.0  0.51767  0.68666  0.14934  1.0000
  H   H4        1.0  0.01768  0.81335  0.85065  1.0000
  H   H5        1.0  0.51767  0.68666  0.35065  1.0000
  H   H6        1.0  0.01767  0.81334  0.64934  1.0000
  H   H7        1.0  0.48232  0.31334  0.85066  1.0000
  H   H8        1.0  0.98233  0.18666  0.14935  1.0000
  C   C1        1.0  0.10542  0.45906  0.51382  1.0000
  C   C2        1.0  0.60541  0.04093  0.48618  1.0000
  C   C3        1.0  0.89458  0.54094  0.01382  1.0000
  C   C4        1.0  0.39459  0.95906  0.98618  1.0000
  C   C5        1.0  0.89458  0.54094  0.48618  1.0000
  C   C6        1.0  0.39457  0.95906  0.51382  1.0000
  C   C7        1.0  0.10542  0.45906  0.98618  1.0000
  C   C8        1.0  0.60543  0.04094  0.01382  1.0000
  C   C9        1.0  0.36619  0.35770  0.59617  1.0000
  C   C10       1.0  0.86619  0.14229  0.40383  1.0000
  C   C11       1.0  0.63381  0.64230  0.09617  1.0000
  C   C12       1.0  0.13382  0.85771  0.90383  1.0000
  C   C13       1.0  0.63381  0.64230  0.40383  1.0000
  C   C14       1.0  0.13380  0.85770  0.59617  1.0000
  C   C15       1.0  0.36618  0.35770  0.90383  1.0000
  C   C16       1.0  0.86619  0.14230  0.09617  1.0000
  N   N1        1.0  0.25124  0.40156  0.45261  1.0000
  N   N2        1.0  0.75123  0.09844  0.54739  1.0000
  N   N3        1.0  0.74876  0.59845  0.95261  1.0000
  N   N4        1.0  0.24876  0.90156  0.04739  1.0000
  N   N5        1.0  0.74875  0.59844  0.54739  1.0000
  N   N6        1.0  0.24875  0.90156  0.45261  1.0000
  N   N7        1.0  0.25124  0.40156  0.04739  1.0000
  N   N8        1.0  0.75126  0.09845  0.95261  1.0000
  N   N9        1.0  0.17074  0.43408  0.60413  1.0000
  N   N10       1.0  0.67073  0.06591  0.39586  1.0000
  N   N11       1.0  0.82926  0.56592  0.10414  1.0000
  N   N12       1.0  0.32927  0.93409  0.89586  1.0000
  N   N13       1.0  0.82926  0.56591  0.39587  1.0000
  N   N14       1.0  0.32926  0.93408  0.60413  1.0000
  N   N15       1.0  0.17073  0.43409  0.89586  1.0000
  N   N16       1.0  0.67074  0.06592  0.10414  1.0000
  N   N17       1.0  0.54851  0.66073  0.75000  1.0000
  N   N18       1.0  0.04851  0.83927  0.25000  1.0000
  N   N19       1.0  0.45149  0.33927  0.25000  1.0000
  N   N20       1.0  0.95149  0.16073  0.75000  1.0000
  O   O1        1.0  0.42589  0.33365  0.50766  1.0000
  O   O2        1.0  0.92589  0.16635  0.49234  1.0000
  O   O3        1.0  0.57411  0.66635  0.00766  1.0000
  O   O4        1.0  0.07411  0.83365  0.99234  1.0000
  O   O5        1.0  0.57410  0.66635  0.49234  1.0000
  O   O6        1.0  0.07409  0.83365  0.50766  1.0000
  O   O7        1.0  0.42589  0.33365  0.99234  1.0000
  O   O8        1.0  0.92590  0.16635  0.00766  1.0000
  O   O9        1.0  0.59599  0.53850  0.75000  1.0000
  O   O10       1.0  0.09600  0.96150  0.25000  1.0000
  O   O11       1.0  0.40401  0.46151  0.25000  1.0000
  O   O12       1.0  0.90401  0.03849  0.75000  1.0000
  O   O13       1.0  0.72416  0.74401  0.75000  1.0000
  O   O14       1.0  0.22416  0.75599  0.25001  1.0000
  O   O15       1.0  0.27584  0.25599  0.25000  1.0000
  O   O16       1.0  0.77584  0.24401  0.75000  1.0000
  O   O17       1.0  0.32102  0.69799  0.75000  1.0000
  O   O18       1.0  0.82103  0.80201  0.25000  1.0000
  O   O19       1.0  0.67898  0.30201  0.25000  1.0000
  O   O20       1.0  0.17898  0.19799  0.75000  1.0000
