data_image0
_chemical_formula_structural       Mn2H20C28N20
_chemical_formula_sum              "Mn2 H20 C28 N20"
_cell_length_a       7.82037
_cell_length_b       8.27793
_cell_length_c       11.457
_cell_angle_alpha    93.3937
_cell_angle_beta     102.14
_cell_angle_gamma    101.568

_space_group_name_H-M_alt    "P 1"
_space_group_IT_number       1

loop_
  _space_group_symop_operation_xyz
  'x, y, z'

loop_
  _atom_site_type_symbol
  _atom_site_label
  _atom_site_symmetry_multiplicity
  _atom_site_fract_x
  _atom_site_fract_y
  _atom_site_fract_z
  _atom_site_occupancy
  Mn  Mn1       1.0  0.85188  0.06097  0.07636  1.0000
  Mn  Mn2       1.0  0.14812  0.93905  0.92363  1.0000
  H   H1        1.0  0.63634  0.86851  0.25743  1.0000
  H   H2        1.0  0.36366  0.13149  0.74257  1.0000
  H   H3        1.0  0.45928  0.65106  0.52366  1.0000
  H   H4        1.0  0.54074  0.34895  0.47634  1.0000
  H   H5        1.0  0.84439  0.13866  0.60766  1.0000
  H   H6        1.0  0.15563  0.86134  0.39233  1.0000
  H   H7        1.0  0.11881  0.37666  0.01122  1.0000
  H   H8        1.0  0.88120  0.62336  0.98879  1.0000
  H   H9        1.0  0.08931  0.27404  0.70355  1.0000
  H   H10       1.0  0.91068  0.72593  0.29646  1.0000
  H   H11       1.0  0.26872  0.52040  0.82727  1.0000
  H   H12       1.0  0.73125  0.47959  0.17275  1.0000
  H   H13       1.0  0.62105  0.91717  0.47480  1.0000
  H   H14       1.0  0.37896  0.08285  0.52519  1.0000
  H   H15       1.0  0.38589  0.68113  0.34273  1.0000
  H   H16       1.0  0.61412  0.31884  0.65727  1.0000
  H   H17       1.0  0.46777  0.72006  0.72979  1.0000
  H   H18       1.0  0.53224  0.27995  0.27023  1.0000
  H   H19       1.0  0.32558  0.63796  0.12022  1.0000
  H   H20       1.0  0.67441  0.36205  0.87980  1.0000
  C   C1        1.0  0.73063  0.96837  0.31853  1.0000
  C   C2        1.0  0.26938  0.03164  0.68146  1.0000
  C   C3        1.0  0.08022  0.31035  0.28543  1.0000
  C   C4        1.0  0.91978  0.68966  0.71457  1.0000
  C   C5        1.0  0.85012  0.11978  0.51391  1.0000
  C   C6        1.0  0.14986  0.88020  0.48610  1.0000
  C   C7        1.0  0.20423  0.44871  0.35677  1.0000
  C   C8        1.0  0.79580  0.55131  0.64321  1.0000
  C   C9        1.0  0.22851  0.46266  0.48466  1.0000
  C   C10       1.0  0.77150  0.53732  0.51533  1.0000
  C   C11       1.0  0.96864  0.19496  0.34128  1.0000
  C   C12       1.0  0.03137  0.80504  0.65873  1.0000
  C   C13       1.0  0.11761  0.35262  0.53849  1.0000
  C   C14       1.0  0.88238  0.64736  0.46150  1.0000
  C   C15       1.0  0.14403  0.40150  0.10851  1.0000
  C   C16       1.0  0.85597  0.59850  0.89150  1.0000
  C   C17       1.0  0.98048  0.22252  0.46662  1.0000
  C   C18       1.0  0.01947  0.77743  0.53339  1.0000
  C   C19       1.0  0.26430  0.50535  0.73187  1.0000
  C   C20       1.0  0.73569  0.49464  0.26814  1.0000
  C   C21       1.0  0.72450  0.99395  0.43952  1.0000
  C   C22       1.0  0.27551  0.00605  0.56048  1.0000
  C   C23       1.0  0.29470  0.56864  0.29456  1.0000
  C   C24       1.0  0.70533  0.43138  0.70544  1.0000
  C   C25       1.0  0.37053  0.61243  0.68034  1.0000
  C   C26       1.0  0.62947  0.38756  0.31967  1.0000
  C   C27       1.0  0.26266  0.54583  0.17086  1.0000
  C   C28       1.0  0.73734  0.45418  0.82915  1.0000
  N   N1        1.0  0.50580  0.81567  0.99698  1.0000
  N   N2        1.0  0.49418  0.18435  0.00303  1.0000
  N   N3        1.0  0.91196  0.07437  0.89893  1.0000
  N   N4        1.0  0.08808  0.92567  0.10105  1.0000
  N   N5        1.0  0.78802  0.03214  0.81274  1.0000
  N   N6        1.0  0.21200  0.96788  0.18725  1.0000
  N   N7        1.0  0.66272  0.83173  0.03471  1.0000
  N   N8        1.0  0.33725  0.16833  0.96530  1.0000
  N   N9        1.0  0.05516  0.28770  0.16437  1.0000
  N   N10       1.0  0.94481  0.71227  0.83561  1.0000
  N   N11       1.0  0.84983  0.06585  0.27071  1.0000
  N   N12       1.0  0.15018  0.93415  0.72926  1.0000
  N   N13       1.0  0.66895  0.99091  0.72856  1.0000
  N   N14       1.0  0.33104  0.00908  0.27145  1.0000
  N   N15       1.0  0.35308  0.59585  0.55542  1.0000
  N   N16       1.0  0.64694  0.40414  0.44459  1.0000
  N   N17       1.0  0.13312  0.37397  0.66210  1.0000
  N   N18       1.0  0.86687  0.62600  0.33790  1.0000
  N   N19       1.0  0.34850  0.79322  0.96029  1.0000
  N   N20       1.0  0.65147  0.20675  0.03972  1.0000
