data_image0
_chemical_formula_structural       K8H40C40N16O40
_chemical_formula_sum              "K8 H40 C40 N16 O40"
_cell_length_a       6.46703
_cell_length_b       12.5196
_cell_length_c       18.4263
_cell_angle_alpha    90
_cell_angle_beta     90
_cell_angle_gamma    89.9999

_space_group_name_H-M_alt    "P 1"
_space_group_IT_number       1

loop_
  _space_group_symop_operation_xyz
  'x, y, z'

loop_
  _atom_site_type_symbol
  _atom_site_label
  _atom_site_symmetry_multiplicity
  _atom_site_fract_x
  _atom_site_fract_y
  _atom_site_fract_z
  _atom_site_occupancy
  K   K1        1.0  0.85794  0.85740  0.55191  1.0000
  K   K2        1.0  0.64206  0.35739  0.44809  1.0000
  K   K3        1.0  0.35794  0.14261  0.94809  1.0000
  K   K4        1.0  0.14206  0.64261  0.05191  1.0000
  K   K5        1.0  0.14206  0.14260  0.44809  1.0000
  K   K6        1.0  0.35794  0.64260  0.55191  1.0000
  K   K7        1.0  0.64206  0.85739  0.05191  1.0000
  K   K8        1.0  0.85795  0.35740  0.94809  1.0000
  H   H1        1.0  0.57114  0.62084  0.41322  1.0000
  H   H2        1.0  0.92886  0.12084  0.58678  1.0000
  H   H3        1.0  0.07114  0.37916  0.08678  1.0000
  H   H4        1.0  0.42886  0.87916  0.91322  1.0000
  H   H5        1.0  0.42886  0.37916  0.58678  1.0000
  H   H6        1.0  0.07114  0.87916  0.41322  1.0000
  H   H7        1.0  0.92886  0.62084  0.91322  1.0000
  H   H8        1.0  0.57114  0.12084  0.08678  1.0000
  H   H9        1.0  0.51442  0.85027  0.24584  1.0000
  H   H10       1.0  0.98558  0.35028  0.75416  1.0000
  H   H11       1.0  0.01442  0.14973  0.25416  1.0000
  H   H12       1.0  0.48559  0.64973  0.74584  1.0000
  H   H13       1.0  0.48559  0.14973  0.75416  1.0000
  H   H14       1.0  0.01442  0.64973  0.24584  1.0000
  H   H15       1.0  0.98559  0.85027  0.74584  1.0000
  H   H16       1.0  0.51442  0.35027  0.25416  1.0000
  H   H17       1.0  0.51572  0.53181  0.19298  1.0000
  H   H18       1.0  0.98428  0.03181  0.80702  1.0000
  H   H19       1.0  0.01572  0.46819  0.30702  1.0000
  H   H20       1.0  0.48428  0.96819  0.69298  1.0000
  H   H21       1.0  0.48428  0.46819  0.80702  1.0000
  H   H22       1.0  0.01572  0.96819  0.19298  1.0000
  H   H23       1.0  0.98428  0.53181  0.69298  1.0000
  H   H24       1.0  0.51572  0.03181  0.30702  1.0000
  H   H25       1.0  0.31713  0.98594  0.56384  1.0000
  H   H26       1.0  0.18287  0.48594  0.43616  1.0000
  H   H27       1.0  0.81713  0.01406  0.93616  1.0000
  H   H28       1.0  0.68287  0.51406  0.06384  1.0000
  H   H29       1.0  0.68287  0.01406  0.43616  1.0000
  H   H30       1.0  0.81713  0.51406  0.56384  1.0000
  H   H31       1.0  0.18287  0.98594  0.06384  1.0000
  H   H32       1.0  0.31713  0.48594  0.93616  1.0000
  H   H33       1.0  0.35434  0.90369  0.50132  1.0000
  H   H34       1.0  0.14566  0.40369  0.49868  1.0000
  H   H35       1.0  0.85434  0.09631  0.99868  1.0000
  H   H36       1.0  0.64566  0.59631  0.00132  1.0000
  H   H37       1.0  0.64566  0.09631  0.49868  1.0000
  H   H38       1.0  0.85434  0.59631  0.50132  1.0000
  H   H39       1.0  0.14566  0.90369  0.00132  1.0000
  H   H40       1.0  0.35434  0.40369  0.99868  1.0000
  C   C1        1.0  0.53837  0.83558  0.39062  1.0000
  C   C2        1.0  0.96163  0.33558  0.60938  1.0000
  C   C3        1.0  0.03837  0.16442  0.10939  1.0000
  C   C4        1.0  0.46163  0.66442  0.89062  1.0000
  C   C5        1.0  0.46163  0.16442  0.60938  1.0000
  C   C6        1.0  0.03837  0.66442  0.39062  1.0000
  C   C7        1.0  0.96163  0.83558  0.89062  1.0000
  C   C8        1.0  0.53837  0.33558  0.10938  1.0000
  C   C9        1.0  0.54371  0.55737  0.30329  1.0000
  C   C10       1.0  0.95628  0.05737  0.69671  1.0000
  C   C11       1.0  0.04372  0.44263  0.19671  1.0000
  C   C12       1.0  0.45629  0.94263  0.80329  1.0000
  C   C13       1.0  0.45629  0.44263  0.69671  1.0000
  C   C14       1.0  0.04371  0.94263  0.30329  1.0000
  C   C15       1.0  0.95629  0.55737  0.80329  1.0000
  C   C16       1.0  0.54371  0.05737  0.19671  1.0000
  C   C17       1.0  0.55066  0.64119  0.35649  1.0000
  C   C18       1.0  0.94933  0.14119  0.64351  1.0000
  C   C19       1.0  0.05067  0.35881  0.14351  1.0000
  C   C20       1.0  0.44934  0.85881  0.85649  1.0000
  C   C21       1.0  0.44933  0.35881  0.64351  1.0000
  C   C22       1.0  0.05066  0.85881  0.35649  1.0000
  C   C23       1.0  0.94933  0.64119  0.85649  1.0000
  C   C24       1.0  0.55067  0.14119  0.14351  1.0000
  C   C25       1.0  0.53378  0.74519  0.33528  1.0000
  C   C26       1.0  0.96622  0.24519  0.66472  1.0000
  C   C27       1.0  0.03378  0.25480  0.16473  1.0000
  C   C28       1.0  0.46622  0.75481  0.83528  1.0000
  C   C29       1.0  0.46622  0.25481  0.66472  1.0000
  C   C30       1.0  0.03378  0.75481  0.33528  1.0000
  C   C31       1.0  0.96622  0.74520  0.83528  1.0000
  C   C32       1.0  0.53378  0.24519  0.16472  1.0000
  C   C33       1.0  0.49376  0.69480  0.20942  1.0000
  C   C34       1.0  0.00625  0.19480  0.79058  1.0000
  C   C35       1.0  0.99376  0.30520  0.29059  1.0000
  C   C36       1.0  0.50625  0.80520  0.70942  1.0000
  C   C37       1.0  0.50625  0.30520  0.79058  1.0000
  C   C38       1.0  0.99376  0.80520  0.20942  1.0000
  C   C39       1.0  0.00625  0.69480  0.70942  1.0000
  C   C40       1.0  0.49376  0.19480  0.29058  1.0000
  N   N1        1.0  0.51103  0.77121  0.26347  1.0000
  N   N2        1.0  0.98897  0.27121  0.73653  1.0000
  N   N3        1.0  0.01103  0.22879  0.23653  1.0000
  N   N4        1.0  0.48897  0.72879  0.76347  1.0000
  N   N5        1.0  0.48897  0.22879  0.73653  1.0000
  N   N6        1.0  0.01103  0.72879  0.26347  1.0000
  N   N7        1.0  0.98897  0.77121  0.76347  1.0000
  N   N8        1.0  0.51103  0.27121  0.23653  1.0000
  N   N9        1.0  0.51705  0.59096  0.23244  1.0000
  N   N10       1.0  0.98295  0.09096  0.76756  1.0000
  N   N11       1.0  0.01705  0.40904  0.26756  1.0000
  N   N12       1.0  0.48295  0.90904  0.73244  1.0000
  N   N13       1.0  0.48295  0.40904  0.76756  1.0000
  N   N14       1.0  0.01705  0.90904  0.23244  1.0000
  N   N15       1.0  0.98295  0.59096  0.73244  1.0000
  N   N16       1.0  0.51705  0.09096  0.26756  1.0000
  O   O1        1.0  0.51981  0.80889  0.45650  1.0000
  O   O2        1.0  0.98019  0.30889  0.54350  1.0000
  O   O3        1.0  0.01981  0.19111  0.04350  1.0000
  O   O4        1.0  0.48019  0.69111  0.95650  1.0000
  O   O5        1.0  0.48019  0.19111  0.54350  1.0000
  O   O6        1.0  0.01981  0.69111  0.45650  1.0000
  O   O7        1.0  0.98019  0.80889  0.95650  1.0000
  O   O8        1.0  0.51981  0.30889  0.04350  1.0000
  O   O9        1.0  0.45899  0.71744  0.14512  1.0000
  O   O10       1.0  0.04103  0.21744  0.85488  1.0000
  O   O11       1.0  0.95899  0.28256  0.35488  1.0000
  O   O12       1.0  0.54102  0.78256  0.64512  1.0000
  O   O13       1.0  0.54103  0.28256  0.85488  1.0000
  O   O14       1.0  0.95899  0.78256  0.14512  1.0000
  O   O15       1.0  0.04102  0.71744  0.64512  1.0000
  O   O16       1.0  0.45898  0.21744  0.35488  1.0000
  O   O17       1.0  0.56215  0.92964  0.36646  1.0000
  O   O18       1.0  0.93785  0.42965  0.63354  1.0000
  O   O19       1.0  0.06215  0.07035  0.13354  1.0000
  O   O20       1.0  0.43785  0.57035  0.86646  1.0000
  O   O21       1.0  0.43785  0.07035  0.63354  1.0000
  O   O22       1.0  0.06215  0.57035  0.36646  1.0000
  O   O23       1.0  0.93785  0.92965  0.86646  1.0000
  O   O24       1.0  0.56215  0.42965  0.13354  1.0000
  O   O25       1.0  0.55876  0.45964  0.31697  1.0000
  O   O26       1.0  0.94124  0.95964  0.68303  1.0000
  O   O27       1.0  0.05876  0.54036  0.18303  1.0000
  O   O28       1.0  0.44124  0.04036  0.81697  1.0000
  O   O29       1.0  0.44124  0.54036  0.68303  1.0000
  O   O30       1.0  0.05876  0.04036  0.31697  1.0000
  O   O31       1.0  0.94124  0.45964  0.81697  1.0000
  O   O32       1.0  0.55876  0.95964  0.18303  1.0000
  O   O33       1.0  0.24632  0.94967  0.52310  1.0000
  O   O34       1.0  0.25368  0.44967  0.47690  1.0000
  O   O35       1.0  0.74632  0.05033  0.97690  1.0000
  O   O36       1.0  0.75368  0.55033  0.02310  1.0000
  O   O37       1.0  0.75368  0.05033  0.47690  1.0000
  O   O38       1.0  0.74632  0.55033  0.52310  1.0000
  O   O39       1.0  0.25368  0.94967  0.02309  1.0000
  O   O40       1.0  0.24632  0.44967  0.97690  1.0000
