data_image0
_chemical_formula_structural       Cu4H24C16S2N8O12
_chemical_formula_sum              "Cu4 H24 C16 S2 N8 O12"
_cell_length_a       8.01654
_cell_length_b       8.01654
_cell_length_c       11.203
_cell_angle_alpha    105.72
_cell_angle_beta     105.72
_cell_angle_gamma    94.7935

_space_group_name_H-M_alt    "P 1"
_space_group_IT_number       1

loop_
  _space_group_symop_operation_xyz
  'x, y, z'

loop_
  _atom_site_type_symbol
  _atom_site_label
  _atom_site_symmetry_multiplicity
  _atom_site_fract_x
  _atom_site_fract_y
  _atom_site_fract_z
  _atom_site_occupancy
  Cu  Cu1       1.0  0.09701  0.47754  0.80317  1.0000
  Cu  Cu2       1.0  0.52246  0.90299  0.69683  1.0000
  Cu  Cu3       1.0  0.90299  0.52246  0.19683  1.0000
  Cu  Cu4       1.0  0.47754  0.09701  0.30317  1.0000
  H   H1        1.0  0.28739  0.65106  0.08746  1.0000
  H   H2        1.0  0.34894  0.71261  0.41255  1.0000
  H   H3        1.0  0.71261  0.34894  0.91254  1.0000
  H   H4        1.0  0.65106  0.28739  0.58745  1.0000
  H   H5        1.0  0.03591  0.22009  0.54012  1.0000
  H   H6        1.0  0.77991  0.96409  0.95988  1.0000
  H   H7        1.0  0.96409  0.77990  0.45988  1.0000
  H   H8        1.0  0.22010  0.03592  0.04012  1.0000
  H   H9        1.0  0.40949  0.33395  0.76973  1.0000
  H   H10       1.0  0.66604  0.59050  0.73027  1.0000
  H   H11       1.0  0.59050  0.66605  0.23027  1.0000
  H   H12       1.0  0.33395  0.40950  0.26973  1.0000
  H   H13       1.0  0.01853  0.75404  0.68263  1.0000
  H   H14       1.0  0.24596  0.98147  0.81737  1.0000
  H   H15       1.0  0.98147  0.24596  0.31736  1.0000
  H   H16       1.0  0.75405  0.01854  0.18264  1.0000
  H   H17       1.0  0.95308  0.77337  0.87743  1.0000
  H   H18       1.0  0.22663  0.04692  0.62257  1.0000
  H   H19       1.0  0.04692  0.22663  0.12257  1.0000
  H   H20       1.0  0.77337  0.95308  0.37743  1.0000
  H   H21       1.0  0.98540  0.69388  0.99516  1.0000
  H   H22       1.0  0.30612  0.01460  0.50484  1.0000
  H   H23       1.0  0.01460  0.30612  0.00484  1.0000
  H   H24       1.0  0.69388  0.98540  0.49516  1.0000
  C   C1        1.0  0.44958  0.40935  0.87279  1.0000
  C   C2        1.0  0.59065  0.55042  0.62720  1.0000
  C   C3        1.0  0.55042  0.59065  0.12720  1.0000
  C   C4        1.0  0.40935  0.44958  0.37280  1.0000
  C   C5        1.0  0.38256  0.58439  0.04768  1.0000
  C   C6        1.0  0.41561  0.61744  0.45232  1.0000
  C   C7        1.0  0.61744  0.41561  0.95232  1.0000
  C   C8        1.0  0.58439  0.38255  0.54768  1.0000
  C   C9        1.0  0.02106  0.34583  0.52271  1.0000
  C   C10       1.0  0.65417  0.97894  0.97728  1.0000
  C   C11       1.0  0.97894  0.65417  0.47728  1.0000
  C   C12       1.0  0.34583  0.02107  0.02272  1.0000
  C   C13       1.0  0.01169  0.63974  0.60148  1.0000
  C   C14       1.0  0.36027  0.98832  0.89852  1.0000
  C   C15       1.0  0.98831  0.36026  0.39851  1.0000
  C   C16       1.0  0.63974  0.01169  0.10148  1.0000
  S   S1        1.0  0.91475  0.08525  0.75000  1.0000
  S   S2        1.0  0.08525  0.91475  0.25000  1.0000
  N   N1        1.0  0.32983  0.49385  0.91904  1.0000
  N   N2        1.0  0.50615  0.67016  0.58096  1.0000
  N   N3        1.0  0.67017  0.50615  0.08096  1.0000
  N   N4        1.0  0.49385  0.32983  0.41904  1.0000
  N   N5        1.0  0.03344  0.48571  0.62708  1.0000
  N   N6        1.0  0.51429  0.96656  0.87292  1.0000
  N   N7        1.0  0.96655  0.51428  0.37291  1.0000
  N   N8        1.0  0.48572  0.03345  0.12709  1.0000
  O   O1        1.0  0.94943  0.27074  0.84015  1.0000
  O   O2        1.0  0.72927  0.05055  0.65985  1.0000
  O   O3        1.0  0.05057  0.72926  0.15985  1.0000
  O   O4        1.0  0.27074  0.94944  0.34015  1.0000
  O   O5        1.0  0.95123  0.66168  0.89848  1.0000
  O   O6        1.0  0.33832  0.04877  0.60152  1.0000
  O   O7        1.0  0.04877  0.33832  0.10152  1.0000
  O   O8        1.0  0.66168  0.95123  0.39848  1.0000
  O   O9        1.0  0.93436  0.96344  0.82927  1.0000
  O   O10       1.0  0.03658  0.06566  0.67074  1.0000
  O   O11       1.0  0.06566  0.03657  0.17073  1.0000
  O   O12       1.0  0.96343  0.93434  0.32926  1.0000
