data_image0
_chemical_formula_structural       Ni4H44C60N8O20
_chemical_formula_sum              "Ni4 H44 C60 N8 O20"
_cell_length_a       8.30457
_cell_length_b       11.2337
_cell_length_c       14.9922
_cell_angle_alpha    98.0719
_cell_angle_beta     89.9997
_cell_angle_gamma    89.9997

_space_group_name_H-M_alt    "P 1"
_space_group_IT_number       1

loop_
  _space_group_symop_operation_xyz
  'x, y, z'

loop_
  _atom_site_type_symbol
  _atom_site_label
  _atom_site_symmetry_multiplicity
  _atom_site_fract_x
  _atom_site_fract_y
  _atom_site_fract_z
  _atom_site_occupancy
  Ni  Ni1       1.0  0.83117  0.76162  0.65562  1.0000
  Ni  Ni2       1.0  0.66882  0.26162  0.15562  1.0000
  Ni  Ni3       1.0  0.16883  0.23838  0.34438  1.0000
  Ni  Ni4       1.0  0.33117  0.73838  0.84438  1.0000
  H   H1        1.0  0.16542  0.71341  0.65960  1.0000
  H   H2        1.0  0.33458  0.21341  0.15959  1.0000
  H   H3        1.0  0.83459  0.28659  0.34041  1.0000
  H   H4        1.0  0.66541  0.78659  0.84040  1.0000
  H   H5        1.0  0.12616  0.82512  0.61287  1.0000
  H   H6        1.0  0.37385  0.32512  0.11287  1.0000
  H   H7        1.0  0.87384  0.17488  0.38713  1.0000
  H   H8        1.0  0.62615  0.67488  0.88713  1.0000
  H   H9        1.0  0.35823  0.47021  0.63934  1.0000
  H   H10       1.0  0.14177  0.97020  0.13934  1.0000
  H   H11       1.0  0.64177  0.52979  0.36066  1.0000
  H   H12       1.0  0.85823  0.02980  0.86067  1.0000
  H   H13       1.0  0.88808  0.54763  0.52905  1.0000
  H   H14       1.0  0.61192  0.04763  0.02904  1.0000
  H   H15       1.0  0.11192  0.45237  0.47095  1.0000
  H   H16       1.0  0.38809  0.95237  0.97095  1.0000
  H   H17       1.0  0.89128  0.32512  0.52210  1.0000
  H   H18       1.0  0.60872  0.82512  0.02209  1.0000
  H   H19       1.0  0.10871  0.67488  0.47790  1.0000
  H   H20       1.0  0.39129  0.17488  0.97790  1.0000
  H   H21       1.0  0.79339  0.37701  0.80895  1.0000
  H   H22       1.0  0.70661  0.87701  0.30894  1.0000
  H   H23       1.0  0.20660  0.62299  0.19106  1.0000
  H   H24       1.0  0.29339  0.12299  0.69105  1.0000
  H   H25       1.0  0.80207  0.59838  0.80217  1.0000
  H   H26       1.0  0.69794  0.09838  0.30216  1.0000
  H   H27       1.0  0.19793  0.40162  0.19784  1.0000
  H   H28       1.0  0.30206  0.90162  0.69784  1.0000
  H   H29       1.0  0.62839  0.19413  0.75026  1.0000
  H   H30       1.0  0.87161  0.69413  0.25026  1.0000
  H   H31       1.0  0.37160  0.80587  0.24974  1.0000
  H   H32       1.0  0.12839  0.30587  0.74974  1.0000
  H   H33       1.0  0.02402  0.94702  0.56634  1.0000
  H   H34       1.0  0.47599  0.44701  0.06633  1.0000
  H   H35       1.0  0.97599  0.05299  0.43367  1.0000
  H   H36       1.0  0.52401  0.55299  0.93366  1.0000
  H   H37       1.0  0.04238  0.16733  0.57355  1.0000
  H   H38       1.0  0.45762  0.66733  0.07354  1.0000
  H   H39       1.0  0.95762  0.83267  0.42646  1.0000
  H   H40       1.0  0.54239  0.33267  0.92646  1.0000
  H   H41       1.0  0.63656  0.97023  0.74148  1.0000
  H   H42       1.0  0.86343  0.47023  0.24149  1.0000
  H   H43       1.0  0.36343  0.02977  0.25851  1.0000
  H   H44       1.0  0.13657  0.52977  0.75851  1.0000
  C   C1        1.0  0.47988  0.68891  0.65468  1.0000
  C   C2        1.0  0.02012  0.18890  0.15468  1.0000
  C   C3        1.0  0.52013  0.31109  0.34532  1.0000
  C   C4        1.0  0.97988  0.81110  0.84532  1.0000
  C   C5        1.0  0.49399  0.59485  0.57313  1.0000
  C   C6        1.0  0.00601  0.09484  0.07313  1.0000
  C   C7        1.0  0.50601  0.40516  0.42688  1.0000
  C   C8        1.0  0.99399  0.90516  0.92688  1.0000
  C   C9        1.0  0.57619  0.61189  0.49345  1.0000
  C   C10       1.0  0.92382  0.11189  0.99345  1.0000
  C   C11       1.0  0.42381  0.38811  0.50655  1.0000
  C   C12       1.0  0.07618  0.88811  0.00655  1.0000
  C   C13       1.0  0.42049  0.48341  0.57755  1.0000
  C   C14       1.0  0.07951  0.98341  0.07755  1.0000
  C   C15       1.0  0.57951  0.51659  0.42245  1.0000
  C   C16       1.0  0.92049  0.01659  0.92245  1.0000
  C   C17       1.0  0.66683  0.72355  0.47574  1.0000
  C   C18       1.0  0.83317  0.22356  0.97574  1.0000
  C   C19       1.0  0.33317  0.27643  0.52426  1.0000
  C   C20       1.0  0.16683  0.77644  0.02426  1.0000
  C   C21       1.0  0.86795  0.50525  0.58901  1.0000
  C   C22       1.0  0.63204  0.00525  0.08900  1.0000
  C   C23       1.0  0.13205  0.49475  0.41100  1.0000
  C   C24       1.0  0.36795  0.99475  0.91099  1.0000
  C   C25       1.0  0.86774  0.38127  0.58605  1.0000
  C   C26       1.0  0.63225  0.88127  0.08605  1.0000
  C   C27       1.0  0.13226  0.61873  0.41395  1.0000
  C   C28       1.0  0.36775  0.11873  0.91395  1.0000
  C   C29       1.0  0.80891  0.41075  0.74458  1.0000
  C   C30       1.0  0.69109  0.91074  0.24457  1.0000
  C   C31       1.0  0.19109  0.58925  0.25543  1.0000
  C   C32       1.0  0.30890  0.08925  0.75543  1.0000
  C   C33       1.0  0.81463  0.53374  0.74140  1.0000
  C   C34       1.0  0.68538  0.03374  0.24139  1.0000
  C   C35       1.0  0.18538  0.46626  0.25860  1.0000
  C   C36       1.0  0.31462  0.96626  0.75860  1.0000
  C   C37       1.0  0.83586  0.33169  0.66490  1.0000
  C   C38       1.0  0.66414  0.83168  0.16489  1.0000
  C   C39       1.0  0.16414  0.66832  0.33511  1.0000
  C   C40       1.0  0.33586  0.16831  0.83511  1.0000
  C   C41       1.0  0.72091  0.14247  0.71076  1.0000
  C   C42       1.0  0.77909  0.64246  0.21076  1.0000
  C   C43       1.0  0.27908  0.85754  0.28924  1.0000
  C   C44       1.0  0.22091  0.35754  0.78924  1.0000
  C   C45       1.0  0.94115  0.00410  0.60958  1.0000
  C   C46       1.0  0.55886  0.50410  0.10957  1.0000
  C   C47       1.0  0.05885  0.99590  0.39043  1.0000
  C   C48       1.0  0.44115  0.49590  0.89042  1.0000
  C   C49       1.0  0.94841  0.12797  0.61143  1.0000
  C   C50       1.0  0.55159  0.62796  0.11142  1.0000
  C   C51       1.0  0.05158  0.87204  0.38858  1.0000
  C   C52       1.0  0.44842  0.37203  0.88858  1.0000
  C   C53       1.0  0.83499  0.20002  0.66305  1.0000
  C   C54       1.0  0.66501  0.70002  0.16306  1.0000
  C   C55       1.0  0.16501  0.79998  0.33695  1.0000
  C   C56       1.0  0.33499  0.29998  0.83694  1.0000
  C   C57       1.0  0.72415  0.01794  0.70577  1.0000
  C   C58       1.0  0.77584  0.51794  0.20577  1.0000
  C   C59       1.0  0.27584  0.98206  0.29422  1.0000
  C   C60       1.0  0.22416  0.48206  0.79422  1.0000
  N   N1        1.0  0.84160  0.58124  0.66519  1.0000
  N   N2        1.0  0.65840  0.08123  0.16519  1.0000
  N   N3        1.0  0.15840  0.41876  0.33481  1.0000
  N   N4        1.0  0.34160  0.91876  0.83481  1.0000
  N   N5        1.0  0.83290  0.94869  0.65610  1.0000
  N   N6        1.0  0.66710  0.44869  0.15610  1.0000
  N   N7        1.0  0.16710  0.05131  0.34390  1.0000
  N   N8        1.0  0.33290  0.55131  0.84390  1.0000
  O   O1        1.0  0.58991  0.76536  0.67752  1.0000
  O   O2        1.0  0.91009  0.26536  0.17752  1.0000
  O   O3        1.0  0.41009  0.23464  0.32249  1.0000
  O   O4        1.0  0.08991  0.73464  0.82248  1.0000
  O   O5        1.0  0.61829  0.77658  0.41308  1.0000
  O   O6        1.0  0.88172  0.27659  0.91308  1.0000
  O   O7        1.0  0.38171  0.22342  0.58692  1.0000
  O   O8        1.0  0.11828  0.72341  0.08692  1.0000
  O   O9        1.0  0.79885  0.74934  0.52022  1.0000
  O   O10       1.0  0.70115  0.24934  0.02022  1.0000
  O   O11       1.0  0.20115  0.25066  0.47978  1.0000
  O   O12       1.0  0.29885  0.75066  0.97978  1.0000
  O   O13       1.0  0.08162  0.74798  0.62256  1.0000
  O   O14       1.0  0.41838  0.24798  0.12256  1.0000
  O   O15       1.0  0.91838  0.25202  0.37744  1.0000
  O   O16       1.0  0.58162  0.75202  0.87744  1.0000
  O   O17       1.0  0.34983  0.68733  0.70146  1.0000
  O   O18       1.0  0.15016  0.18733  0.20146  1.0000
  O   O19       1.0  0.65017  0.31267  0.29854  1.0000
  O   O20       1.0  0.84984  0.81268  0.79854  1.0000
