data_image0
_chemical_formula_structural       Cd2Fe2H60C62N8O10
_chemical_formula_sum              "Cd2 Fe2 H60 C62 N8 O10"
_cell_length_a       11.7374
_cell_length_b       12.0447
_cell_length_c       13.6114
_cell_angle_alpha    68.5599
_cell_angle_beta     77.1433
_cell_angle_gamma    62.2876

_space_group_name_H-M_alt    "P 1"
_space_group_IT_number       1

loop_
  _space_group_symop_operation_xyz
  'x, y, z'

loop_
  _atom_site_type_symbol
  _atom_site_label
  _atom_site_symmetry_multiplicity
  _atom_site_fract_x
  _atom_site_fract_y
  _atom_site_fract_z
  _atom_site_occupancy
  Cd  Cd1       1.0  0.87512  0.64508  0.62364  1.0000
  Cd  Cd2       1.0  0.12488  0.35492  0.37635  1.0000
  Fe  Fe1       1.0  0.11067  0.87082  0.25474  1.0000
  Fe  Fe2       1.0  0.88932  0.12918  0.74526  1.0000
  H   H1        1.0  0.29702  0.64353  0.37889  1.0000
  H   H2        1.0  0.70298  0.35647  0.62111  1.0000
  H   H3        1.0  0.37039  0.82759  0.23389  1.0000
  H   H4        1.0  0.62961  0.17241  0.76611  1.0000
  H   H5        1.0  0.18147  0.06867  0.23723  1.0000
  H   H6        1.0  0.81854  0.93133  0.76277  1.0000
  H   H7        1.0  0.99624  0.03274  0.38580  1.0000
  H   H8        1.0  0.00376  0.96727  0.61420  1.0000
  H   H9        1.0  0.76540  0.22736  0.91561  1.0000
  H   H10       1.0  0.23460  0.77265  0.08439  1.0000
  H   H11       1.0  0.90525  0.96240  0.95487  1.0000
  H   H12       1.0  0.09475  0.03760  0.04513  1.0000
  H   H13       1.0  0.12179  0.92114  0.82571  1.0000
  H   H14       1.0  0.87821  0.07886  0.17429  1.0000
  H   H15       1.0  0.11815  0.16000  0.70777  1.0000
  H   H16       1.0  0.88185  0.84000  0.29223  1.0000
  H   H17       1.0  0.69022  0.94092  0.66052  1.0000
  H   H18       1.0  0.30978  0.05909  0.33948  1.0000
  H   H19       1.0  0.61570  0.59965  0.59337  1.0000
  H   H20       1.0  0.38430  0.40035  0.40663  1.0000
  H   H21       1.0  0.39359  0.65304  0.55293  1.0000
  H   H22       1.0  0.60642  0.34695  0.44707  1.0000
  H   H23       1.0  0.21300  0.86852  0.55172  1.0000
  H   H24       1.0  0.78701  0.13147  0.44828  1.0000
  H   H25       1.0  0.23987  0.03559  0.59534  1.0000
  H   H26       1.0  0.76013  0.96440  0.40466  1.0000
  H   H27       1.0  0.34536  0.16990  0.61380  1.0000
  H   H28       1.0  0.65464  0.83010  0.38620  1.0000
  H   H29       1.0  0.49317  0.15546  0.63926  1.0000
  H   H30       1.0  0.50683  0.84454  0.36073  1.0000
  H   H31       1.0  0.31845  0.04030  0.80422  1.0000
  H   H32       1.0  0.68154  0.95970  0.19577  1.0000
  H   H33       1.0  0.46842  0.02300  0.82892  1.0000
  H   H34       1.0  0.53157  0.97700  0.17107  1.0000
  H   H35       1.0  0.23508  0.28853  0.75436  1.0000
  H   H36       1.0  0.76491  0.71147  0.24564  1.0000
  H   H37       1.0  0.38318  0.26733  0.78567  1.0000
  H   H38       1.0  0.61682  0.73267  0.21433  1.0000
  H   H39       1.0  0.19241  0.16593  0.93818  1.0000
  H   H40       1.0  0.80759  0.83407  0.06183  1.0000
  H   H41       1.0  0.34363  0.13192  0.97456  1.0000
  H   H42       1.0  0.65637  0.86808  0.02544  1.0000
  H   H43       1.0  0.27934  0.37126  0.93764  1.0000
  H   H44       1.0  0.72066  0.62874  0.06237  1.0000
  H   H45       1.0  0.13540  0.41122  0.88603  1.0000
  H   H46       1.0  0.86460  0.58879  0.11397  1.0000
  H   H47       1.0  0.27053  0.34106  0.13211  1.0000
  H   H48       1.0  0.72946  0.65894  0.86789  1.0000
  H   H49       1.0  0.94913  0.33966  0.93937  1.0000
  H   H50       1.0  0.05087  0.66034  0.06063  1.0000
  H   H51       1.0  0.73954  0.35007  0.03356  1.0000
  H   H52       1.0  0.26046  0.64992  0.96645  1.0000
  H   H53       1.0  0.69302  0.34529  0.22187  1.0000
  H   H54       1.0  0.30698  0.65471  0.77813  1.0000
  H   H55       1.0  0.85316  0.33955  0.32014  1.0000
  H   H56       1.0  0.14684  0.66045  0.67986  1.0000
  H   H57       1.0  0.84312  0.53310  0.48116  1.0000
  H   H58       1.0  0.15688  0.46690  0.51883  1.0000
  H   H59       1.0  0.90541  0.62515  0.41055  1.0000
  H   H60       1.0  0.09460  0.37485  0.58945  1.0000
  C   C1        1.0  0.04600  0.75047  0.49126  1.0000
  C   C2        1.0  0.95400  0.24952  0.50874  1.0000
  C   C3        1.0  0.12300  0.81611  0.41303  1.0000
  C   C4        1.0  0.87699  0.18389  0.58698  1.0000
  C   C5        1.0  0.24607  0.74946  0.36318  1.0000
  C   C6        1.0  0.75392  0.25055  0.63683  1.0000
  C   C7        1.0  0.28391  0.84680  0.28682  1.0000
  C   C8        1.0  0.71609  0.15320  0.71318  1.0000
  C   C9        1.0  0.18453  0.97419  0.28886  1.0000
  C   C10       1.0  0.81546  0.02581  0.71114  1.0000
  C   C11       1.0  0.08516  0.95579  0.36644  1.0000
  C   C12       1.0  0.91484  0.04421  0.63357  1.0000
  C   C13       1.0  0.93015  0.24239  0.79892  1.0000
  C   C14       1.0  0.06986  0.75761  0.20108  1.0000
  C   C15       1.0  0.85929  0.17743  0.87947  1.0000
  C   C16       1.0  0.14071  0.82257  0.12054  1.0000
  C   C17       1.0  0.93281  0.03858  0.89947  1.0000
  C   C18       1.0  0.06719  0.96143  0.10053  1.0000
  C   C19       1.0  0.04876  0.01635  0.83166  1.0000
  C   C20       1.0  0.95124  0.98365  0.16834  1.0000
  C   C21       1.0  0.04719  0.14163  0.76976  1.0000
  C   C22       1.0  0.95281  0.85837  0.23024  1.0000
  C   C23       1.0  0.88818  0.38650  0.74988  1.0000
  C   C24       1.0  0.11182  0.61350  0.25011  1.0000
  C   C25       1.0  0.62583  0.90579  0.64870  1.0000
  C   C26       1.0  0.37416  0.09422  0.35130  1.0000
  C   C27       1.0  0.55120  0.78848  0.61734  1.0000
  C   C28       1.0  0.44881  0.21152  0.38265  1.0000
  C   C29       1.0  0.53414  0.69287  0.59487  1.0000
  C   C30       1.0  0.46587  0.30712  0.40513  1.0000
  C   C31       1.0  0.41071  0.72370  0.57279  1.0000
  C   C32       1.0  0.58929  0.27630  0.42720  1.0000
  C   C33       1.0  0.30685  0.84596  0.57360  1.0000
  C   C34       1.0  0.69316  0.15404  0.42640  1.0000
  C   C35       1.0  0.32119  0.94061  0.59898  1.0000
  C   C36       1.0  0.67881  0.05938  0.40101  1.0000
  C   C37       1.0  0.44505  0.90941  0.62116  1.0000
  C   C38       1.0  0.55495  0.09059  0.37883  1.0000
  C   C39       1.0  0.42750  0.10704  0.66410  1.0000
  C   C40       1.0  0.57250  0.89296  0.33589  1.0000
  C   C41       1.0  0.38368  0.08943  0.78123  1.0000
  C   C42       1.0  0.61631  0.91057  0.21877  1.0000
  C   C43       1.0  0.31608  0.22044  0.80561  1.0000
  C   C44       1.0  0.68391  0.77956  0.19439  1.0000
  C   C45       1.0  0.26561  0.20450  0.92129  1.0000
  C   C46       1.0  0.73439  0.79550  0.07870  1.0000
  C   C47       1.0  0.20600  0.33600  0.94446  1.0000
  C   C48       1.0  0.79400  0.66400  0.05555  1.0000
  C   C49       1.0  0.18071  0.33443  0.13449  1.0000
  C   C50       1.0  0.81929  0.66558  0.86551  1.0000
  C   C51       1.0  0.01905  0.33148  0.07867  1.0000
  C   C52       1.0  0.98094  0.66852  0.92133  1.0000
  C   C53       1.0  0.92991  0.33749  0.02184  1.0000
  C   C54       1.0  0.07008  0.66250  0.97817  1.0000
  C   C55       1.0  0.81243  0.34331  0.07572  1.0000
  C   C56       1.0  0.18756  0.65669  0.92428  1.0000
  C   C57       1.0  0.78573  0.34180  0.18243  1.0000
  C   C58       1.0  0.21426  0.65820  0.81757  1.0000
  C   C59       1.0  0.87479  0.33639  0.23883  1.0000
  C   C60       1.0  0.12521  0.66361  0.76117  1.0000
  C   C61       1.0  0.99273  0.33220  0.18542  1.0000
  C   C62       1.0  0.00727  0.66780  0.81458  1.0000
  N   N1        1.0  0.66249  0.79036  0.63458  1.0000
  N   N2        1.0  0.33751  0.20964  0.36542  1.0000
  N   N3        1.0  0.49663  0.98097  0.64239  1.0000
  N   N4        1.0  0.50337  0.01903  0.35761  1.0000
  N   N5        1.0  0.14026  0.33145  0.04922  1.0000
  N   N6        1.0  0.85974  0.66855  0.95078  1.0000
  N   N7        1.0  0.09635  0.33386  0.21749  1.0000
  N   N8        1.0  0.90364  0.66614  0.78251  1.0000
  O   O1        1.0  0.92949  0.82123  0.51601  1.0000
  O   O2        1.0  0.07052  0.17876  0.48400  1.0000
  O   O3        1.0  0.09953  0.62542  0.53191  1.0000
  O   O4        1.0  0.90047  0.37459  0.46809  1.0000
  O   O5        1.0  0.97223  0.42175  0.68259  1.0000
  O   O6        1.0  0.02778  0.57825  0.31741  1.0000
  O   O7        1.0  0.77960  0.46660  0.77482  1.0000
  O   O8        1.0  0.22040  0.53340  0.22517  1.0000
  O   O9        1.0  0.83536  0.62307  0.46722  1.0000
  O   O10       1.0  0.16465  0.37692  0.53278  1.0000
