data_image0
_chemical_formula_structural       Na2V2H18C16N4O12
_chemical_formula_sum              "Na2 V2 H18 C16 N4 O12"
_cell_length_a       7.91691
_cell_length_b       8.35697
_cell_length_c       9.07627
_cell_angle_alpha    85.2612
_cell_angle_beta     68.4785
_cell_angle_gamma    79.6006

_space_group_name_H-M_alt    "P 1"
_space_group_IT_number       1

loop_
  _space_group_symop_operation_xyz
  'x, y, z'

loop_
  _atom_site_type_symbol
  _atom_site_label
  _atom_site_symmetry_multiplicity
  _atom_site_fract_x
  _atom_site_fract_y
  _atom_site_fract_z
  _atom_site_occupancy
  Na  Na1       1.0  0.45329  0.59530  0.34519  1.0000
  Na  Na2       1.0  0.54670  0.40470  0.65482  1.0000
  V   V1        1.0  0.23879  0.22845  0.27315  1.0000
  V   V2        1.0  0.76120  0.77154  0.72686  1.0000
  H   H1        1.0  0.02957  0.76561  0.34310  1.0000
  H   H2        1.0  0.97043  0.23437  0.65689  1.0000
  H   H3        1.0  0.00049  0.58268  0.15392  1.0000
  H   H4        1.0  0.99952  0.41731  0.84605  1.0000
  H   H5        1.0  0.11840  0.64386  0.86272  1.0000
  H   H6        1.0  0.88161  0.35615  0.13725  1.0000
  H   H7        1.0  0.26538  0.88725  0.76195  1.0000
  H   H8        1.0  0.73463  0.11276  0.23804  1.0000
  H   H9        1.0  0.37854  0.12041  0.80379  1.0000
  H   H10       1.0  0.62148  0.87959  0.19622  1.0000
  H   H11       1.0  0.83441  0.46930  0.39097  1.0000
  H   H12       1.0  0.16559  0.53071  0.60903  1.0000
  H   H13       1.0  0.49122  0.84496  0.51554  1.0000
  H   H14       1.0  0.50877  0.15505  0.48447  1.0000
  H   H15       1.0  0.72626  0.64147  0.46389  1.0000
  H   H16       1.0  0.27373  0.35854  0.53612  1.0000
  H   H17       1.0  0.34580  0.95271  0.45220  1.0000
  H   H18       1.0  0.65419  0.04730  0.54780  1.0000
  C   C1        1.0  0.16680  0.92881  0.15996  1.0000
  C   C2        1.0  0.83320  0.07118  0.84004  1.0000
  C   C3        1.0  0.08150  0.79068  0.21585  1.0000
  C   C4        1.0  0.91851  0.20931  0.78413  1.0000
  C   C5        1.0  0.06573  0.68972  0.10889  1.0000
  C   C6        1.0  0.93429  0.31027  0.89108  1.0000
  C   C7        1.0  0.13300  0.72296  0.94513  1.0000
  C   C8        1.0  0.86702  0.27704  0.05484  1.0000
  C   C9        1.0  0.21493  0.85951  0.88868  1.0000
  C   C10       1.0  0.78509  0.14049  0.11131  1.0000
  C   C11       1.0  0.23363  0.96473  0.99411  1.0000
  C   C12       1.0  0.76638  0.03527  0.00588  1.0000
  C   C13       1.0  0.32090  0.10280  0.93276  1.0000
  C   C14       1.0  0.67911  0.89720  0.06725  1.0000
  C   C15       1.0  0.45148  0.42988  0.03390  1.0000
  C   C16       1.0  0.54851  0.57012  0.96613  1.0000
  N   N1        1.0  0.34000  0.21150  0.01992  1.0000
  N   N2        1.0  0.66000  0.78850  0.98009  1.0000
  N   N3        1.0  0.43347  0.33353  0.93546  1.0000
  N   N4        1.0  0.56652  0.66648  0.06456  1.0000
  O   O1        1.0  0.18828  0.02068  0.26171  1.0000
  O   O2        1.0  0.81171  0.97931  0.73830  1.0000
  O   O3        1.0  0.38968  0.40595  0.18750  1.0000
  O   O4        1.0  0.61031  0.59404  0.81253  1.0000
  O   O5        1.0  0.03650  0.34270  0.33721  1.0000
  O   O6        1.0  0.96349  0.65731  0.66279  1.0000
  O   O7        1.0  0.32213  0.18530  0.42009  1.0000
  O   O8        1.0  0.67785  0.81470  0.57992  1.0000
  O   O9        1.0  0.39854  0.83971  0.46746  1.0000
  O   O10       1.0  0.60146  0.16030  0.53253  1.0000
  O   O11       1.0  0.71217  0.54041  0.42245  1.0000
  O   O12       1.0  0.28782  0.45959  0.57756  1.0000
