data_image0
_chemical_formula_structural       Cd2H48C52N8O12
_chemical_formula_sum              "Cd2 H48 C52 N8 O12"
_cell_length_a       10.1585
_cell_length_b       10.9647
_cell_length_c       12.6691
_cell_angle_alpha    86.6821
_cell_angle_beta     79.809
_cell_angle_gamma    65.431

_space_group_name_H-M_alt    "P 1"
_space_group_IT_number       1

loop_
  _space_group_symop_operation_xyz
  'x, y, z'

loop_
  _atom_site_type_symbol
  _atom_site_label
  _atom_site_symmetry_multiplicity
  _atom_site_fract_x
  _atom_site_fract_y
  _atom_site_fract_z
  _atom_site_occupancy
  Cd  Cd1       1.0  0.08089  0.12533  0.04433  1.0000
  Cd  Cd2       1.0  0.91911  0.87468  0.95568  1.0000
  H   H1        1.0  0.89956  0.97660  0.19480  1.0000
  H   H2        1.0  0.10044  0.02341  0.80520  1.0000
  H   H3        1.0  0.90627  0.84807  0.36600  1.0000
  H   H4        1.0  0.09372  0.15193  0.63400  1.0000
  H   H5        1.0  0.34049  0.72787  0.47866  1.0000
  H   H6        1.0  0.65950  0.27213  0.52134  1.0000
  H   H7        1.0  0.10752  0.80817  0.47019  1.0000
  H   H8        1.0  0.89247  0.19183  0.52981  1.0000
  H   H9        1.0  0.69899  0.68898  0.40167  1.0000
  H   H10       1.0  0.30101  0.31102  0.59833  1.0000
  H   H11       1.0  0.26268  0.04054  0.23412  1.0000
  H   H12       1.0  0.73732  0.95946  0.76588  1.0000
  H   H13       1.0  0.52638  0.86192  0.52570  1.0000
  H   H14       1.0  0.47361  0.13809  0.47431  1.0000
  H   H15       1.0  0.32502  0.76878  0.68475  1.0000
  H   H16       1.0  0.67498  0.23121  0.31525  1.0000
  H   H17       1.0  0.30143  0.93607  0.65765  1.0000
  H   H18       1.0  0.69856  0.06391  0.34235  1.0000
  H   H19       1.0  0.52624  0.89850  0.72912  1.0000
  H   H20       1.0  0.47376  0.10149  0.27088  1.0000
  H   H21       1.0  0.40501  0.85457  0.82535  1.0000
  H   H22       1.0  0.59499  0.14542  0.17465  1.0000
  H   H23       1.0  0.54937  0.61375  0.77907  1.0000
  H   H24       1.0  0.45063  0.38624  0.22093  1.0000
  H   H25       1.0  0.66815  0.68241  0.80853  1.0000
  H   H26       1.0  0.33185  0.31759  0.19147  1.0000
  H   H27       1.0  0.77593  0.53699  0.63980  1.0000
  H   H28       1.0  0.22407  0.46301  0.36020  1.0000
  H   H29       1.0  0.74999  0.70599  0.61523  1.0000
  H   H30       1.0  0.25001  0.29401  0.38477  1.0000
  H   H31       1.0  0.54920  0.57623  0.57145  1.0000
  H   H32       1.0  0.45080  0.42377  0.42855  1.0000
  H   H33       1.0  0.87774  0.27362  0.27768  1.0000
  H   H34       1.0  0.12226  0.72638  0.72232  1.0000
  H   H35       1.0  0.90252  0.65264  0.31234  1.0000
  H   H36       1.0  0.09748  0.34736  0.68766  1.0000
  H   H37       1.0  0.06631  0.60759  0.13415  1.0000
  H   H38       1.0  0.93369  0.39241  0.86586  1.0000
  H   H39       1.0  0.12944  0.39398  0.03660  1.0000
  H   H40       1.0  0.87056  0.60603  0.96340  1.0000
  H   H41       1.0  0.72228  0.37762  0.82547  1.0000
  H   H42       1.0  0.27772  0.62240  0.17454  1.0000
  H   H43       1.0  0.50530  0.44006  0.73337  1.0000
  H   H44       1.0  0.49469  0.55995  0.26664  1.0000
  H   H45       1.0  0.32390  0.34012  0.79409  1.0000
  H   H46       1.0  0.67611  0.65988  0.20591  1.0000
  H   H47       1.0  0.57831  0.11304  0.02902  1.0000
  H   H48       1.0  0.42170  0.88695  0.97098  1.0000
  C   C1        1.0  0.98369  0.95872  0.24382  1.0000
  C   C2        1.0  0.01631  0.04128  0.75618  1.0000
  C   C3        1.0  0.98966  0.88606  0.33801  1.0000
  C   C4        1.0  0.01034  0.11394  0.66199  1.0000
  C   C5        1.0  0.10059  0.86569  0.39665  1.0000
  C   C6        1.0  0.89940  0.13431  0.60335  1.0000
  C   C7        1.0  0.20175  0.92116  0.35984  1.0000
  C   C8        1.0  0.79825  0.07885  0.64016  1.0000
  C   C9        1.0  0.18665  0.99513  0.26558  1.0000
  C   C10       1.0  0.81334  0.00487  0.73442  1.0000
  C   C11       1.0  0.31977  0.91328  0.41985  1.0000
  C   C12       1.0  0.68022  0.08672  0.58016  1.0000
  C   C13       1.0  0.47662  0.79055  0.55099  1.0000
  C   C14       1.0  0.52338  0.20944  0.44901  1.0000
  C   C15       1.0  0.38454  0.83349  0.66277  1.0000
  C   C16       1.0  0.61545  0.16650  0.33724  1.0000
  C   C17       1.0  0.47714  0.82573  0.74742  1.0000
  C   C18       1.0  0.52286  0.17426  0.25257  1.0000
  C   C19       1.0  0.59847  0.68487  0.75058  1.0000
  C   C20       1.0  0.40153  0.31512  0.24942  1.0000
  C   C21       1.0  0.69202  0.64058  0.63944  1.0000
  C   C22       1.0  0.30798  0.35942  0.36056  1.0000
  C   C23       1.0  0.59841  0.64933  0.55363  1.0000
  C   C24       1.0  0.40159  0.35067  0.44637  1.0000
  C   C25       1.0  0.77006  0.48550  0.41198  1.0000
  C   C26       1.0  0.22993  0.51450  0.58801  1.0000
  C   C27       1.0  0.87404  0.46694  0.30854  1.0000
  C   C28       1.0  0.12596  0.53306  0.69146  1.0000
  C   C29       1.0  0.91749  0.34964  0.24795  1.0000
  C   C30       1.0  0.08252  0.65036  0.75205  1.0000
  C   C31       1.0  0.93017  0.56045  0.26806  1.0000
  C   C32       1.0  0.06983  0.43955  0.73194  1.0000
  C   C33       1.0  0.02322  0.53574  0.16952  1.0000
  C   C34       1.0  0.97679  0.46426  0.83048  1.0000
  C   C35       1.0  0.05811  0.41712  0.11459  1.0000
  C   C36       1.0  0.94189  0.58289  0.88541  1.0000
  C   C37       1.0  0.80019  0.19486  0.98235  1.0000
  C   C38       1.0  0.19981  0.80514  0.01765  1.0000
  C   C39       1.0  0.66512  0.24038  0.93249  1.0000
  C   C40       1.0  0.33489  0.75961  0.06751  1.0000
  C   C41       1.0  0.64285  0.33418  0.84975  1.0000
  C   C42       1.0  0.35715  0.66583  0.15025  1.0000
  C   C43       1.0  0.52143  0.36907  0.79889  1.0000
  C   C44       1.0  0.47857  0.63094  0.20111  1.0000
  C   C45       1.0  0.42018  0.31334  0.83187  1.0000
  C   C46       1.0  0.57983  0.68666  0.16813  1.0000
  C   C47       1.0  0.43883  0.22310  0.91655  1.0000
  C   C48       1.0  0.56117  0.77690  0.08345  1.0000
  C   C49       1.0  0.32356  0.17248  0.95860  1.0000
  C   C50       1.0  0.67645  0.82752  0.04140  1.0000
  C   C51       1.0  0.56252  0.18586  0.96545  1.0000
  C   C52       1.0  0.43749  0.81414  0.03454  1.0000
  N   N1        1.0  0.08090  0.01226  0.20849  1.0000
  N   N2        1.0  0.91910  0.98774  0.79151  1.0000
  N   N3        1.0  0.00677  0.32546  0.15311  1.0000
  N   N4        1.0  0.99324  0.67454  0.84689  1.0000
  N   N5        1.0  0.38263  0.79856  0.47349  1.0000
  N   N6        1.0  0.61737  0.20144  0.52651  1.0000
  N   N7        1.0  0.69085  0.61304  0.44814  1.0000
  N   N8        1.0  0.30915  0.38696  0.55186  1.0000
  O   O1        1.0  0.88050  0.25958  0.96334  1.0000
  O   O2        1.0  0.11950  0.74042  0.03666  1.0000
  O   O3        1.0  0.22500  0.18880  0.90173  1.0000
  O   O4        1.0  0.77501  0.81119  0.09826  1.0000
  O   O5        1.0  0.32302  0.12219  0.05176  1.0000
  O   O6        1.0  0.67699  0.87781  0.94823  1.0000
  O   O7        1.0  0.83443  0.09009  0.04089  1.0000
  O   O8        1.0  0.16558  0.90991  0.95911  1.0000
  O   O9        1.0  0.35439  0.00989  0.41868  1.0000
  O   O10       1.0  0.64559  0.99011  0.58133  1.0000
  O   O11       1.0  0.75785  0.38717  0.46061  1.0000
  O   O12       1.0  0.24215  0.61283  0.53939  1.0000
