data_image0
_chemical_formula_structural       Cd2H48C52N8O12
_chemical_formula_sum              "Cd2 H48 C52 N8 O12"
_cell_length_a       10.0906
_cell_length_b       10.1488
_cell_length_c       13.2041
_cell_angle_alpha    99.9805
_cell_angle_beta     100.052
_cell_angle_gamma    108.939

_space_group_name_H-M_alt    "P 1"
_space_group_IT_number       1

loop_
  _space_group_symop_operation_xyz
  'x, y, z'

loop_
  _atom_site_type_symbol
  _atom_site_label
  _atom_site_symmetry_multiplicity
  _atom_site_fract_x
  _atom_site_fract_y
  _atom_site_fract_z
  _atom_site_occupancy
  Cd  Cd1       1.0  0.36304  0.08114  0.93833  1.0000
  Cd  Cd2       1.0  0.63696  0.91886  0.06167  1.0000
  H   H1        1.0  0.34378  0.22677  0.76042  1.0000
  H   H2        1.0  0.65622  0.77323  0.23958  1.0000
  H   H3        1.0  0.43758  0.28702  0.60742  1.0000
  H   H4        1.0  0.56242  0.71298  0.39258  1.0000
  H   H5        1.0  0.51654  0.30931  0.49254  1.0000
  H   H6        1.0  0.48346  0.69069  0.50746  1.0000
  H   H7        1.0  0.36644  0.26977  0.20986  1.0000
  H   H8        1.0  0.63356  0.73023  0.79014  1.0000
  H   H9        1.0  0.68638  0.01672  0.64968  1.0000
  H   H10       1.0  0.31363  0.98329  0.35032  1.0000
  H   H11       1.0  0.57302  0.96034  0.80102  1.0000
  H   H12       1.0  0.42698  0.03966  0.19898  1.0000
  H   H13       1.0  0.64641  0.23136  0.32906  1.0000
  H   H14       1.0  0.35359  0.76864  0.67094  1.0000
  H   H15       1.0  0.81635  0.52125  0.48807  1.0000
  H   H16       1.0  0.18365  0.47875  0.51193  1.0000
  H   H17       1.0  0.87644  0.37572  0.46170  1.0000
  H   H18       1.0  0.12355  0.62428  0.53830  1.0000
  H   H19       1.0  0.97893  0.56289  0.36441  1.0000
  H   H20       1.0  0.02107  0.43711  0.63559  1.0000
  H   H21       1.0  0.86553  0.39711  0.27433  1.0000
  H   H22       1.0  0.13447  0.60289  0.72567  1.0000
  H   H23       1.0  0.80530  0.59780  0.21666  1.0000
  H   H24       1.0  0.19470  0.40220  0.78334  1.0000
  H   H25       1.0  0.77953  0.65596  0.34343  1.0000
  H   H26       1.0  0.22046  0.34404  0.65657  1.0000
  H   H27       1.0  0.54333  0.50967  0.21075  1.0000
  H   H28       1.0  0.45667  0.49033  0.78925  1.0000
  H   H29       1.0  0.60352  0.36513  0.18321  1.0000
  H   H30       1.0  0.39648  0.63487  0.81679  1.0000
  H   H31       1.0  0.55624  0.48574  0.39800  1.0000
  H   H32       1.0  0.44376  0.51426  0.60200  1.0000
  H   H33       1.0  0.06274  0.26650  0.41071  1.0000
  H   H34       1.0  0.93726  0.73349  0.58929  1.0000
  H   H35       1.0  0.80862  0.11281  0.31111  1.0000
  H   H36       1.0  0.19138  0.88718  0.68889  1.0000
  H   H37       1.0  0.94886  0.91276  0.07254  1.0000
  H   H38       1.0  0.05114  0.08724  0.92746  1.0000
  H   H39       1.0  0.20420  0.05329  0.16097  1.0000
  H   H40       1.0  0.79580  0.94671  0.83903  1.0000
  H   H41       1.0  0.10599  0.74969  0.12268  1.0000
  H   H42       1.0  0.89401  0.25031  0.87732  1.0000
  H   H43       1.0  0.03123  0.53079  0.19235  1.0000
  H   H44       1.0  0.96877  0.46921  0.80765  1.0000
  H   H45       1.0  0.12686  0.33692  0.14364  1.0000
  H   H46       1.0  0.87314  0.66308  0.85636  1.0000
  H   H47       1.0  0.37338  0.58230  0.96023  1.0000
  H   H48       1.0  0.62662  0.41771  0.03977  1.0000
  C   C1        1.0  0.41885  0.18129  0.73276  1.0000
  C   C2        1.0  0.58115  0.81871  0.26724  1.0000
  C   C3        1.0  0.47477  0.21611  0.64800  1.0000
  C   C4        1.0  0.52523  0.78389  0.35200  1.0000
  C   C5        1.0  0.57404  0.15804  0.61712  1.0000
  C   C6        1.0  0.42596  0.84197  0.38288  1.0000
  C   C7        1.0  0.60991  0.06385  0.67250  1.0000
  C   C8        1.0  0.39009  0.93615  0.32750  1.0000
  C   C9        1.0  0.54776  0.03306  0.75590  1.0000
  C   C10       1.0  0.45224  0.96694  0.24410  1.0000
  C   C11       1.0  0.64417  0.19186  0.52776  1.0000
  C   C12       1.0  0.35583  0.80814  0.47224  1.0000
  C   C13       1.0  0.65305  0.32657  0.38782  1.0000
  C   C14       1.0  0.34695  0.67343  0.61218  1.0000
  C   C15       1.0  0.81108  0.43118  0.42544  1.0000
  C   C16       1.0  0.18892  0.56882  0.57457  1.0000
  C   C17       1.0  0.86609  0.48745  0.33476  1.0000
  C   C18       1.0  0.13391  0.51255  0.66524  1.0000
  C   C19       1.0  0.77014  0.56010  0.28421  1.0000
  C   C20       1.0  0.22986  0.43990  0.71579  1.0000
  C   C21       1.0  0.61253  0.45687  0.24613  1.0000
  C   C22       1.0  0.38747  0.54313  0.75387  1.0000
  C   C23       1.0  0.55521  0.39791  0.33532  1.0000
  C   C24       1.0  0.44478  0.60209  0.66468  1.0000
  C   C25       1.0  0.30693  0.27401  0.35085  1.0000
  C   C26       1.0  0.69307  0.72599  0.64915  1.0000
  C   C27       1.0  0.15507  0.17739  0.29272  1.0000
  C   C28       1.0  0.84492  0.82261  0.70728  1.0000
  C   C29       1.0  0.04097  0.19007  0.33541  1.0000
  C   C30       1.0  0.95903  0.80993  0.66459  1.0000
  C   C31       1.0  0.89970  0.10469  0.27988  1.0000
  C   C32       1.0  0.10030  0.89530  0.72012  1.0000
  C   C33       1.0  0.97790  0.99209  0.14789  1.0000
  C   C34       1.0  0.02210  0.00791  0.85211  1.0000
  C   C35       1.0  0.12218  0.07295  0.19815  1.0000
  C   C36       1.0  0.87782  0.92705  0.80185  1.0000
  C   C37       1.0  0.29143  0.81425  0.99843  1.0000
  C   C38       1.0  0.70857  0.18575  0.00157  1.0000
  C   C39       1.0  0.24458  0.68048  0.03711  1.0000
  C   C40       1.0  0.75542  0.31952  0.96289  1.0000
  C   C41       1.0  0.14764  0.66467  0.10272  1.0000
  C   C42       1.0  0.85236  0.33533  0.89728  1.0000
  C   C43       1.0  0.10668  0.54250  0.14181  1.0000
  C   C44       1.0  0.89333  0.45750  0.85819  1.0000
  C   C45       1.0  0.16067  0.43423  0.11522  1.0000
  C   C46       1.0  0.83933  0.56577  0.88478  1.0000
  C   C47       1.0  0.25579  0.44792  0.04860  1.0000
  C   C48       1.0  0.74421  0.55208  0.95140  1.0000
  C   C49       1.0  0.29779  0.57156  0.01034  1.0000
  C   C50       1.0  0.70221  0.42844  0.98965  1.0000
  C   C51       1.0  0.30822  0.32966  0.01365  1.0000
  C   C52       1.0  0.69178  0.67034  0.98635  1.0000
  N   N1        1.0  0.45508  0.09202  0.78670  1.0000
  N   N2        1.0  0.54492  0.90798  0.21330  1.0000
  N   N3        1.0  0.86829  0.00892  0.18667  1.0000
  N   N4        1.0  0.13171  0.99108  0.81333  1.0000
  N   N5        1.0  0.59977  0.27961  0.47604  1.0000
  N   N6        1.0  0.40023  0.72039  0.52396  1.0000
  N   N7        1.0  0.40456  0.29848  0.29187  1.0000
  N   N8        1.0  0.59544  0.70152  0.70813  1.0000
  O   O1        1.0  0.22641  0.90158  0.01257  1.0000
  O   O2        1.0  0.77359  0.09842  0.98743  1.0000
  O   O3        1.0  0.39763  0.83992  0.95309  1.0000
  O   O4        1.0  0.60237  0.16008  0.04691  1.0000
  O   O5        1.0  0.30332  0.23525  0.06839  1.0000
  O   O6        1.0  0.69668  0.76475  0.93161  1.0000
  O   O7        1.0  0.35149  0.32234  0.92922  1.0000
  O   O8        1.0  0.64851  0.67766  0.07078  1.0000
  O   O9        1.0  0.73576  0.14151  0.50579  1.0000
  O   O10       1.0  0.26424  0.85849  0.49421  1.0000
  O   O11       1.0  0.33644  0.32571  0.44909  1.0000
  O   O12       1.0  0.66356  0.67429  0.55092  1.0000
