data_image0
_chemical_formula_structural       Cd2H16C28S4N12O4
_chemical_formula_sum              "Cd2 H16 C28 S4 N12 O4"
_cell_length_a       7.44952
_cell_length_b       9.1947
_cell_length_c       12.8799
_cell_angle_alpha    83.3016
_cell_angle_beta     73.2042
_cell_angle_gamma    66.1108

_space_group_name_H-M_alt    "P 1"
_space_group_IT_number       1

loop_
  _space_group_symop_operation_xyz
  'x, y, z'

loop_
  _atom_site_type_symbol
  _atom_site_label
  _atom_site_symmetry_multiplicity
  _atom_site_fract_x
  _atom_site_fract_y
  _atom_site_fract_z
  _atom_site_occupancy
  Cd  Cd1       1.0  0.87392  0.00005  0.00003  1.0000
  Cd  Cd2       1.0  0.62405  0.49990  0.50001  1.0000
  H   H1        1.0  0.79345  0.66395  0.02601  1.0000
  H   H2        1.0  0.48286  0.33600  0.97383  1.0000
  H   H3        1.0  0.20709  0.83577  0.52619  1.0000
  H   H4        1.0  0.56917  0.16343  0.47392  1.0000
  H   H5        1.0  0.81420  0.45752  0.90562  1.0000
  H   H6        1.0  0.17686  0.54228  0.09418  1.0000
  H   H7        1.0  0.02199  0.04236  0.40586  1.0000
  H   H8        1.0  0.46946  0.95739  0.59442  1.0000
  H   H9        1.0  0.85340  0.51587  0.70749  1.0000
  H   H10       1.0  0.07723  0.48446  0.29243  1.0000
  H   H11       1.0  0.12031  0.98431  0.20758  1.0000
  H   H12       1.0  0.31148  0.01587  0.79262  1.0000
  H   H13       1.0  0.86378  0.77906  0.63627  1.0000
  H   H14       1.0  0.27983  0.22147  0.36370  1.0000
  H   H15       1.0  0.39385  0.72110  0.13626  1.0000
  H   H16       1.0  0.25074  0.27924  0.86364  1.0000
  C   C1        1.0  0.80737  0.68509  0.93946  1.0000
  C   C2        1.0  0.43161  0.31493  0.06042  1.0000
  C   C3        1.0  0.24243  0.81469  0.43960  1.0000
  C   C4        1.0  0.49667  0.18478  0.56048  1.0000
  C   C5        1.0  0.81864  0.57098  0.87244  1.0000
  C   C6        1.0  0.26179  0.42901  0.12742  1.0000
  C   C7        1.0  0.13987  0.92892  0.37262  1.0000
  C   C8        1.0  0.44091  0.07083  0.62757  1.0000
  C   C9        1.0  0.84105  0.60369  0.76209  1.0000
  C   C10       1.0  0.20705  0.39655  0.23784  1.0000
  C   C11       1.0  0.19546  0.89640  0.26218  1.0000
  C   C12       1.0  0.35342  0.10368  0.73794  1.0000
  C   C13       1.0  0.85009  0.74883  0.72182  1.0000
  C   C14       1.0  0.32117  0.25158  0.27813  1.0000
  C   C15       1.0  0.34958  0.75124  0.22187  1.0000
  C   C16       1.0  0.32245  0.24883  0.77810  1.0000
  C   C17       1.0  0.83834  0.85582  0.79440  1.0000
  C   C18       1.0  0.48872  0.14444  0.20554  1.0000
  C   C19       1.0  0.44444  0.64408  0.29442  1.0000
  C   C20       1.0  0.38289  0.35582  0.70541  1.0000
  C   C21       1.0  0.85173  0.00852  0.76151  1.0000
  C   C22       1.0  0.62174  0.99170  0.23844  1.0000
  C   C23       1.0  0.61045  0.49135  0.26152  1.0000
  C   C24       1.0  0.36297  0.50864  0.73831  1.0000
  C   C25       1.0  0.90074  0.20537  0.66299  1.0000
  C   C26       1.0  0.76901  0.79489  0.33704  1.0000
  C   C27       1.0  0.85640  0.29427  0.16313  1.0000
  C   C28       1.0  0.31355  0.70536  0.83702  1.0000
  S   S1        1.0  0.96663  0.30475  0.54943  1.0000
  S   S2        1.0  0.82064  0.69566  0.45065  1.0000
  S   S3        1.0  0.02198  0.19465  0.04967  1.0000
  S   S4        1.0  0.26611  0.80453  0.95068  1.0000
  N   N1        1.0  0.81737  0.82410  0.90178  1.0000
  N   N2        1.0  0.54310  0.17605  0.09813  1.0000
  N   N3        1.0  0.39152  0.67574  0.40184  1.0000
  N   N4        1.0  0.46905  0.32390  0.59802  1.0000
  N   N5        1.0  0.82962  0.11669  0.82752  1.0000
  N   N6        1.0  0.77332  0.88323  0.17245  1.0000
  N   N7        1.0  0.69617  0.38323  0.32760  1.0000
  N   N8        1.0  0.40621  0.61703  0.67238  1.0000
  N   N9        1.0  0.86709  0.75778  0.23388  1.0000
  N   N10       1.0  0.85940  0.24216  0.76613  1.0000
  N   N11       1.0  0.37460  0.74245  0.73389  1.0000
  N   N12       1.0  0.85141  0.25763  0.26631  1.0000
  O   O1        1.0  0.89556  0.05418  0.65658  1.0000
  O   O2        1.0  0.60652  0.94623  0.34339  1.0000
  O   O3        1.0  0.70025  0.44553  0.15662  1.0000
  O   O4        1.0  0.30219  0.55411  0.84329  1.0000
