data_image0
_chemical_formula_structural       Zn6H40C60S4N20O16
_chemical_formula_sum              "Zn6 H40 C60 S4 N20 O16"
_cell_length_a       9.28818
_cell_length_b       11.2298
_cell_length_c       16.8123
_cell_angle_alpha    86.3068
_cell_angle_beta     80.9793
_cell_angle_gamma    65.5782

_space_group_name_H-M_alt    "P 1"
_space_group_IT_number       1

loop_
  _space_group_symop_operation_xyz
  'x, y, z'

loop_
  _atom_site_type_symbol
  _atom_site_label
  _atom_site_symmetry_multiplicity
  _atom_site_fract_x
  _atom_site_fract_y
  _atom_site_fract_z
  _atom_site_occupancy
  Zn  Zn1       1.0  0.26149  0.47809  0.25000  1.0000
  Zn  Zn2       1.0  0.73851  0.52191  0.75000  1.0000
  Zn  Zn3       1.0  0.05381  0.34184  0.09546  1.0000
  Zn  Zn4       1.0  0.60469  0.34180  0.40471  1.0000
  Zn  Zn5       1.0  0.94619  0.65816  0.90454  1.0000
  Zn  Zn6       1.0  0.39531  0.65820  0.59529  1.0000
  H   H1        1.0  0.98329  0.07999  0.30585  1.0000
  H   H2        1.0  0.93786  0.07961  0.19413  1.0000
  H   H3        1.0  0.01671  0.92001  0.69415  1.0000
  H   H4        1.0  0.06215  0.92039  0.80587  1.0000
  H   H5        1.0  0.06583  0.91115  0.41307  1.0000
  H   H6        1.0  0.02366  0.91092  0.08675  1.0000
  H   H7        1.0  0.93417  0.08885  0.58693  1.0000
  H   H8        1.0  0.97634  0.08908  0.91325  1.0000
  H   H9        1.0  0.43139  0.03566  0.44916  1.0000
  H   H10       1.0  0.53332  0.03566  0.05115  1.0000
  H   H11       1.0  0.56862  0.96434  0.55084  1.0000
  H   H12       1.0  0.46667  0.96434  0.94885  1.0000
  H   H13       1.0  0.35356  0.19947  0.34087  1.0000
  H   H14       1.0  0.44787  0.19955  0.15948  1.0000
  H   H15       1.0  0.64645  0.80053  0.65913  1.0000
  H   H16       1.0  0.55213  0.80045  0.84052  1.0000
  H   H17       1.0  0.38404  0.78773  0.03592  1.0000
  H   H18       1.0  0.82864  0.78700  0.46446  1.0000
  H   H19       1.0  0.61596  0.21227  0.96408  1.0000
  H   H20       1.0  0.17137  0.21300  0.53554  1.0000
  H   H21       1.0  0.43437  0.92714  0.12872  1.0000
  H   H22       1.0  0.63907  0.92695  0.37182  1.0000
  H   H23       1.0  0.56564  0.07286  0.87128  1.0000
  H   H24       1.0  0.36094  0.07306  0.62819  1.0000
  H   H25       1.0  0.43133  0.86878  0.27640  1.0000
  H   H26       1.0  0.70033  0.86899  0.22403  1.0000
  H   H27       1.0  0.56867  0.13121  0.72360  1.0000
  H   H28       1.0  0.29967  0.13102  0.77597  1.0000
  H   H29       1.0  0.37405  0.67559  0.32424  1.0000
  H   H30       1.0  0.95055  0.67573  0.17595  1.0000
  H   H31       1.0  0.62594  0.32441  0.67576  1.0000
  H   H32       1.0  0.04944  0.32428  0.82405  1.0000
  H   H33       1.0  0.36031  0.61141  0.89577  1.0000
  H   H34       1.0  0.02874  0.61119  0.60433  1.0000
  H   H35       1.0  0.63969  0.38859  0.10423  1.0000
  H   H36       1.0  0.97126  0.38881  0.39566  1.0000
  H   H37       1.0  0.21720  0.73925  0.94419  1.0000
  H   H38       1.0  0.04357  0.73907  0.55583  1.0000
  H   H39       1.0  0.78280  0.26075  0.05581  1.0000
  H   H40       1.0  0.95644  0.26092  0.44417  1.0000
  C   C1        1.0  0.08568  0.06590  0.33509  1.0000
  C   C2        1.0  0.84941  0.06560  0.16497  1.0000
  C   C3        1.0  0.91432  0.93410  0.66491  1.0000
  C   C4        1.0  0.15060  0.93440  0.83503  1.0000
  C   C5        1.0  0.12990  0.97328  0.39611  1.0000
  C   C6        1.0  0.89750  0.97306  0.10386  1.0000
  C   C7        1.0  0.87011  0.02672  0.60389  1.0000
  C   C8        1.0  0.10250  0.02693  0.89614  1.0000
  C   C9        1.0  0.25744  0.95924  0.43622  1.0000
  C   C10       1.0  0.78381  0.95915  0.06382  1.0000
  C   C11       1.0  0.74257  0.04076  0.56378  1.0000
  C   C12       1.0  0.21618  0.04085  0.93618  1.0000
  C   C13       1.0  0.33666  0.04198  0.41613  1.0000
  C   C14       1.0  0.62189  0.04192  0.08410  1.0000
  C   C15       1.0  0.66334  0.95802  0.58387  1.0000
  C   C16       1.0  0.37810  0.95808  0.91590  1.0000
  C   C17       1.0  0.29288  0.13443  0.35546  1.0000
  C   C18       1.0  0.57353  0.13437  0.14480  1.0000
  C   C19       1.0  0.70713  0.86557  0.64454  1.0000
  C   C20       1.0  0.42647  0.86563  0.85519  1.0000
  C   C21       1.0  0.16837  0.14593  0.31364  1.0000
  C   C22       1.0  0.68674  0.14578  0.18650  1.0000
  C   C23       1.0  0.83163  0.85407  0.68636  1.0000
  C   C24       1.0  0.31326  0.85422  0.81350  1.0000
  C   C25       1.0  0.12417  0.24737  0.24906  1.0000
  C   C26       1.0  0.62967  0.24741  0.25102  1.0000
  C   C27       1.0  0.87583  0.75263  0.75094  1.0000
  C   C28       1.0  0.37033  0.75259  0.74898  1.0000
  C   C29       1.0  0.31533  0.85643  0.49879  1.0000
  C   C30       1.0  0.82840  0.85649  0.00112  1.0000
  C   C31       1.0  0.68467  0.14357  0.50122  1.0000
  C   C32       1.0  0.17159  0.14351  0.99888  1.0000
  C   C33       1.0  0.22690  0.49040  0.99622  1.0000
  C   C34       1.0  0.28294  0.49008  0.50389  1.0000
  C   C35       1.0  0.77309  0.50961  0.00378  1.0000
  C   C36       1.0  0.71706  0.50992  0.49610  1.0000
  C   C37       1.0  0.30062  0.58025  0.08725  1.0000
  C   C38       1.0  0.11957  0.57984  0.41284  1.0000
  C   C39       1.0  0.69938  0.41975  0.91274  1.0000
  C   C40       1.0  0.88043  0.42016  0.58716  1.0000
  C   C41       1.0  0.34633  0.66278  0.13245  1.0000
  C   C42       1.0  0.99132  0.66237  0.36771  1.0000
  C   C43       1.0  0.65367  0.33722  0.86755  1.0000
  C   C44       1.0  0.00868  0.33763  0.63229  1.0000
  C   C45       1.0  0.38137  0.76707  0.10008  1.0000
  C   C46       1.0  0.85198  0.76659  0.40025  1.0000
  C   C47       1.0  0.61863  0.23293  0.89992  1.0000
  C   C48       1.0  0.14802  0.23341  0.59975  1.0000
  C   C49       1.0  0.41132  0.84319  0.15220  1.0000
  C   C50       1.0  0.74600  0.84299  0.34821  1.0000
  C   C51       1.0  0.58868  0.15680  0.84780  1.0000
  C   C52       1.0  0.25400  0.15701  0.65179  1.0000
  C   C53       1.0  0.40951  0.81153  0.23366  1.0000
  C   C54       1.0  0.77939  0.81154  0.26670  1.0000
  C   C55       1.0  0.59050  0.18846  0.76634  1.0000
  C   C56       1.0  0.22061  0.18846  0.73330  1.0000
  C   C57       1.0  0.37651  0.70419  0.26092  1.0000
  C   C58       1.0  0.91960  0.70419  0.23931  1.0000
  C   C59       1.0  0.62349  0.29581  0.73908  1.0000
  C   C60       1.0  0.08039  0.29582  0.76069  1.0000
  S   S1        1.0  0.18849  0.46219  0.90510  1.0000
  S   S2        1.0  0.34931  0.46209  0.59505  1.0000
  S   S3        1.0  0.81151  0.53781  0.09490  1.0000
  S   S4        1.0  0.65070  0.53791  0.40495  1.0000
  N   N1        1.0  0.24988  0.49380  0.12425  1.0000
  N   N2        1.0  0.25684  0.49346  0.37582  1.0000
  N   N3        1.0  0.75012  0.50620  0.87574  1.0000
  N   N4        1.0  0.74316  0.50654  0.62418  1.0000
  N   N5        1.0  0.20483  0.43749  0.06877  1.0000
  N   N6        1.0  0.35809  0.43720  0.43133  1.0000
  N   N7        1.0  0.79517  0.56251  0.93123  1.0000
  N   N8        1.0  0.64191  0.56280  0.56866  1.0000
  N   N9        1.0  0.29029  0.57928  0.00747  1.0000
  N   N10       1.0  0.13071  0.57889  0.49263  1.0000
  N   N11       1.0  0.70971  0.42072  0.99253  1.0000
  N   N12       1.0  0.86929  0.42111  0.50737  1.0000
  N   N13       1.0  0.32467  0.66139  0.94940  1.0000
  N   N14       1.0  0.01415  0.66107  0.55071  1.0000
  N   N15       1.0  0.67533  0.33861  0.05060  1.0000
  N   N16       1.0  0.98585  0.33893  0.44929  1.0000
  N   N17       1.0  0.34431  0.63226  0.21187  1.0000
  N   N18       1.0  0.02383  0.63209  0.28825  1.0000
  N   N19       1.0  0.65569  0.36774  0.78813  1.0000
  N   N20       1.0  0.97617  0.36792  0.71175  1.0000
  O   O1        1.0  0.42316  0.85320  0.53693  1.0000
  O   O2        1.0  0.72356  0.85338  0.96310  1.0000
  O   O3        1.0  0.57683  0.14680  0.46308  1.0000
  O   O4        1.0  0.27643  0.14662  0.03691  1.0000
  O   O5        1.0  0.25540  0.76981  0.51055  1.0000
  O   O6        1.0  0.97490  0.76985  0.98911  1.0000
  O   O7        1.0  0.74460  0.23019  0.48945  1.0000
  O   O8        1.0  0.02509  0.23014  0.01090  1.0000
  O   O9        1.0  0.05486  0.23027  0.19347  1.0000
  O   O10       1.0  0.71554  0.22975  0.30691  1.0000
  O   O11       1.0  0.94514  0.76973  0.80653  1.0000
  O   O12       1.0  0.28446  0.77025  0.69309  1.0000
  O   O13       1.0  0.15780  0.34526  0.25170  1.0000
  O   O14       1.0  0.49887  0.34594  0.24802  1.0000
  O   O15       1.0  0.84220  0.65474  0.74830  1.0000
  O   O16       1.0  0.50114  0.65407  0.75198  1.0000
