data_image0
_chemical_formula_structural       Zn4H48C48N4O16
_chemical_formula_sum              "Zn4 H48 C48 N4 O16"
_cell_length_a       7.55427
_cell_length_b       10.9335
_cell_length_c       14.4325
_cell_angle_alpha    96.7324
_cell_angle_beta     89.9667
_cell_angle_gamma    110.193

_space_group_name_H-M_alt    "P 1"
_space_group_IT_number       1

loop_
  _space_group_symop_operation_xyz
  'x, y, z'

loop_
  _atom_site_type_symbol
  _atom_site_label
  _atom_site_symmetry_multiplicity
  _atom_site_fract_x
  _atom_site_fract_y
  _atom_site_fract_z
  _atom_site_occupancy
  Zn  Zn1       1.0  0.75018  0.55218  0.99350  1.0000
  Zn  Zn2       1.0  0.19806  0.44781  0.50658  1.0000
  Zn  Zn3       1.0  0.24982  0.44782  0.00650  1.0000
  Zn  Zn4       1.0  0.80193  0.55219  0.49342  1.0000
  H   H1        1.0  0.01145  0.81852  0.98809  1.0000
  H   H2        1.0  0.19303  0.18139  0.51200  1.0000
  H   H3        1.0  0.98855  0.18148  0.01191  1.0000
  H   H4        1.0  0.80697  0.81861  0.48800  1.0000
  H   H5        1.0  0.14645  0.02875  0.09476  1.0000
  H   H6        1.0  0.11729  0.97103  0.40534  1.0000
  H   H7        1.0  0.85355  0.97125  0.90524  1.0000
  H   H8        1.0  0.88271  0.02897  0.59465  1.0000
  H   H9        1.0  0.88372  0.81063  0.32078  1.0000
  H   H10       1.0  0.07287  0.18923  0.17942  1.0000
  H   H11       1.0  0.11629  0.18938  0.67923  1.0000
  H   H12       1.0  0.92713  0.81077  0.82058  1.0000
  H   H13       1.0  0.75929  0.61382  0.20532  1.0000
  H   H14       1.0  0.14616  0.38625  0.29480  1.0000
  H   H15       1.0  0.24071  0.38618  0.79468  1.0000
  H   H16       1.0  0.85384  0.61375  0.70520  1.0000
  H   H17       1.0  0.53541  0.39368  0.25902  1.0000
  H   H18       1.0  0.14235  0.60642  0.24102  1.0000
  H   H19       1.0  0.46459  0.60633  0.74098  1.0000
  H   H20       1.0  0.85765  0.39357  0.75898  1.0000
  H   H21       1.0  0.86757  0.42759  0.25582  1.0000
  H   H22       1.0  0.44041  0.57230  0.24419  1.0000
  H   H23       1.0  0.13243  0.57241  0.74417  1.0000
  H   H24       1.0  0.55959  0.42770  0.75581  1.0000
  H   H25       1.0  0.71887  0.08210  0.12717  1.0000
  H   H26       1.0  0.63731  0.91784  0.37281  1.0000
  H   H27       1.0  0.28112  0.91790  0.87283  1.0000
  H   H28       1.0  0.36269  0.08216  0.62719  1.0000
  H   H29       1.0  0.62273  0.16688  0.05397  1.0000
  H   H30       1.0  0.45618  0.83320  0.44603  1.0000
  H   H31       1.0  0.37727  0.83312  0.94603  1.0000
  H   H32       1.0  0.54382  0.16680  0.55397  1.0000
  H   H33       1.0  0.47367  0.05510  0.12376  1.0000
  H   H34       1.0  0.41920  0.94499  0.37622  1.0000
  H   H35       1.0  0.52633  0.94490  0.87624  1.0000
  H   H36       1.0  0.58079  0.05501  0.62378  1.0000
  H   H37       1.0  0.49734  0.12731  0.31027  1.0000
  H   H38       1.0  0.36994  0.87261  0.18987  1.0000
  H   H39       1.0  0.50266  0.87269  0.68972  1.0000
  H   H40       1.0  0.63006  0.12739  0.81013  1.0000
  H   H41       1.0  0.67394  0.27845  0.35414  1.0000
  H   H42       1.0  0.39573  0.72156  0.14588  1.0000
  H   H43       1.0  0.32606  0.72155  0.64586  1.0000
  H   H44       1.0  0.60427  0.27844  0.85412  1.0000
  H   H45       1.0  0.73900  0.14326  0.30665  1.0000
  H   H46       1.0  0.59580  0.85685  0.19323  1.0000
  H   H47       1.0  0.26100  0.85674  0.69335  1.0000
  H   H48       1.0  0.40420  0.14315  0.80677  1.0000
  C   C1        1.0  0.98747  0.82250  0.06251  1.0000
  C   C2        1.0  0.16475  0.17737  0.43763  1.0000
  C   C3        1.0  0.01253  0.17750  0.93749  1.0000
  C   C4        1.0  0.83525  0.82263  0.56237  1.0000
  C   C5        1.0  0.06008  0.93895  0.12208  1.0000
  C   C6        1.0  0.12065  0.06085  0.37809  1.0000
  C   C7        1.0  0.93992  0.06105  0.87792  1.0000
  C   C8        1.0  0.87935  0.93915  0.62190  1.0000
  C   C9        1.0  0.02171  0.93877  0.21741  1.0000
  C   C10       1.0  0.08265  0.06109  0.28278  1.0000
  C   C11       1.0  0.97829  0.06123  0.78259  1.0000
  C   C12       1.0  0.91735  0.93891  0.71721  1.0000
  C   C13       1.0  0.91665  0.81883  0.24795  1.0000
  C   C14       1.0  0.09748  0.18104  0.25224  1.0000
  C   C15       1.0  0.08335  0.18117  0.75205  1.0000
  C   C16       1.0  0.90252  0.81896  0.74776  1.0000
  C   C17       1.0  0.84719  0.70691  0.18355  1.0000
  C   C18       1.0  0.14042  0.29303  0.31660  1.0000
  C   C19       1.0  0.15281  0.29309  0.81645  1.0000
  C   C20       1.0  0.85957  0.70697  0.68340  1.0000
  C   C21       1.0  0.45385  0.35337  0.11265  1.0000
  C   C22       1.0  0.10083  0.64678  0.38745  1.0000
  C   C23       1.0  0.54615  0.64663  0.88735  1.0000
  C   C24       1.0  0.89917  0.35321  0.61256  1.0000
  C   C25       1.0  0.57491  0.34948  0.19396  1.0000
  C   C26       1.0  0.22585  0.65059  0.30610  1.0000
  C   C27       1.0  0.42509  0.65052  0.80604  1.0000
  C   C28       1.0  0.77415  0.34941  0.69390  1.0000
  C   C29       1.0  0.78515  0.37635  0.19201  1.0000
  C   C30       1.0  0.40918  0.62360  0.30799  1.0000
  C   C31       1.0  0.21485  0.62365  0.80798  1.0000
  C   C32       1.0  0.59082  0.37640  0.69201  1.0000
  C   C33       1.0  0.89235  0.39803  0.10543  1.0000
  C   C34       1.0  0.49457  0.60192  0.39457  1.0000
  C   C35       1.0  0.10765  0.60197  0.89457  1.0000
  C   C36       1.0  0.50543  0.39808  0.60543  1.0000
  C   C37       1.0  0.64398  0.23816  0.20273  1.0000
  C   C38       1.0  0.40629  0.76183  0.29731  1.0000
  C   C39       1.0  0.35602  0.76184  0.79727  1.0000
  C   C40       1.0  0.59371  0.23817  0.70269  1.0000
  C   C41       1.0  0.61386  0.13038  0.12196  1.0000
  C   C42       1.0  0.48400  0.86965  0.37802  1.0000
  C   C43       1.0  0.38614  0.86962  0.87804  1.0000
  C   C44       1.0  0.51600  0.13035  0.62198  1.0000
  C   C45       1.0  0.63943  0.19494  0.29880  1.0000
  C   C46       1.0  0.44464  0.80507  0.20123  1.0000
  C   C47       1.0  0.36058  0.80506  0.70120  1.0000
  C   C48       1.0  0.55536  0.19493  0.79878  1.0000
  N   N1        1.0  0.87940  0.70871  0.09201  1.0000
  N   N2        1.0  0.17091  0.29124  0.40810  1.0000
  N   N3        1.0  0.12060  0.29129  0.90799  1.0000
  N   N4        1.0  0.82909  0.70876  0.59190  1.0000
  O   O1        1.0  0.33110  0.25191  0.07389  1.0000
  O   O2        1.0  0.08028  0.74837  0.42654  1.0000
  O   O3        1.0  0.66890  0.74809  0.92611  1.0000
  O   O4        1.0  0.91972  0.25163  0.57346  1.0000
  O   O5        1.0  0.47508  0.47115  0.09093  1.0000
  O   O6        1.0  0.00371  0.52892  0.40885  1.0000
  O   O7        1.0  0.52492  0.52885  0.90907  1.0000
  O   O8        1.0  0.99629  0.47108  0.59115  1.0000
  O   O9        1.0  0.80941  0.39639  0.02761  1.0000
  O   O10       1.0  0.41307  0.60345  0.47239  1.0000
  O   O11       1.0  0.19059  0.60362  0.97239  1.0000
  O   O12       1.0  0.58693  0.39655  0.52761  1.0000
  O   O13       1.0  0.06715  0.41311  0.11433  1.0000
  O   O14       1.0  0.65446  0.58708  0.38565  1.0000
  O   O15       1.0  0.93285  0.58689  0.88567  1.0000
  O   O16       1.0  0.34554  0.41292  0.61435  1.0000
