data_image0
_chemical_formula_structural       Tl6H54C48O6
_chemical_formula_sum              "Tl6 H54 C48 O6"
_cell_length_a       6.87122
_cell_length_b       14.4173
_cell_length_c       14.4173
_cell_angle_alpha    117.469
_cell_angle_beta     99.1309
_cell_angle_gamma    99.1301

_space_group_name_H-M_alt    "P 1"
_space_group_IT_number       1

loop_
  _space_group_symop_operation_xyz
  'x, y, z'

loop_
  _atom_site_type_symbol
  _atom_site_label
  _atom_site_symmetry_multiplicity
  _atom_site_fract_x
  _atom_site_fract_y
  _atom_site_fract_z
  _atom_site_occupancy
  Tl  Tl1       1.0  0.40486  0.74746  0.13122  1.0000
  Tl  Tl2       1.0  0.65680  0.38434  0.25294  1.0000
  Tl  Tl3       1.0  0.15681  0.25295  0.38434  1.0000
  Tl  Tl4       1.0  0.27375  0.86864  0.61581  1.0000
  Tl  Tl5       1.0  0.90489  0.13123  0.74747  1.0000
  Tl  Tl6       1.0  0.77376  0.61581  0.86864  1.0000
  H   H1        1.0  0.25468  0.02377  0.31127  1.0000
  H   H2        1.0  0.23127  0.28738  0.97630  1.0000
  H   H3        1.0  0.73130  0.97631  0.28738  1.0000
  H   H4        1.0  0.94503  0.68890  0.71289  1.0000
  H   H5        1.0  0.75471  0.31128  0.02379  1.0000
  H   H6        1.0  0.44504  0.71289  0.68889  1.0000
  H   H7        1.0  0.33699  0.94313  0.42623  1.0000
  H   H8        1.0  0.39463  0.48271  0.05645  1.0000
  H   H9        1.0  0.89467  0.05646  0.48271  1.0000
  H   H10       1.0  0.91287  0.57391  0.51755  1.0000
  H   H11       1.0  0.83700  0.42622  0.94313  1.0000
  H   H12       1.0  0.41288  0.51755  0.57390  1.0000
  H   H13       1.0  0.15730  0.75005  0.36178  1.0000
  H   H14       1.0  0.40754  0.61146  0.24941  1.0000
  H   H15       1.0  0.90755  0.24942  0.61146  1.0000
  H   H16       1.0  0.79647  0.63804  0.38865  1.0000
  H   H17       1.0  0.65733  0.36177  0.75005  1.0000
  H   H18       1.0  0.29651  0.38865  0.63804  1.0000
  H   H19       1.0  0.91827  0.58543  0.23432  1.0000
  H   H20       1.0  0.33403  0.64873  0.41437  1.0000
  H   H21       1.0  0.83404  0.41437  0.64873  1.0000
  H   H22       1.0  0.68439  0.76533  0.35109  1.0000
  H   H23       1.0  0.41832  0.23430  0.58543  1.0000
  H   H24       1.0  0.18442  0.35109  0.76532  1.0000
  H   H25       1.0  0.89583  0.55551  0.09878  1.0000
  H   H26       1.0  0.33718  0.54273  0.44423  1.0000
  H   H27       1.0  0.83718  0.44423  0.54272  1.0000
  H   H28       1.0  0.79648  0.90098  0.45640  1.0000
  H   H29       1.0  0.39589  0.09877  0.55552  1.0000
  H   H30       1.0  0.29650  0.45640  0.90096  1.0000
  H   H31       1.0  0.69753  0.59424  0.15800  1.0000
  H   H32       1.0  0.10234  0.56495  0.40517  1.0000
  H   H33       1.0  0.60233  0.40517  0.56495  1.0000
  H   H34       1.0  0.53931  0.84134  0.43592  1.0000
  H   H35       1.0  0.19757  0.15798  0.59423  1.0000
  H   H36       1.0  0.03935  0.43592  0.84134  1.0000
  H   H37       1.0  0.03598  0.01866  0.15974  1.0000
  H   H38       1.0  0.01719  0.14142  0.98175  1.0000
  H   H39       1.0  0.51717  0.98175  0.14142  1.0000
  H   H40       1.0  0.87724  0.84032  0.85890  1.0000
  H   H41       1.0  0.53600  0.15975  0.01867  1.0000
  H   H42       1.0  0.37723  0.85890  0.84031  1.0000
  H   H43       1.0  0.80561  0.91266  0.08364  1.0000
  H   H44       1.0  0.89249  0.17155  0.08777  1.0000
  H   H45       1.0  0.39248  0.08777  0.17156  1.0000
  H   H46       1.0  0.72218  0.91612  0.82872  1.0000
  H   H47       1.0  0.30563  0.08365  0.91267  1.0000
  H   H48       1.0  0.22217  0.82872  0.91610  1.0000
  H   H49       1.0  0.03286  0.89653  0.04403  1.0000
  H   H50       1.0  0.13560  0.14774  0.10403  1.0000
  H   H51       1.0  0.63556  0.10402  0.14774  1.0000
  H   H52       1.0  0.98899  0.95616  0.85230  1.0000
  H   H53       1.0  0.53287  0.04404  0.89655  1.0000
  H   H54       1.0  0.48899  0.85230  0.95615  1.0000
  C   C1        1.0  0.91058  0.77390  0.15109  1.0000
  C   C2        1.0  0.13630  0.37741  0.22617  1.0000
  C   C3        1.0  0.63631  0.22618  0.37742  1.0000
  C   C4        1.0  0.76017  0.84882  0.62273  1.0000
  C   C5        1.0  0.41060  0.15109  0.77391  1.0000
  C   C6        1.0  0.26018  0.62273  0.84881  1.0000
  C   C7        1.0  0.02098  0.88209  0.18574  1.0000
  C   C8        1.0  0.13877  0.30384  0.11810  1.0000
  C   C9        1.0  0.63877  0.11811  0.30384  1.0000
  C   C10       1.0  0.83618  0.81427  0.69636  1.0000
  C   C11       1.0  0.52101  0.18574  0.88210  1.0000
  C   C12       1.0  0.33618  0.69637  0.81427  1.0000
  C   C13       1.0  0.17157  0.94085  0.28455  1.0000
  C   C14       1.0  0.23095  0.34364  0.05915  1.0000
  C   C15       1.0  0.73096  0.05916  0.34366  1.0000
  C   C16       1.0  0.88841  0.71553  0.65658  1.0000
  C   C17       1.0  0.67158  0.28455  0.94087  1.0000
  C   C18       1.0  0.38842  0.65659  0.71552  1.0000
  C   C19       1.0  0.21952  0.89546  0.34955  1.0000
  C   C20       1.0  0.32441  0.45392  0.10426  1.0000
  C   C21       1.0  0.82443  0.10426  0.45391  1.0000
  C   C22       1.0  0.87154  0.65049  0.54634  1.0000
  C   C23       1.0  0.71954  0.34955  0.89548  1.0000
  C   C24       1.0  0.37156  0.54634  0.65048  1.0000
  C   C25       1.0  0.11879  0.78801  0.31344  1.0000
  C   C26       1.0  0.33075  0.52530  0.21158  1.0000
  C   C27       1.0  0.83076  0.21160  0.52531  1.0000
  C   C28       1.0  0.80633  0.68644  0.47485  1.0000
  C   C29       1.0  0.61880  0.31344  0.78801  1.0000
  C   C30       1.0  0.30637  0.47486  0.68642  1.0000
  C   C31       1.0  0.96791  0.72595  0.21507  1.0000
  C   C32       1.0  0.24153  0.48919  0.27381  1.0000
  C   C33       1.0  0.74153  0.27381  0.48919  1.0000
  C   C34       1.0  0.75339  0.78475  0.51091  1.0000
  C   C35       1.0  0.46795  0.21507  0.72595  1.0000
  C   C36       1.0  0.25341  0.51092  0.78474  1.0000
  C   C37       1.0  0.86452  0.60986  0.17532  1.0000
  C   C38       1.0  0.25386  0.56558  0.38979  1.0000
  C   C39       1.0  0.75386  0.38978  0.56558  1.0000
  C   C40       1.0  0.68929  0.82431  0.43437  1.0000
  C   C41       1.0  0.36455  0.17530  0.60986  1.0000
  C   C42       1.0  0.18932  0.43436  0.82430  1.0000
  C   C43       1.0  0.97131  0.93042  0.11534  1.0000
  C   C44       1.0  0.04060  0.18525  0.06999  1.0000
  C   C45       1.0  0.54058  0.06999  0.18525  1.0000
  C   C46       1.0  0.85657  0.88465  0.81492  1.0000
  C   C47       1.0  0.47133  0.11535  0.93044  1.0000
  C   C48       1.0  0.35656  0.81492  0.88464  1.0000
  O   O1        1.0  0.75518  0.71952  0.06242  1.0000
  O   O2        1.0  0.03516  0.34334  0.28072  1.0000
  O   O3        1.0  0.53515  0.28072  0.34333  1.0000
  O   O4        1.0  0.69304  0.93741  0.65679  1.0000
  O   O5        1.0  0.25520  0.06243  0.71954  1.0000
  O   O6        1.0  0.19304  0.65679  0.93740  1.0000
