data_image0
_chemical_formula_structural       Ca2P4H24C24O12
_chemical_formula_sum              "Ca2 P4 H24 C24 O12"
_cell_length_a       5.59743
_cell_length_b       7.68474
_cell_length_c       15.7873
_cell_angle_alpha    101.691
_cell_angle_beta     100.178
_cell_angle_gamma    90.0043

_space_group_name_H-M_alt    "P 1"
_space_group_IT_number       1

loop_
  _space_group_symop_operation_xyz
  'x, y, z'

loop_
  _atom_site_type_symbol
  _atom_site_label
  _atom_site_symmetry_multiplicity
  _atom_site_fract_x
  _atom_site_fract_y
  _atom_site_fract_z
  _atom_site_occupancy
  Ca  Ca1       1.0  0.10453  0.24995  1.00000  1.0000
  Ca  Ca2       1.0  0.89548  0.75006  0.00000  1.0000
  P   P1        1.0  0.59717  0.08198  0.87637  1.0000
  P   P2        1.0  0.72079  0.41817  0.12373  1.0000
  P   P3        1.0  0.40282  0.91802  0.12364  1.0000
  P   P4        1.0  0.27921  0.58183  0.87627  1.0000
  H   H1        1.0  0.23173  0.10107  0.72009  1.0000
  H   H2        1.0  0.51149  0.39930  0.28030  1.0000
  H   H3        1.0  0.76827  0.89894  0.27991  1.0000
  H   H4        1.0  0.48851  0.60070  0.71970  1.0000
  H   H5        1.0  0.55968  0.80410  0.51108  1.0000
  H   H6        1.0  0.04920  0.69591  0.48894  1.0000
  H   H7        1.0  0.44032  0.19590  0.48892  1.0000
  H   H8        1.0  0.95081  0.30408  0.51106  1.0000
  H   H9        1.0  0.91038  0.74227  0.62172  1.0000
  H   H10       1.0  0.28906  0.75746  0.37803  1.0000
  H   H11       1.0  0.08962  0.25773  0.37828  1.0000
  H   H12       1.0  0.71095  0.24253  0.62197  1.0000
  H   H13       1.0  0.22111  0.98357  0.56136  1.0000
  H   H14       1.0  0.66030  0.51681  0.43895  1.0000
  H   H15       1.0  0.77889  0.01643  0.43864  1.0000
  H   H16       1.0  0.33971  0.48319  0.56105  1.0000
  H   H17       1.0  0.92305  0.86426  0.78030  1.0000
  H   H18       1.0  0.14231  0.63561  0.21950  1.0000
  H   H19       1.0  0.07695  0.13574  0.21971  1.0000
  H   H20       1.0  0.85769  0.36439  0.78050  1.0000
  H   H21       1.0  0.63328  0.39618  0.89384  1.0000
  H   H22       1.0  0.73955  0.10404  0.10616  1.0000
  H   H23       1.0  0.36672  0.60382  0.10616  1.0000
  H   H24       1.0  0.26045  0.89596  0.89384  1.0000
  C   C1        1.0  0.58038  0.99216  0.76052  1.0000
  C   C2        1.0  0.81957  0.50806  0.23958  1.0000
  C   C3        1.0  0.41962  0.00784  0.23948  1.0000
  C   C4        1.0  0.18043  0.49194  0.76042  1.0000
  C   C5        1.0  0.38150  0.02414  0.69853  1.0000
  C   C6        1.0  0.68281  0.47626  0.30169  1.0000
  C   C7        1.0  0.61850  0.97587  0.30147  1.0000
  C   C8        1.0  0.31719  0.52374  0.69831  1.0000
  C   C9        1.0  0.56534  0.85614  0.58101  1.0000
  C   C10       1.0  0.98471  0.64396  0.41901  1.0000
  C   C11       1.0  0.43466  0.14386  0.41899  1.0000
  C   C12       1.0  0.01529  0.35604  0.58099  1.0000
  C   C13       1.0  0.76260  0.82277  0.64258  1.0000
  C   C14       1.0  0.12025  0.67717  0.35731  1.0000
  C   C15       1.0  0.23740  0.17723  0.35742  1.0000
  C   C16       1.0  0.87976  0.32283  0.64269  1.0000
  C   C17       1.0  0.37526  0.95685  0.60917  1.0000
  C   C18       1.0  0.76633  0.54352  0.39103  1.0000
  C   C19       1.0  0.62474  0.04315  0.39083  1.0000
  C   C20       1.0  0.23367  0.45648  0.60897  1.0000
  C   C21       1.0  0.77093  0.89123  0.73198  1.0000
  C   C22       1.0  0.03874  0.60878  0.26795  1.0000
  C   C23       1.0  0.22906  0.10877  0.26802  1.0000
  C   C24       1.0  0.96126  0.39122  0.73205  1.0000
  O   O1        1.0  0.78448  0.98463  0.92885  1.0000
  O   O2        1.0  0.85548  0.51566  0.07123  1.0000
  O   O3        1.0  0.21552  0.01537  0.07115  1.0000
  O   O4        1.0  0.14451  0.48434  0.92877  1.0000
  O   O5        1.0  0.71674  0.27615  0.89520  1.0000
  O   O6        1.0  0.82185  0.22407  0.10491  1.0000
  O   O7        1.0  0.28326  0.72385  0.10480  1.0000
  O   O8        1.0  0.17815  0.77593  0.89509  1.0000
  O   O9        1.0  0.34008  0.08491  0.89713  1.0000
  O   O10       1.0  0.44295  0.41488  0.10297  1.0000
  O   O11       1.0  0.65992  0.91509  0.10287  1.0000
  O   O12       1.0  0.55705  0.58512  0.89703  1.0000
