data_image0
_chemical_formula_structural       Ca2P4H24C24O12
_chemical_formula_sum              "Ca2 P4 H24 C24 O12"
_cell_length_a       5.578
_cell_length_b       7.68261
_cell_length_c       15.798
_cell_angle_alpha    101.387
_cell_angle_beta     100.202
_cell_angle_gamma    90.0062

_space_group_name_H-M_alt    "P 1"
_space_group_IT_number       1

loop_
  _space_group_symop_operation_xyz
  'x, y, z'

loop_
  _atom_site_type_symbol
  _atom_site_label
  _atom_site_symmetry_multiplicity
  _atom_site_fract_x
  _atom_site_fract_y
  _atom_site_fract_z
  _atom_site_occupancy
  Ca  Ca1       1.0  0.89690  0.25005  1.00000  1.0000
  Ca  Ca2       1.0  0.10310  0.74995  0.00000  1.0000
  P   P1        1.0  0.40525  0.41742  0.12440  1.0000
  P   P2        1.0  0.28047  0.08252  0.87564  1.0000
  P   P3        1.0  0.59474  0.58258  0.87560  1.0000
  P   P4        1.0  0.71952  0.91748  0.12436  1.0000
  H   H1        1.0  0.36583  0.10241  0.10742  1.0000
  H   H2        1.0  0.25807  0.39741  0.89260  1.0000
  H   H3        1.0  0.63416  0.89759  0.89259  1.0000
  H   H4        1.0  0.74193  0.60259  0.10740  1.0000
  H   H5        1.0  0.77084  0.39717  0.28097  1.0000
  H   H6        1.0  0.48913  0.10295  0.71904  1.0000
  H   H7        1.0  0.22917  0.60283  0.71903  1.0000
  H   H8        1.0  0.51086  0.89706  0.28097  1.0000
  H   H9        1.0  0.78182  0.51515  0.43921  1.0000
  H   H10       1.0  0.34142  0.98476  0.56082  1.0000
  H   H11       1.0  0.21819  0.48486  0.56079  1.0000
  H   H12       1.0  0.65858  0.01524  0.43918  1.0000
  H   H13       1.0  0.44199  0.69610  0.48867  1.0000
  H   H14       1.0  0.95219  0.80370  0.51133  1.0000
  H   H15       1.0  0.55802  0.30391  0.51132  1.0000
  H   H16       1.0  0.04781  0.19630  0.48867  1.0000
  H   H17       1.0  0.09038  0.75676  0.37792  1.0000
  H   H18       1.0  0.71158  0.74283  0.62210  1.0000
  H   H19       1.0  0.90962  0.24324  0.62208  1.0000
  H   H20       1.0  0.28842  0.25717  0.37790  1.0000
  H   H21       1.0  0.07729  0.63460  0.21993  1.0000
  H   H22       1.0  0.85701  0.86510  0.78008  1.0000
  H   H23       1.0  0.92270  0.36540  0.78007  1.0000
  H   H24       1.0  0.14299  0.13490  0.21992  1.0000
  C   C1        1.0  0.42118  0.50620  0.24005  1.0000
  C   C2        1.0  0.18061  0.99367  0.75997  1.0000
  C   C3        1.0  0.57883  0.49381  0.75995  1.0000
  C   C4        1.0  0.81938  0.00633  0.24003  1.0000
  C   C5        1.0  0.62050  0.47420  0.30223  1.0000
  C   C6        1.0  0.31760  0.02572  0.69782  1.0000
  C   C7        1.0  0.37950  0.52580  0.69777  1.0000
  C   C8        1.0  0.68240  0.97427  0.30218  1.0000
  C   C9        1.0  0.62711  0.54211  0.39135  1.0000
  C   C10       1.0  0.23477  0.95774  0.60870  1.0000
  C   C11       1.0  0.37289  0.45789  0.60865  1.0000
  C   C12       1.0  0.76523  0.04226  0.39131  1.0000
  C   C13       1.0  0.43647  0.64314  0.41903  1.0000
  C   C14       1.0  0.01642  0.85661  0.58101  1.0000
  C   C15       1.0  0.56355  0.35686  0.58098  1.0000
  C   C16       1.0  0.98358  0.14339  0.41900  1.0000
  C   C17       1.0  0.23861  0.67624  0.35730  1.0000
  C   C18       1.0  0.88041  0.82347  0.64270  1.0000
  C   C19       1.0  0.76140  0.32376  0.64270  1.0000
  C   C20       1.0  0.11959  0.17653  0.35730  1.0000
  C   C21       1.0  0.22997  0.60727  0.26817  1.0000
  C   C22       1.0  0.96122  0.89251  0.73183  1.0000
  C   C23       1.0  0.77003  0.39273  0.73183  1.0000
  C   C24       1.0  0.03878  0.10749  0.26817  1.0000
  O   O1        1.0  0.66424  0.41469  0.10439  1.0000
  O   O2        1.0  0.55956  0.08546  0.89566  1.0000
  O   O3        1.0  0.33576  0.58531  0.89561  1.0000
  O   O4        1.0  0.44044  0.91454  0.10434  1.0000
  O   O5        1.0  0.21857  0.51583  0.07169  1.0000
  O   O6        1.0  0.14675  0.98405  0.92834  1.0000
  O   O7        1.0  0.78143  0.48417  0.92831  1.0000
  O   O8        1.0  0.85325  0.01594  0.07166  1.0000
  O   O9        1.0  0.28454  0.22352  0.10495  1.0000
  O   O10       1.0  0.17918  0.27636  0.89510  1.0000
  O   O11       1.0  0.71545  0.77648  0.89505  1.0000
  O   O12       1.0  0.82083  0.72364  0.10490  1.0000
