data_image0
_chemical_formula_structural       Cu4H56C32N8O12
_chemical_formula_sum              "Cu4 H56 C32 N8 O12"
_cell_length_a       8.62026
_cell_length_b       10.0517
_cell_length_c       11.0645
_cell_angle_alpha    90.0033
_cell_angle_beta     89.9959
_cell_angle_gamma    89.9996

_space_group_name_H-M_alt    "P 1"
_space_group_IT_number       1

loop_
  _space_group_symop_operation_xyz
  'x, y, z'

loop_
  _atom_site_type_symbol
  _atom_site_label
  _atom_site_symmetry_multiplicity
  _atom_site_fract_x
  _atom_site_fract_y
  _atom_site_fract_z
  _atom_site_occupancy
  Cu  Cu1       1.0  0.07810  0.30266  0.11029  1.0000
  Cu  Cu2       1.0  0.57797  0.19738  0.88971  1.0000
  Cu  Cu3       1.0  0.42223  0.69732  0.61034  1.0000
  Cu  Cu4       1.0  0.92207  0.80271  0.38967  1.0000
  H   H1        1.0  0.30550  0.32122  0.26036  1.0000
  H   H2        1.0  0.80543  0.17881  0.73965  1.0000
  H   H3        1.0  0.19452  0.67883  0.76012  1.0000
  H   H4        1.0  0.69442  0.82119  0.23990  1.0000
  H   H5        1.0  0.33890  0.40452  0.13505  1.0000
  H   H6        1.0  0.83876  0.09548  0.86494  1.0000
  H   H7        1.0  0.16124  0.59537  0.63493  1.0000
  H   H8        1.0  0.66108  0.90462  0.36512  1.0000
  H   H9        1.0  0.74748  0.62476  0.92062  1.0000
  H   H10       1.0  0.24728  0.87524  0.07945  1.0000
  H   H11       1.0  0.75272  0.37492  0.42061  1.0000
  H   H12       1.0  0.25248  0.12506  0.57932  1.0000
  H   H13       1.0  0.95027  0.59241  0.90719  1.0000
  H   H14       1.0  0.45008  0.90750  0.09291  1.0000
  H   H15       1.0  0.54995  0.40739  0.40704  1.0000
  H   H16       1.0  0.04973  0.09248  0.59283  1.0000
  H   H17       1.0  0.88316  0.70662  0.01835  1.0000
  H   H18       1.0  0.38297  0.79330  0.98175  1.0000
  H   H19       1.0  0.61688  0.29331  0.51835  1.0000
  H   H20       1.0  0.11667  0.20659  0.48154  1.0000
  H   H21       1.0  0.73925  0.61485  0.21034  1.0000
  H   H22       1.0  0.23924  0.88513  0.78971  1.0000
  H   H23       1.0  0.76077  0.38532  0.71035  1.0000
  H   H24       1.0  0.26077  0.11467  0.28961  1.0000
  H   H25       1.0  0.60187  0.55006  0.10294  1.0000
  H   H26       1.0  0.10181  0.94998  0.89704  1.0000
  H   H27       1.0  0.89815  0.44990  0.60287  1.0000
  H   H28       1.0  0.39808  0.05012  0.39715  1.0000
  H   H29       1.0  0.68894  0.44415  0.21316  1.0000
  H   H30       1.0  0.18905  0.05585  0.78685  1.0000
  H   H31       1.0  0.81110  0.55602  0.71292  1.0000
  H   H32       1.0  0.31121  0.94399  0.28704  1.0000
  H   H33       1.0  0.43196  0.58272  0.31653  1.0000
  H   H34       1.0  0.93189  0.91734  0.68354  1.0000
  H   H35       1.0  0.06813  0.41737  0.81643  1.0000
  H   H36       1.0  0.56804  0.08265  0.18350  1.0000
  H   H37       1.0  0.36765  0.64100  0.17230  1.0000
  H   H38       1.0  0.86747  0.85910  0.82777  1.0000
  H   H39       1.0  0.13251  0.35909  0.67223  1.0000
  H   H40       1.0  0.63228  0.14099  0.32771  1.0000
  H   H41       1.0  0.28493  0.70671  0.30642  1.0000
  H   H42       1.0  0.78487  0.79333  0.69363  1.0000
  H   H43       1.0  0.21521  0.29339  0.80635  1.0000
  H   H44       1.0  0.71510  0.20663  0.19360  1.0000
  H   H45       1.0  0.07034  0.38934  0.38777  1.0000
  H   H46       1.0  0.57026  0.11067  0.61214  1.0000
  H   H47       1.0  0.42977  0.61077  0.88773  1.0000
  H   H48       1.0  0.92967  0.88922  0.11238  1.0000
  H   H49       1.0  0.25851  0.43601  0.44287  1.0000
  H   H50       1.0  0.75848  0.06403  0.55713  1.0000
  H   H51       1.0  0.24155  0.56422  0.94275  1.0000
  H   H52       1.0  0.74150  0.93578  0.05726  1.0000
  H   H53       1.0  0.10511  0.55522  0.43803  1.0000
  H   H54       1.0  0.60513  0.94479  0.56193  1.0000
  H   H55       1.0  0.39484  0.44494  0.93801  1.0000
  H   H56       1.0  0.89482  0.05505  0.06204  1.0000
  C   C1        1.0  0.80129  0.37112  0.99725  1.0000
  C   C2        1.0  0.30121  0.12885  0.00279  1.0000
  C   C3        1.0  0.69875  0.62878  0.49713  1.0000
  C   C4        1.0  0.19866  0.87118  0.50281  1.0000
  C   C5        1.0  0.84169  0.50093  0.06478  1.0000
  C   C6        1.0  0.34162  0.99903  0.93532  1.0000
  C   C7        1.0  0.65844  0.49903  0.56458  1.0000
  C   C8        1.0  0.15837  0.00090  0.43530  1.0000
  C   C9        1.0  0.85617  0.61366  0.97133  1.0000
  C   C10       1.0  0.35600  0.88628  0.02875  1.0000
  C   C11       1.0  0.64399  0.38618  0.47123  1.0000
  C   C12       1.0  0.14380  0.11374  0.52866  1.0000
  C   C13       1.0  0.70857  0.52965  0.15348  1.0000
  C   C14       1.0  0.20856  0.97035  0.84655  1.0000
  C   C15       1.0  0.79147  0.47041  0.65338  1.0000
  C   C16       1.0  0.29147  0.02958  0.34658  1.0000
  C   C17       1.0  0.05794  0.56464  0.19777  1.0000
  C   C18       1.0  0.55782  0.93539  0.80225  1.0000
  C   C19       1.0  0.44222  0.43537  0.69770  1.0000
  C   C20       1.0  0.94210  0.06463  0.30227  1.0000
  C   C21       1.0  0.20429  0.50985  0.26333  1.0000
  C   C22       1.0  0.70416  0.99020  0.73666  1.0000
  C   C23       1.0  0.29588  0.49023  0.76326  1.0000
  C   C24       1.0  0.79572  0.00980  0.23676  1.0000
  C   C25       1.0  0.33071  0.61607  0.26461  1.0000
  C   C26       1.0  0.83061  0.88400  0.73542  1.0000
  C   C27       1.0  0.16941  0.38401  0.76455  1.0000
  C   C28       1.0  0.66926  0.11603  0.23542  1.0000
  C   C29       1.0  0.15631  0.46980  0.39163  1.0000
  C   C30       1.0  0.65625  0.03023  0.60834  1.0000
  C   C31       1.0  0.34375  0.53036  0.89155  1.0000
  C   C32       1.0  0.84368  0.96965  0.10849  1.0000
  N   N1        1.0  0.98736  0.47555  0.12800  1.0000
  N   N2        1.0  0.48736  0.02439  0.87215  1.0000
  N   N3        1.0  0.51258  0.52437  0.62778  1.0000
  N   N4        1.0  0.01258  0.97555  0.37204  1.0000
  N   N5        1.0  0.25741  0.38667  0.20040  1.0000
  N   N6        1.0  0.75728  0.11337  0.79959  1.0000
  N   N7        1.0  0.24274  0.61337  0.70024  1.0000
  N   N8        1.0  0.74258  0.88666  0.29979  1.0000
  O   O1        1.0  0.89712  0.27394  0.99889  1.0000
  O   O2        1.0  0.39688  0.22615  0.00088  1.0000
  O   O3        1.0  0.60292  0.72602  0.49883  1.0000
  O   O4        1.0  0.10264  0.77408  0.50141  1.0000
  O   O5        1.0  0.67152  0.36687  0.94340  1.0000
  O   O6        1.0  0.17157  0.13307  0.05686  1.0000
  O   O7        1.0  0.82845  0.63301  0.44317  1.0000
  O   O8        1.0  0.32850  0.86690  0.55655  1.0000
  O   O9        1.0  0.01542  0.68317  0.21622  1.0000
  O   O10       1.0  0.51525  0.81686  0.78376  1.0000
  O   O11       1.0  0.48488  0.31689  0.71622  1.0000
  O   O12       1.0  0.98469  0.18312  0.28378  1.0000
