data_image0
_chemical_formula_structural       Ag4H20C44N4O8F8
_chemical_formula_sum              "Ag4 H20 C44 N4 O8 F8"
_cell_length_a       9.77888
_cell_length_b       10.2014
_cell_length_c       11.1056
_cell_angle_alpha    107.712
_cell_angle_beta     98.9998
_cell_angle_gamma    91.8102

_space_group_name_H-M_alt    "P 1"
_space_group_IT_number       1

loop_
  _space_group_symop_operation_xyz
  'x, y, z'

loop_
  _atom_site_type_symbol
  _atom_site_label
  _atom_site_symmetry_multiplicity
  _atom_site_fract_x
  _atom_site_fract_y
  _atom_site_fract_z
  _atom_site_occupancy
  Ag  Ag1       1.0  0.59176  0.40898  0.60766  1.0000
  Ag  Ag2       1.0  0.40824  0.59102  0.39234  1.0000
  Ag  Ag3       1.0  0.45281  0.16458  0.61823  1.0000
  Ag  Ag4       1.0  0.54719  0.83542  0.38177  1.0000
  H   H1        1.0  0.00744  0.77032  0.01530  1.0000
  H   H2        1.0  0.99256  0.22968  0.98470  1.0000
  H   H3        1.0  0.25591  0.76347  0.10805  1.0000
  H   H4        1.0  0.74409  0.23653  0.89195  1.0000
  H   H5        1.0  0.38295  0.56081  0.01576  1.0000
  H   H6        1.0  0.61705  0.43919  0.98424  1.0000
  H   H7        1.0  0.26494  0.36496  0.82818  1.0000
  H   H8        1.0  0.73506  0.63504  0.17182  1.0000
  H   H9        1.0  0.01553  0.37080  0.73777  1.0000
  H   H10       1.0  0.98447  0.62920  0.26223  1.0000
  H   H11       1.0  0.59733  0.24854  0.14737  1.0000
  H   H12       1.0  0.40266  0.75146  0.85263  1.0000
  H   H13       1.0  0.53634  0.21382  0.34541  1.0000
  H   H14       1.0  0.46366  0.78618  0.65459  1.0000
  H   H15       1.0  0.30676  0.09855  0.33888  1.0000
  H   H16       1.0  0.69325  0.90145  0.66112  1.0000
  H   H17       1.0  0.13745  0.01541  0.13441  1.0000
  H   H18       1.0  0.86255  0.98459  0.86559  1.0000
  H   H19       1.0  0.19940  0.04529  0.93376  1.0000
  H   H20       1.0  0.80060  0.95471  0.06624  1.0000
  C   C1        1.0  0.26850  0.38849  0.54946  1.0000
  C   C2        1.0  0.73150  0.61150  0.45054  1.0000
  C   C3        1.0  0.10692  0.58102  0.59062  1.0000
  C   C4        1.0  0.89308  0.41898  0.40938  1.0000
  C   C5        1.0  0.13238  0.44774  0.52083  1.0000
  C   C6        1.0  0.86762  0.55226  0.47917  1.0000
  C   C7        1.0  0.02250  0.36877  0.42877  1.0000
  C   C8        1.0  0.97750  0.63123  0.57122  1.0000
  C   C9        1.0  0.75170  0.14672  0.55024  1.0000
  C   C10       1.0  0.24830  0.85328  0.44976  1.0000
  C   C11       1.0  0.90008  0.00512  0.39965  1.0000
  C   C12       1.0  0.09991  0.99488  0.60035  1.0000
  C   C13       1.0  0.87894  0.07018  0.52421  1.0000
  C   C14       1.0  0.12105  0.92982  0.47579  1.0000
  C   C15       1.0  0.98157  0.06320  0.62372  1.0000
  C   C16       1.0  0.01843  0.93680  0.37628  1.0000
  C   C17       1.0  0.85590  0.57163  0.81969  1.0000
  C   C18       1.0  0.14410  0.42837  0.18031  1.0000
  C   C19       1.0  0.99815  0.57102  0.87132  1.0000
  C   C20       1.0  0.00185  0.42898  0.12868  1.0000
  C   C21       1.0  0.06524  0.68280  0.97510  1.0000
  C   C22       1.0  0.93476  0.31719  0.02490  1.0000
  C   C23       1.0  0.20367  0.67842  0.02632  1.0000
  C   C24       1.0  0.79633  0.32158  0.97368  1.0000
  C   C25       1.0  0.27506  0.56396  0.97386  1.0000
  C   C26       1.0  0.72494  0.43604  0.02613  1.0000
  C   C27       1.0  0.20870  0.45338  0.86981  1.0000
  C   C28       1.0  0.79130  0.54662  0.13019  1.0000
  C   C29       1.0  0.06994  0.45581  0.81828  1.0000
  C   C30       1.0  0.93006  0.54419  0.18173  1.0000
  C   C31       1.0  0.43593  0.16842  0.91623  1.0000
  C   C32       1.0  0.56407  0.83158  0.08377  1.0000
  C   C33       1.0  0.40164  0.14890  0.02940  1.0000
  C   C34       1.0  0.59836  0.85110  0.97060  1.0000
  C   C35       1.0  0.49756  0.19657  0.14501  1.0000
  C   C36       1.0  0.50243  0.80343  0.85499  1.0000
  C   C37       1.0  0.46269  0.17708  0.25544  1.0000
  C   C38       1.0  0.53731  0.82292  0.74456  1.0000
  C   C39       1.0  0.33354  0.11194  0.25146  1.0000
  C   C40       1.0  0.66647  0.88806  0.74854  1.0000
  C   C41       1.0  0.23838  0.06510  0.13638  1.0000
  C   C42       1.0  0.76163  0.93490  0.86362  1.0000
  C   C43       1.0  0.27155  0.08236  0.02456  1.0000
  C   C44       1.0  0.72845  0.91764  0.97544  1.0000
  N   N1        1.0  0.73882  0.56790  0.77520  1.0000
  N   N2        1.0  0.26118  0.43209  0.22481  1.0000
  N   N3        1.0  0.46372  0.18532  0.82327  1.0000
  N   N4        1.0  0.53628  0.81467  0.17673  1.0000
  O   O1        1.0  0.37797  0.46286  0.55491  1.0000
  O   O2        1.0  0.62204  0.53714  0.44509  1.0000
  O   O3        1.0  0.26025  0.27245  0.56720  1.0000
  O   O4        1.0  0.73975  0.72755  0.43280  1.0000
  O   O5        1.0  0.77306  0.27588  0.60222  1.0000
  O   O6        1.0  0.22694  0.72413  0.39779  1.0000
  O   O7        1.0  0.63557  0.07509  0.51849  1.0000
  O   O8        1.0  0.36443  0.92491  0.48150  1.0000
  F   F1        1.0  0.20746  0.66376  0.68287  1.0000
  F   F2        1.0  0.79255  0.33624  0.31713  1.0000
  F   F3        1.0  0.04108  0.24095  0.35291  1.0000
  F   F4        1.0  0.95892  0.75905  0.64709  1.0000
  F   F5        1.0  0.80544  0.01093  0.29849  1.0000
  F   F6        1.0  0.19456  0.98907  0.70151  1.0000
  F   F7        1.0  0.96555  0.12215  0.74782  1.0000
  F   F8        1.0  0.03445  0.87786  0.25218  1.0000
