data_image0
_chemical_formula_structural       Cd4H48C72N8O16
_chemical_formula_sum              "Cd4 H48 C72 N8 O16"
_cell_length_a       8.61548
_cell_length_b       13.1073
_cell_length_c       14.8688
_cell_angle_alpha    90.0003
_cell_angle_beta     95.8983
_cell_angle_gamma    89.9996

_space_group_name_H-M_alt    "P 1"
_space_group_IT_number       1

loop_
  _space_group_symop_operation_xyz
  'x, y, z'

loop_
  _atom_site_type_symbol
  _atom_site_label
  _atom_site_symmetry_multiplicity
  _atom_site_fract_x
  _atom_site_fract_y
  _atom_site_fract_z
  _atom_site_occupancy
  Cd  Cd1       1.0  0.72791  0.82277  0.21208  1.0000
  Cd  Cd2       1.0  0.27209  0.32277  0.28792  1.0000
  Cd  Cd3       1.0  0.27209  0.17723  0.78792  1.0000
  Cd  Cd4       1.0  0.72791  0.67723  0.71208  1.0000
  H   H1        1.0  0.55413  0.79322  0.90261  1.0000
  H   H2        1.0  0.44587  0.29322  0.59739  1.0000
  H   H3        1.0  0.44587  0.20678  0.09739  1.0000
  H   H4        1.0  0.55413  0.70678  0.40261  1.0000
  H   H5        1.0  0.35816  0.74522  0.77426  1.0000
  H   H6        1.0  0.64184  0.24522  0.72574  1.0000
  H   H7        1.0  0.64184  0.25478  0.22574  1.0000
  H   H8        1.0  0.35816  0.75478  0.27426  1.0000
  H   H9        1.0  0.07464  0.76929  0.79008  1.0000
  H   H10       1.0  0.92536  0.26929  0.70992  1.0000
  H   H11       1.0  0.92536  0.23071  0.20992  1.0000
  H   H12       1.0  0.07464  0.73071  0.29008  1.0000
  H   H13       1.0  0.99081  0.83771  0.93271  1.0000
  H   H14       1.0  0.00919  0.33771  0.56729  1.0000
  H   H15       1.0  0.00919  0.16230  0.06729  1.0000
  H   H16       1.0  0.99081  0.66229  0.43270  1.0000
  H   H17       1.0  0.98699  0.77581  0.08743  1.0000
  H   H18       1.0  0.01301  0.27581  0.41257  1.0000
  H   H19       1.0  0.01301  0.22419  0.91257  1.0000
  H   H20       1.0  0.98699  0.72419  0.58743  1.0000
  H   H21       1.0  0.97609  0.99402  0.28867  1.0000
  H   H22       1.0  0.02391  0.49401  0.21133  1.0000
  H   H23       1.0  0.02391  0.00598  0.71133  1.0000
  H   H24       1.0  0.97610  0.50599  0.78867  1.0000
  H   H25       1.0  0.31034  0.02840  0.09464  1.0000
  H   H26       1.0  0.68965  0.52840  0.40536  1.0000
  H   H27       1.0  0.68966  0.97160  0.90536  1.0000
  H   H28       1.0  0.31034  0.47160  0.59464  1.0000
  H   H29       1.0  0.58490  0.04053  0.25299  1.0000
  H   H30       1.0  0.41511  0.54053  0.24702  1.0000
  H   H31       1.0  0.41511  0.95946  0.74702  1.0000
  H   H32       1.0  0.58489  0.45947  0.75298  1.0000
  H   H33       1.0  0.57364  0.16551  0.37850  1.0000
  H   H34       1.0  0.42635  0.66551  0.12151  1.0000
  H   H35       1.0  0.42636  0.83449  0.62151  1.0000
  H   H36       1.0  0.57364  0.33449  0.87849  1.0000
  H   H37       1.0  0.68881  0.11603  0.53507  1.0000
  H   H38       1.0  0.31119  0.61603  0.96494  1.0000
  H   H39       1.0  0.31119  0.88396  0.46494  1.0000
  H   H40       1.0  0.68881  0.38397  0.03506  1.0000
  H   H41       1.0  0.81026  0.94133  0.55814  1.0000
  H   H42       1.0  0.18973  0.44133  0.94186  1.0000
  H   H43       1.0  0.18974  0.05866  0.44186  1.0000
  H   H44       1.0  0.81026  0.55867  0.05814  1.0000
  H   H45       1.0  0.81620  0.82708  0.42350  1.0000
  H   H46       1.0  0.18381  0.32709  0.07650  1.0000
  H   H47       1.0  0.18381  0.17291  0.57650  1.0000
  H   H48       1.0  0.81619  0.67291  0.92350  1.0000
  C   C1        1.0  0.50969  0.84805  0.06761  1.0000
  C   C2        1.0  0.49031  0.34805  0.43239  1.0000
  C   C3        1.0  0.49031  0.15196  0.93239  1.0000
  C   C4        1.0  0.50969  0.65196  0.56761  1.0000
  C   C5        1.0  0.38400  0.83848  0.99039  1.0000
  C   C6        1.0  0.61600  0.33847  0.50961  1.0000
  C   C7        1.0  0.61600  0.16153  0.00961  1.0000
  C   C8        1.0  0.38400  0.66153  0.49039  1.0000
  C   C9        1.0  0.43000  0.80209  0.90848  1.0000
  C   C10       1.0  0.57000  0.30209  0.59152  1.0000
  C   C11       1.0  0.57000  0.19791  0.09152  1.0000
  C   C12       1.0  0.43000  0.69791  0.40848  1.0000
  C   C13       1.0  0.32023  0.77605  0.83659  1.0000
  C   C14       1.0  0.67978  0.27605  0.66341  1.0000
  C   C15       1.0  0.67977  0.22395  0.16341  1.0000
  C   C16       1.0  0.32023  0.72395  0.33658  1.0000
  C   C17       1.0  0.16171  0.78827  0.84594  1.0000
  C   C18       1.0  0.83829  0.28827  0.65406  1.0000
  C   C19       1.0  0.83829  0.21173  0.15406  1.0000
  C   C20       1.0  0.16171  0.71173  0.34594  1.0000
  C   C21       1.0  0.11462  0.82612  0.92654  1.0000
  C   C22       1.0  0.88538  0.32612  0.57345  1.0000
  C   C23       1.0  0.88538  0.17388  0.07346  1.0000
  C   C24       1.0  0.11463  0.67388  0.42654  1.0000
  C   C25       1.0  0.22362  0.85173  0.99978  1.0000
  C   C26       1.0  0.77638  0.35172  0.50022  1.0000
  C   C27       1.0  0.77638  0.14828  0.00022  1.0000
  C   C28       1.0  0.22362  0.64828  0.49978  1.0000
  C   C29       1.0  0.16386  0.89345  0.08202  1.0000
  C   C30       1.0  0.83614  0.39344  0.41797  1.0000
  C   C31       1.0  0.83614  0.10656  0.91798  1.0000
  C   C32       1.0  0.16386  0.60656  0.58202  1.0000
  C   C33       1.0  0.03803  0.84573  0.11719  1.0000
  C   C34       1.0  0.96197  0.34573  0.38281  1.0000
  C   C35       1.0  0.96197  0.15427  0.88281  1.0000
  C   C36       1.0  0.03803  0.65427  0.61719  1.0000
  C   C37       1.0  0.03119  0.96636  0.23055  1.0000
  C   C38       1.0  0.96880  0.46636  0.26945  1.0000
  C   C39       1.0  0.96881  0.03364  0.76945  1.0000
  C   C40       1.0  0.03120  0.53365  0.73055  1.0000
  C   C41       1.0  0.15402  0.02076  0.19905  1.0000
  C   C42       1.0  0.84597  0.52076  0.30095  1.0000
  C   C43       1.0  0.84597  0.97924  0.80095  1.0000
  C   C44       1.0  0.15403  0.47924  0.69904  1.0000
  C   C45       1.0  0.22001  0.98427  0.12333  1.0000
  C   C46       1.0  0.77998  0.48426  0.37667  1.0000
  C   C47       1.0  0.77998  0.01573  0.87667  1.0000
  C   C48       1.0  0.22002  0.51574  0.62333  1.0000
  C   C49       1.0  0.19855  0.12180  0.24129  1.0000
  C   C50       1.0  0.80145  0.62180  0.25871  1.0000
  C   C51       1.0  0.80145  0.87820  0.75871  1.0000
  C   C52       1.0  0.19855  0.37820  0.74129  1.0000
  C   C53       1.0  0.63413  0.02204  0.32160  1.0000
  C   C54       1.0  0.36587  0.52205  0.17841  1.0000
  C   C55       1.0  0.36587  0.97795  0.67841  1.0000
  C   C56       1.0  0.63413  0.47796  0.82159  1.0000
  C   C57       1.0  0.62715  0.09105  0.39214  1.0000
  C   C58       1.0  0.37285  0.59106  0.10786  1.0000
  C   C59       1.0  0.37286  0.90894  0.60786  1.0000
  C   C60       1.0  0.62715  0.40894  0.89214  1.0000
  C   C61       1.0  0.69240  0.06334  0.47850  1.0000
  C   C62       1.0  0.30759  0.56334  0.02150  1.0000
  C   C63       1.0  0.30760  0.93666  0.52150  1.0000
  C   C64       1.0  0.69240  0.43666  0.97850  1.0000
  C   C65       1.0  0.76133  0.96733  0.49150  1.0000
  C   C66       1.0  0.23867  0.46733  0.00850  1.0000
  C   C67       1.0  0.23867  0.03266  0.50850  1.0000
  C   C68       1.0  0.76133  0.53266  0.99150  1.0000
  C   C69       1.0  0.76427  0.90302  0.41718  1.0000
  C   C70       1.0  0.23574  0.40302  0.08282  1.0000
  C   C71       1.0  0.23574  0.09697  0.58282  1.0000
  C   C72       1.0  0.76426  0.59698  0.91718  1.0000
  N   N1        1.0  0.70237  0.92993  0.33361  1.0000
  N   N2        1.0  0.29763  0.42993  0.16639  1.0000
  N   N3        1.0  0.29763  0.07007  0.66639  1.0000
  N   N4        1.0  0.70237  0.57007  0.83361  1.0000
  N   N5        1.0  0.97260  0.88192  0.18912  1.0000
  N   N6        1.0  0.02739  0.38192  0.31088  1.0000
  N   N7        1.0  0.02740  0.11808  0.81088  1.0000
  N   N8        1.0  0.97260  0.61809  0.68912  1.0000
  O   O1        1.0  0.47297  0.82957  0.14797  1.0000
  O   O2        1.0  0.52703  0.32957  0.35203  1.0000
  O   O3        1.0  0.52703  0.17043  0.85204  1.0000
  O   O4        1.0  0.47297  0.67043  0.64796  1.0000
  O   O5        1.0  0.64918  0.86568  0.05201  1.0000
  O   O6        1.0  0.35082  0.36568  0.44799  1.0000
  O   O7        1.0  0.35082  0.13432  0.94799  1.0000
  O   O8        1.0  0.64918  0.63432  0.55201  1.0000
  O   O9        1.0  0.27086  0.18395  0.19368  1.0000
  O   O10       1.0  0.72913  0.68395  0.30633  1.0000
  O   O11       1.0  0.72914  0.81605  0.80633  1.0000
  O   O12       1.0  0.27086  0.31605  0.69367  1.0000
  O   O13       1.0  0.15808  0.14388  0.31847  1.0000
  O   O14       1.0  0.84192  0.64388  0.18153  1.0000
  O   O15       1.0  0.84192  0.85612  0.68153  1.0000
  O   O16       1.0  0.15808  0.35613  0.81847  1.0000
