data_image0
_chemical_formula_structural       Ca4H30C32N2O24
_chemical_formula_sum              "Ca4 H30 C32 N2 O24"
_cell_length_a       9.57246
_cell_length_b       10.4512
_cell_length_c       11.4291
_cell_angle_alpha    75.711
_cell_angle_beta     83.6421
_cell_angle_gamma    81.2212

_space_group_name_H-M_alt    "P 1"
_space_group_IT_number       1

loop_
  _space_group_symop_operation_xyz
  'x, y, z'

loop_
  _atom_site_type_symbol
  _atom_site_label
  _atom_site_symmetry_multiplicity
  _atom_site_fract_x
  _atom_site_fract_y
  _atom_site_fract_z
  _atom_site_occupancy
  Ca  Ca1       1.0  0.50000  0.00000  0.50000  1.0000
  Ca  Ca2       1.0  0.45418  0.40870  0.36579  1.0000
  Ca  Ca3       1.0  0.54581  0.59130  0.63421  1.0000
  Ca  Ca4       1.0  0.50000  0.50000  1.00000  1.0000
  H   H1        1.0  0.04255  0.72276  0.95720  1.0000
  H   H2        1.0  0.95745  0.27724  0.04281  1.0000
  H   H3        1.0  0.76000  0.68382  0.99582  1.0000
  H   H4        1.0  0.23999  0.31618  0.00418  1.0000
  H   H5        1.0  0.35520  0.78527  0.12473  1.0000
  H   H6        1.0  0.64481  0.21474  0.87527  1.0000
  H   H7        1.0  0.34675  0.05210  0.01384  1.0000
  H   H8        1.0  0.65327  0.94790  0.98616  1.0000
  H   H9        1.0  0.19247  0.19638  0.72324  1.0000
  H   H10       1.0  0.80753  0.80362  0.27676  1.0000
  H   H11       1.0  0.20999  0.01909  0.76674  1.0000
  H   H12       1.0  0.79002  0.98091  0.23326  1.0000
  H   H13       1.0  0.03805  0.11581  0.76011  1.0000
  H   H14       1.0  0.96195  0.88419  0.23989  1.0000
  H   H15       1.0  0.10270  0.26509  0.33713  1.0000
  H   H16       1.0  0.89730  0.73490  0.66288  1.0000
  H   H17       1.0  0.95440  0.17390  0.36002  1.0000
  H   H18       1.0  0.04560  0.82610  0.63998  1.0000
  H   H19       1.0  0.13146  0.08700  0.37088  1.0000
  H   H20       1.0  0.86854  0.91300  0.62913  1.0000
  H   H21       1.0  0.86757  0.19131  0.64057  1.0000
  H   H22       1.0  0.13243  0.80869  0.35943  1.0000
  H   H23       1.0  0.85838  0.29519  0.49222  1.0000
  H   H24       1.0  0.14162  0.70480  0.50778  1.0000
  H   H25       1.0  0.96532  0.33064  0.59577  1.0000
  H   H26       1.0  0.03467  0.66935  0.40423  1.0000
  H   H27       1.0  0.23980  0.47059  0.55970  1.0000
  H   H28       1.0  0.76020  0.52940  0.44030  1.0000
  H   H29       1.0  0.18147  0.45387  0.43969  1.0000
  H   H30       1.0  0.81852  0.54613  0.56031  1.0000
  C   C1        1.0  0.20600  0.55703  0.16346  1.0000
  C   C2        1.0  0.79399  0.44298  0.83654  1.0000
  C   C3        1.0  0.05520  0.58730  0.13684  1.0000
  C   C4        1.0  0.94480  0.41271  0.86316  1.0000
  C   C5        1.0  0.98960  0.66310  0.03615  1.0000
  C   C6        1.0  0.01039  0.33690  0.96386  1.0000
  C   C7        1.0  0.84504  0.64256  0.05533  1.0000
  C   C8        1.0  0.15495  0.35744  0.94467  1.0000
  C   C9        1.0  0.83049  0.55542  0.16699  1.0000
  C   C10       1.0  0.16950  0.44458  0.83301  1.0000
  C   C11       1.0  0.70902  0.49281  0.23450  1.0000
  C   C12       1.0  0.29097  0.50719  0.76550  1.0000
  C   C13       1.0  0.44626  0.74298  0.38626  1.0000
  C   C14       1.0  0.55374  0.25703  0.61374  1.0000
  C   C15       1.0  0.41922  0.85040  0.27732  1.0000
  C   C16       1.0  0.58078  0.14961  0.72267  1.0000
  C   C17       1.0  0.37787  0.86506  0.16265  1.0000
  C   C18       1.0  0.62214  0.13494  0.83735  1.0000
  C   C19       1.0  0.37374  0.00327  0.10524  1.0000
  C   C20       1.0  0.62628  0.99673  0.89476  1.0000
  C   C21       1.0  0.41369  0.06514  0.18726  1.0000
  C   C22       1.0  0.58632  0.93486  0.81274  1.0000
  C   C23       1.0  0.43789  0.20074  0.19052  1.0000
  C   C24       1.0  0.56212  0.79926  0.80948  1.0000
  C   C25       1.0  0.15477  0.10307  0.58612  1.0000
  C   C26       1.0  0.84523  0.89693  0.41388  1.0000
  C   C27       1.0  0.14625  0.10818  0.71739  1.0000
  C   C28       1.0  0.85375  0.89183  0.28262  1.0000
  C   C29       1.0  0.06019  0.17363  0.38847  1.0000
  C   C30       1.0  0.93982  0.82637  0.61153  1.0000
  C   C31       1.0  0.92860  0.25067  0.56503  1.0000
  C   C32       1.0  0.07140  0.74932  0.43498  1.0000
  N   N1        1.0  0.04825  0.16766  0.51826  1.0000
  N   N2        1.0  0.95175  0.83233  0.48174  1.0000
  O   O1        1.0  0.29330  0.60733  0.07855  1.0000
  O   O2        1.0  0.70670  0.39267  0.92145  1.0000
  O   O3        1.0  0.23741  0.40699  0.50812  1.0000
  O   O4        1.0  0.76259  0.59301  0.49188  1.0000
  O   O5        1.0  0.23729  0.48233  0.26555  1.0000
  O   O6        1.0  0.76270  0.51767  0.73445  1.0000
  O   O7        1.0  0.95809  0.52247  0.21826  1.0000
  O   O8        1.0  0.04190  0.47753  0.78174  1.0000
  O   O9        1.0  0.71366  0.43662  0.34670  1.0000
  O   O10       1.0  0.28633  0.56338  0.65330  1.0000
  O   O11       1.0  0.60011  0.49835  0.17701  1.0000
  O   O12       1.0  0.39988  0.50165  0.82299  1.0000
  O   O13       1.0  0.47754  0.78067  0.47770  1.0000
  O   O14       1.0  0.52245  0.21933  0.52229  1.0000
  O   O15       1.0  0.43834  0.62419  0.38575  1.0000
  O   O16       1.0  0.56167  0.37581  0.61425  1.0000
  O   O17       1.0  0.44052  0.97210  0.29261  1.0000
  O   O18       1.0  0.55949  0.02790  0.70739  1.0000
  O   O19       1.0  0.46743  0.21316  0.29308  1.0000
  O   O20       1.0  0.53257  0.78684  0.70692  1.0000
  O   O21       1.0  0.42836  0.29047  0.09359  1.0000
  O   O22       1.0  0.57164  0.70954  0.90641  1.0000
  O   O23       1.0  0.26185  0.03941  0.54168  1.0000
  O   O24       1.0  0.73816  0.96059  0.45833  1.0000
