data_image0
_chemical_formula_structural       Zn2H16C24O10
_chemical_formula_sum              "Zn2 H16 C24 O10"
_cell_length_a       6.17822
_cell_length_b       7.42305
_cell_length_c       11.7882
_cell_angle_alpha    90.8925
_cell_angle_beta     104.478
_cell_angle_gamma    91.2174

_space_group_name_H-M_alt    "P 1"
_space_group_IT_number       1

loop_
  _space_group_symop_operation_xyz
  'x, y, z'

loop_
  _atom_site_type_symbol
  _atom_site_label
  _atom_site_symmetry_multiplicity
  _atom_site_fract_x
  _atom_site_fract_y
  _atom_site_fract_z
  _atom_site_occupancy
  Zn  Zn1       1.0  0.68877  0.75110  0.99862  1.0000
  Zn  Zn2       1.0  0.31124  0.24890  0.00138  1.0000
  H   H1        1.0  0.08204  0.65257  0.96389  1.0000
  H   H2        1.0  0.11791  0.85089  0.01979  1.0000
  H   H3        1.0  0.91797  0.34741  0.03614  1.0000
  H   H4        1.0  0.88207  0.14911  0.98022  1.0000
  H   H5        1.0  0.22428  0.14240  0.63246  1.0000
  H   H6        1.0  0.59063  0.35638  0.36829  1.0000
  H   H7        1.0  0.77572  0.85762  0.36751  1.0000
  H   H8        1.0  0.40939  0.64361  0.63171  1.0000
  H   H9        1.0  0.86437  0.91400  0.78333  1.0000
  H   H10       1.0  0.09182  0.59341  0.21637  1.0000
  H   H11       1.0  0.13562  0.08598  0.21667  1.0000
  H   H12       1.0  0.90818  0.40657  0.78363  1.0000
  H   H13       1.0  0.08201  0.15065  0.41491  1.0000
  H   H14       1.0  0.65925  0.34546  0.58602  1.0000
  H   H15       1.0  0.91802  0.84938  0.58507  1.0000
  H   H16       1.0  0.34071  0.65454  0.41398  1.0000
  C   C1        1.0  0.51389  0.07474  0.83863  1.0000
  C   C2        1.0  0.68067  0.43080  0.16166  1.0000
  C   C3        1.0  0.48611  0.92528  0.16136  1.0000
  C   C4        1.0  0.31929  0.56919  0.83835  1.0000
  C   C5        1.0  0.54076  0.03396  0.71862  1.0000
  C   C6        1.0  0.82577  0.47065  0.28133  1.0000
  C   C7        1.0  0.45927  0.96610  0.28135  1.0000
  C   C8        1.0  0.17416  0.52938  0.71867  1.0000
  C   C9        1.0  0.37490  0.07841  0.62084  1.0000
  C   C10       1.0  0.75439  0.42226  0.37953  1.0000
  C   C11       1.0  0.62511  0.92159  0.37915  1.0000
  C   C12       1.0  0.24558  0.57776  0.62046  1.0000
  C   C13       1.0  0.39975  0.04184  0.50661  1.0000
  C   C14       1.0  0.89178  0.45746  0.49357  1.0000
  C   C15       1.0  0.60027  0.95816  0.49339  1.0000
  C   C16       1.0  0.10827  0.54252  0.50645  1.0000
  C   C17       1.0  0.73781  0.94997  0.70532  1.0000
  C   C18       1.0  0.03915  0.55573  0.29447  1.0000
  C   C19       1.0  0.26221  0.05007  0.29468  1.0000
  C   C20       1.0  0.96084  0.44425  0.70557  1.0000
  C   C21       1.0  0.23345  0.08651  0.40466  1.0000
  C   C22       1.0  0.82315  0.41017  0.59590  1.0000
  C   C23       1.0  0.76660  0.91351  0.59533  1.0000
  C   C24       1.0  0.17687  0.58980  0.40414  1.0000
  O   O1        1.0  0.66375  0.02543  0.92781  1.0000
  O   O2        1.0  0.74441  0.48426  0.07192  1.0000
  O   O3        1.0  0.33627  0.97454  0.07219  1.0000
  O   O4        1.0  0.25555  0.51566  0.92806  1.0000
  O   O5        1.0  0.34157  0.16115  0.84694  1.0000
  O   O6        1.0  0.50029  0.33922  0.15382  1.0000
  O   O7        1.0  0.65844  0.83884  0.15305  1.0000
  O   O8        1.0  0.49969  0.66080  0.84619  1.0000
  O   O9        1.0  0.99974  0.76019  0.98047  1.0000
  O   O10       1.0  0.00026  0.23978  0.01954  1.0000
