data_image0
_chemical_formula_structural       Ni4H28C28N4O24
_chemical_formula_sum              "Ni4 H28 C28 N4 O24"
_cell_length_a       7.15551
_cell_length_b       9.20507
_cell_length_c       13.038
_cell_angle_alpha    89.9996
_cell_angle_beta     90.0002
_cell_angle_gamma    90.0001

_space_group_name_H-M_alt    "P 1"
_space_group_IT_number       1

loop_
  _space_group_symop_operation_xyz
  'x, y, z'

loop_
  _atom_site_type_symbol
  _atom_site_label
  _atom_site_symmetry_multiplicity
  _atom_site_fract_x
  _atom_site_fract_y
  _atom_site_fract_z
  _atom_site_occupancy
  Ni  Ni1       1.0  0.11444  0.12525  0.26146  1.0000
  Ni  Ni2       1.0  0.38557  0.87476  0.76146  1.0000
  Ni  Ni3       1.0  0.88557  0.62524  0.23854  1.0000
  Ni  Ni4       1.0  0.61444  0.37475  0.73854  1.0000
  H   H1        1.0  0.58912  0.90363  0.48938  1.0000
  H   H2        1.0  0.91088  0.09636  0.98938  1.0000
  H   H3        1.0  0.41088  0.40364  0.01062  1.0000
  H   H4        1.0  0.08911  0.59637  0.51062  1.0000
  H   H5        1.0  0.84463  0.09220  0.46551  1.0000
  H   H6        1.0  0.65536  0.90779  0.96550  1.0000
  H   H7        1.0  0.15537  0.59221  0.03450  1.0000
  H   H8        1.0  0.34463  0.40780  0.53449  1.0000
  H   H9        1.0  0.45509  0.33553  0.27990  1.0000
  H   H10       1.0  0.04491  0.66447  0.77989  1.0000
  H   H11       1.0  0.54492  0.83553  0.22011  1.0000
  H   H12       1.0  0.95510  0.16446  0.72010  1.0000
  H   H13       1.0  0.88680  0.97179  0.16706  1.0000
  H   H14       1.0  0.61320  0.02822  0.66705  1.0000
  H   H15       1.0  0.11320  0.47179  0.33295  1.0000
  H   H16       1.0  0.38680  0.52821  0.83295  1.0000
  H   H17       1.0  0.81588  0.13449  0.13829  1.0000
  H   H18       1.0  0.68412  0.86551  0.63829  1.0000
  H   H19       1.0  0.18411  0.63449  0.36171  1.0000
  H   H20       1.0  0.31589  0.36551  0.86171  1.0000
  H   H21       1.0  0.08469  0.34578  0.14107  1.0000
  H   H22       1.0  0.41531  0.65422  0.64107  1.0000
  H   H23       1.0  0.91531  0.84578  0.35892  1.0000
  H   H24       1.0  0.58469  0.15422  0.85893  1.0000
  H   H25       1.0  0.20781  0.22901  0.08288  1.0000
  H   H26       1.0  0.29219  0.77099  0.58288  1.0000
  H   H27       1.0  0.79219  0.72901  0.41711  1.0000
  H   H28       1.0  0.70781  0.27099  0.91712  1.0000
  C   C1        1.0  0.23729  0.91625  0.40720  1.0000
  C   C2        1.0  0.26270  0.08376  0.90720  1.0000
  C   C3        1.0  0.76270  0.41624  0.09280  1.0000
  C   C4        1.0  0.73730  0.58375  0.59281  1.0000
  C   C5        1.0  0.39434  0.02400  0.39930  1.0000
  C   C6        1.0  0.10566  0.97599  0.89929  1.0000
  C   C7        1.0  0.60566  0.52401  0.10071  1.0000
  C   C8        1.0  0.89434  0.47599  0.60071  1.0000
  C   C9        1.0  0.56653  0.00296  0.44605  1.0000
  C   C10       1.0  0.93346  0.99703  0.94604  1.0000
  C   C11       1.0  0.43346  0.50297  0.05395  1.0000
  C   C12       1.0  0.06653  0.49704  0.55395  1.0000
  C   C13       1.0  0.70608  0.10684  0.43257  1.0000
  C   C14       1.0  0.79393  0.89315  0.93256  1.0000
  C   C15       1.0  0.29393  0.60685  0.06743  1.0000
  C   C16       1.0  0.20607  0.39316  0.56743  1.0000
  C   C17       1.0  0.66812  0.22882  0.37259  1.0000
  C   C18       1.0  0.83189  0.77117  0.87258  1.0000
  C   C19       1.0  0.33189  0.72882  0.12742  1.0000
  C   C20       1.0  0.16812  0.27117  0.62741  1.0000
  C   C21       1.0  0.49007  0.24312  0.32854  1.0000
  C   C22       1.0  0.00993  0.75687  0.82853  1.0000
  C   C23       1.0  0.50994  0.74313  0.17146  1.0000
  C   C24       1.0  0.99007  0.25688  0.67146  1.0000
  C   C25       1.0  0.81253  0.34203  0.34904  1.0000
  C   C26       1.0  0.68748  0.65795  0.84904  1.0000
  C   C27       1.0  0.18749  0.84205  0.15096  1.0000
  C   C28       1.0  0.31253  0.15796  0.65095  1.0000
  N   N1        1.0  0.35784  0.14232  0.34091  1.0000
  N   N2        1.0  0.14216  0.85768  0.84090  1.0000
  N   N3        1.0  0.64217  0.64232  0.15909  1.0000
  N   N4        1.0  0.85784  0.35768  0.65909  1.0000
  O   O1        1.0  0.08068  0.95964  0.36925  1.0000
  O   O2        1.0  0.41932  0.04036  0.86924  1.0000
  O   O3        1.0  0.91932  0.45963  0.13076  1.0000
  O   O4        1.0  0.58068  0.54037  0.63075  1.0000
  O   O5        1.0  0.26363  0.79303  0.44661  1.0000
  O   O6        1.0  0.23636  0.20696  0.94661  1.0000
  O   O7        1.0  0.73636  0.29304  0.05339  1.0000
  O   O8        1.0  0.76364  0.70697  0.55339  1.0000
  O   O9        1.0  0.74962  0.46919  0.33291  1.0000
  O   O10       1.0  0.75037  0.53082  0.83290  1.0000
  O   O11       1.0  0.25038  0.96918  0.16710  1.0000
  O   O12       1.0  0.24963  0.03082  0.66709  1.0000
  O   O13       1.0  0.98562  0.30686  0.34575  1.0000
  O   O14       1.0  0.51437  0.69314  0.84575  1.0000
  O   O15       1.0  0.01437  0.80685  0.15425  1.0000
  O   O16       1.0  0.48562  0.19315  0.65424  1.0000
  O   O17       1.0  0.85249  0.06919  0.19491  1.0000
  O   O18       1.0  0.64750  0.93081  0.69490  1.0000
  O   O19       1.0  0.14750  0.56920  0.30509  1.0000
  O   O20       1.0  0.35250  0.43081  0.80510  1.0000
  O   O21       1.0  0.18780  0.27263  0.15133  1.0000
  O   O22       1.0  0.31220  0.72738  0.65133  1.0000
  O   O23       1.0  0.81220  0.77263  0.34866  1.0000
  O   O24       1.0  0.68781  0.22737  0.84867  1.0000
