data_image0
_chemical_formula_structural       Zn2H32C44N4O8
_chemical_formula_sum              "Zn2 H32 C44 N4 O8"
_cell_length_a       7.92324
_cell_length_b       7.92321
_cell_length_c       14.9299
_cell_angle_alpha    97.9327
_cell_angle_beta     97.9322
_cell_angle_gamma    91.9318

_space_group_name_H-M_alt    "P 1"
_space_group_IT_number       1

loop_
  _space_group_symop_operation_xyz
  'x, y, z'

loop_
  _atom_site_type_symbol
  _atom_site_label
  _atom_site_symmetry_multiplicity
  _atom_site_fract_x
  _atom_site_fract_y
  _atom_site_fract_z
  _atom_site_occupancy
  Zn  Zn1       1.0  0.03618  0.96382  0.75000  1.0000
  Zn  Zn2       1.0  0.96382  0.03619  0.25000  1.0000
  H   H1        1.0  0.85491  0.52023  0.53366  1.0000
  H   H2        1.0  0.52023  0.85489  0.03366  1.0000
  H   H3        1.0  0.14509  0.47979  0.46635  1.0000
  H   H4        1.0  0.47977  0.14509  0.96635  1.0000
  H   H5        1.0  0.81137  0.21333  0.45765  1.0000
  H   H6        1.0  0.21334  0.81136  0.95765  1.0000
  H   H7        1.0  0.18864  0.78667  0.54235  1.0000
  H   H8        1.0  0.78665  0.18863  0.04236  1.0000
  H   H9        1.0  0.06614  0.33732  0.78086  1.0000
  H   H10       1.0  0.33732  0.06614  0.28086  1.0000
  H   H11       1.0  0.93387  0.66269  0.21914  1.0000
  H   H12       1.0  0.66268  0.93386  0.71914  1.0000
  H   H13       1.0  0.88969  0.98234  0.55344  1.0000
  H   H14       1.0  0.98235  0.88970  0.05344  1.0000
  H   H15       1.0  0.11031  0.01767  0.44656  1.0000
  H   H16       1.0  0.01765  0.11030  0.94657  1.0000
  H   H17       1.0  0.38134  0.10485  0.57566  1.0000
  H   H18       1.0  0.10487  0.38133  0.07566  1.0000
  H   H19       1.0  0.61866  0.89514  0.42434  1.0000
  H   H20       1.0  0.89513  0.61866  0.92433  1.0000
  H   H21       1.0  0.37600  0.34699  0.69895  1.0000
  H   H22       1.0  0.34702  0.37600  0.19894  1.0000
  H   H23       1.0  0.62399  0.65300  0.30106  1.0000
  H   H24       1.0  0.65298  0.62400  0.80105  1.0000
  H   H25       1.0  0.44498  0.64450  0.67360  1.0000
  H   H26       1.0  0.64452  0.44498  0.17358  1.0000
  H   H27       1.0  0.55502  0.35549  0.32641  1.0000
  H   H28       1.0  0.35548  0.55502  0.82640  1.0000
  H   H29       1.0  0.46148  0.15670  0.42499  1.0000
  H   H30       1.0  0.15670  0.46147  0.92499  1.0000
  H   H31       1.0  0.53853  0.84330  0.57502  1.0000
  H   H32       1.0  0.84330  0.53852  0.07500  1.0000
  C   C1        1.0  0.99857  0.62873  0.71269  1.0000
  C   C2        1.0  0.62873  0.99856  0.21269  1.0000
  C   C3        1.0  0.00143  0.37128  0.28731  1.0000
  C   C4        1.0  0.37127  0.00143  0.78731  1.0000
  C   C5        1.0  0.96380  0.45074  0.66284  1.0000
  C   C6        1.0  0.45074  0.96379  0.16284  1.0000
  C   C7        1.0  0.03620  0.54927  0.33716  1.0000
  C   C8        1.0  0.54926  0.03620  0.83716  1.0000
  C   C9        1.0  0.89107  0.41526  0.57102  1.0000
  C   C10       1.0  0.41527  0.89105  0.07102  1.0000
  C   C11       1.0  0.10894  0.58474  0.42898  1.0000
  C   C12       1.0  0.58473  0.10894  0.92898  1.0000
  C   C13       1.0  0.86547  0.24582  0.52934  1.0000
  C   C14       1.0  0.24583  0.86546  0.02934  1.0000
  C   C15       1.0  0.13454  0.75419  0.47066  1.0000
  C   C16       1.0  0.75417  0.13453  0.97066  1.0000
  C   C17       1.0  0.00784  0.31425  0.70944  1.0000
  C   C18       1.0  0.31425  0.00784  0.20944  1.0000
  C   C19       1.0  0.99217  0.68576  0.29057  1.0000
  C   C20       1.0  0.68575  0.99216  0.79057  1.0000
  C   C21       1.0  0.91050  0.11717  0.58129  1.0000
  C   C22       1.0  0.11718  0.91049  0.08129  1.0000
  C   C23       1.0  0.08951  0.88284  0.41871  1.0000
  C   C24       1.0  0.88282  0.08950  0.91872  1.0000
  C   C25       1.0  0.41296  0.23358  0.56282  1.0000
  C   C26       1.0  0.23359  0.41296  0.06282  1.0000
  C   C27       1.0  0.58704  0.76642  0.43719  1.0000
  C   C28       1.0  0.76641  0.58704  0.93718  1.0000
  C   C29       1.0  0.41026  0.37186  0.63356  1.0000
  C   C30       1.0  0.37187  0.41026  0.13355  1.0000
  C   C31       1.0  0.58973  0.62814  0.36645  1.0000
  C   C32       1.0  0.62813  0.58974  0.86644  1.0000
  C   C33       1.0  0.45113  0.53648  0.62038  1.0000
  C   C34       1.0  0.53649  0.45114  0.12037  1.0000
  C   C35       1.0  0.54886  0.46351  0.37962  1.0000
  C   C36       1.0  0.46350  0.54886  0.87962  1.0000
  C   C37       1.0  0.49892  0.56998  0.53599  1.0000
  C   C38       1.0  0.56998  0.49893  0.03599  1.0000
  C   C39       1.0  0.50107  0.43001  0.46401  1.0000
  C   C40       1.0  0.43001  0.50107  0.96400  1.0000
  C   C41       1.0  0.45676  0.26237  0.47969  1.0000
  C   C42       1.0  0.26237  0.45676  0.97969  1.0000
  C   C43       1.0  0.54323  0.73763  0.52031  1.0000
  C   C44       1.0  0.73762  0.54323  0.02030  1.0000
  N   N1        1.0  0.98139  0.15124  0.66971  1.0000
  N   N2        1.0  0.15125  0.98139  0.16971  1.0000
  N   N3        1.0  0.01862  0.84877  0.33029  1.0000
  N   N4        1.0  0.84875  0.01861  0.83029  1.0000
  O   O1        1.0  0.06357  0.65211  0.79529  1.0000
  O   O2        1.0  0.65211  0.06356  0.29530  1.0000
  O   O3        1.0  0.93643  0.34790  0.20471  1.0000
  O   O4        1.0  0.34790  0.93643  0.70471  1.0000
  O   O5        1.0  0.95905  0.75079  0.66547  1.0000
  O   O6        1.0  0.75079  0.95904  0.16547  1.0000
  O   O7        1.0  0.04096  0.24922  0.33453  1.0000
  O   O8        1.0  0.24921  0.04096  0.83453  1.0000
