data_image0
_chemical_formula_structural       Cu2H30C28N8O8
_chemical_formula_sum              "Cu2 H30 C28 N8 O8"
_cell_length_a       7.35443
_cell_length_b       8.3225
_cell_length_c       12.7948
_cell_angle_alpha    80.4414
_cell_angle_beta     83.5211
_cell_angle_gamma    81.3771

_space_group_name_H-M_alt    "P 1"
_space_group_IT_number       1

loop_
  _space_group_symop_operation_xyz
  'x, y, z'

loop_
  _atom_site_type_symbol
  _atom_site_label
  _atom_site_symmetry_multiplicity
  _atom_site_fract_x
  _atom_site_fract_y
  _atom_site_fract_z
  _atom_site_occupancy
  Cu  Cu1       1.0  0.37461  0.05075  0.57010  1.0000
  Cu  Cu2       1.0  0.62538  0.94925  0.42990  1.0000
  H   H1        1.0  0.94701  0.00569  0.62696  1.0000
  H   H2        1.0  0.05298  0.99432  0.37304  1.0000
  H   H3        1.0  0.74559  0.02624  0.82254  1.0000
  H   H4        1.0  0.25442  0.97375  0.17747  1.0000
  H   H5        1.0  0.98441  0.13826  0.93760  1.0000
  H   H6        1.0  0.01562  0.86171  0.06241  1.0000
  H   H7        1.0  0.05516  0.65334  0.93777  1.0000
  H   H8        1.0  0.94484  0.34665  0.06223  1.0000
  H   H9        1.0  0.25118  0.76046  0.74486  1.0000
  H   H10       1.0  0.74882  0.23953  0.25513  1.0000
  H   H11       1.0  0.41470  0.46903  0.67757  1.0000
  H   H12       1.0  0.58530  0.53097  0.32242  1.0000
  H   H13       1.0  0.42272  0.18294  0.74755  1.0000
  H   H14       1.0  0.57728  0.81705  0.25244  1.0000
  H   H15       1.0  0.35092  0.86225  0.88140  1.0000
  H   H16       1.0  0.64907  0.13774  0.11860  1.0000
  H   H17       1.0  0.49144  0.30353  0.96904  1.0000
  H   H18       1.0  0.50856  0.69647  0.03097  1.0000
  H   H19       1.0  0.30904  0.42572  0.25270  1.0000
  H   H20       1.0  0.69098  0.57428  0.74730  1.0000
  H   H21       1.0  0.08966  0.35737  0.29494  1.0000
  H   H22       1.0  0.91035  0.64264  0.70506  1.0000
  H   H23       1.0  0.24386  0.26624  0.19531  1.0000
  H   H24       1.0  0.75615  0.73377  0.80469  1.0000
  H   H25       1.0  0.71306  0.49347  0.49997  1.0000
  H   H26       1.0  0.28693  0.50654  0.50003  1.0000
  H   H27       1.0  0.92422  0.35454  0.49102  1.0000
  H   H28       1.0  0.07577  0.64546  0.50898  1.0000
  H   H29       1.0  0.79831  0.37636  0.61716  1.0000
  H   H30       1.0  0.20168  0.62364  0.38285  1.0000
  C   C1        1.0  0.98403  0.04576  0.69730  1.0000
  C   C2        1.0  0.01596  0.95424  0.30270  1.0000
  C   C3        1.0  0.88393  0.05533  0.79724  1.0000
  C   C4        1.0  0.11607  0.94466  0.20276  1.0000
  C   C5        1.0  0.00156  0.10935  0.85727  1.0000
  C   C6        1.0  0.99846  0.89063  0.14273  1.0000
  C   C7        1.0  0.14450  0.58279  0.88323  1.0000
  C   C8        1.0  0.85550  0.41720  0.11677  1.0000
  C   C9        1.0  0.24348  0.63645  0.78546  1.0000
  C   C10       1.0  0.75652  0.36355  0.21454  1.0000
  C   C11       1.0  0.32827  0.49342  0.74921  1.0000
  C   C12       1.0  0.67173  0.50657  0.25078  1.0000
  C   C13       1.0  0.32306  0.19283  0.81781  1.0000
  C   C14       1.0  0.67694  0.80716  0.18218  1.0000
  C   C15       1.0  0.40776  0.09464  0.91553  1.0000
  C   C16       1.0  0.59225  0.90535  0.08447  1.0000
  C   C17       1.0  0.41415  0.92352  0.93398  1.0000
  C   C18       1.0  0.58585  0.07649  0.06602  1.0000
  C   C19       1.0  0.49487  0.17053  0.98204  1.0000
  C   C20       1.0  0.50513  0.82947  0.01796  1.0000
  C   C21       1.0  0.32521  0.19593  0.35523  1.0000
  C   C22       1.0  0.67478  0.80409  0.64477  1.0000
  C   C23       1.0  0.23416  0.31811  0.26928  1.0000
  C   C24       1.0  0.76584  0.68190  0.73071  1.0000
  C   C25       1.0  0.67662  0.23795  0.52322  1.0000
  C   C26       1.0  0.32337  0.76205  0.47679  1.0000
  C   C27       1.0  0.78627  0.37384  0.53278  1.0000
  C   C28       1.0  0.21372  0.62616  0.46722  1.0000
  N   N1        1.0  0.15145  0.09146  0.69552  1.0000
  N   N2        1.0  0.84854  0.90854  0.30447  1.0000
  N   N3        1.0  0.16090  0.12839  0.79405  1.0000
  N   N4        1.0  0.83911  0.87160  0.20595  1.0000
  N   N5        1.0  0.27938  0.36664  0.82413  1.0000
  N   N6        1.0  0.72062  0.63336  0.17587  1.0000
  N   N7        1.0  0.16599  0.41836  0.90645  1.0000
  N   N8        1.0  0.83401  0.58164  0.09355  1.0000
  O   O1        1.0  0.25468  0.19902  0.45075  1.0000
  O   O2        1.0  0.74534  0.80101  0.54925  1.0000
  O   O3        1.0  0.74474  0.13815  0.45928  1.0000
  O   O4        1.0  0.25524  0.86189  0.54072  1.0000
  O   O5        1.0  0.46776  0.10042  0.32602  1.0000
  O   O6        1.0  0.53222  0.89957  0.67398  1.0000
  O   O7        1.0  0.52197  0.23335  0.58003  1.0000
  O   O8        1.0  0.47802  0.76663  0.41999  1.0000
