data_image0
_chemical_formula_structural       CoH14C16S2N4O4
_chemical_formula_sum              "Co1 H14 C16 S2 N4 O4"
_cell_length_a       5.53284
_cell_length_b       6.06423
_cell_length_c       12.8981
_cell_angle_alpha    81.756
_cell_angle_beta     89.0914
_cell_angle_gamma    84.6152

_space_group_name_H-M_alt    "P 1"
_space_group_IT_number       1

loop_
  _space_group_symop_operation_xyz
  'x, y, z'

loop_
  _atom_site_type_symbol
  _atom_site_label
  _atom_site_symmetry_multiplicity
  _atom_site_fract_x
  _atom_site_fract_y
  _atom_site_fract_z
  _atom_site_occupancy
  Co  Co1       1.0  0.00000  1.00000  1.00000  1.0000
  H   H1        1.0  0.52902  0.96179  0.41079  1.0000
  H   H2        1.0  0.47101  0.03822  0.58922  1.0000
  H   H3        1.0  0.87610  0.05153  0.29297  1.0000
  H   H4        1.0  0.12391  0.94848  0.70702  1.0000
  H   H5        1.0  0.78799  0.47254  0.14314  1.0000
  H   H6        1.0  0.21198  0.52746  0.85686  1.0000
  H   H7        1.0  0.44869  0.37688  0.26501  1.0000
  H   H8        1.0  0.55128  0.62312  0.73500  1.0000
  H   H9        1.0  0.05201  0.66423  0.52849  1.0000
  H   H10       1.0  0.94801  0.33580  0.47152  1.0000
  H   H11       1.0  0.17314  0.90355  0.17605  1.0000
  H   H12       1.0  0.82687  0.09644  0.82394  1.0000
  H   H13       1.0  0.14753  0.66677  0.12620  1.0000
  H   H14       1.0  0.85245  0.33323  0.87379  1.0000
  C   C1        1.0  0.49167  0.79268  0.94390  1.0000
  C   C2        1.0  0.50831  0.20732  0.05609  1.0000
  C   C3        1.0  0.26322  0.59346  0.41514  1.0000
  C   C4        1.0  0.73678  0.40652  0.58486  1.0000
  C   C5        1.0  0.46653  0.66182  0.34557  1.0000
  C   C6        1.0  0.53349  0.33819  0.65444  1.0000
  C   C7        1.0  0.58604  0.85374  0.35263  1.0000
  C   C8        1.0  0.41398  0.14627  0.64736  1.0000
  C   C9        1.0  0.78022  0.90490  0.28617  1.0000
  C   C10       1.0  0.21979  0.09508  0.71383  1.0000
  C   C11       1.0  0.85506  0.76545  0.21164  1.0000
  C   C12       1.0  0.14493  0.23455  0.78835  1.0000
  C   C13       1.0  0.73283  0.57723  0.20270  1.0000
  C   C14       1.0  0.26716  0.42277  0.79729  1.0000
  C   C15       1.0  0.54263  0.52478  0.27002  1.0000
  C   C16       1.0  0.45734  0.47520  0.72999  1.0000
  S   S1        1.0  0.77415  0.70727  0.92403  1.0000
  S   S2        1.0  0.22585  0.29274  0.07596  1.0000
  N   N1        1.0  0.28968  0.86295  0.95908  1.0000
  N   N2        1.0  0.71032  0.13706  0.04091  1.0000
  N   N3        1.0  0.05481  0.81239  0.14366  1.0000
  N   N4        1.0  0.94518  0.18759  0.85634  1.0000
  O   O1        1.0  0.16413  0.42009  0.40594  1.0000
  O   O2        1.0  0.83587  0.57993  0.59406  1.0000
  O   O3        1.0  0.19706  0.72591  0.48566  1.0000
  O   O4        1.0  0.80297  0.27409  0.51436  1.0000
