data_image0
_chemical_formula_structural       Zn4H24C28N16O8
_chemical_formula_sum              "Zn4 H24 C28 N16 O8"
_cell_length_a       6.05004
_cell_length_b       9.27698
_cell_length_c       14.4525
_cell_angle_alpha    94.2485
_cell_angle_beta     90.0005
_cell_angle_gamma    89.9998

_space_group_name_H-M_alt    "P 1"
_space_group_IT_number       1

loop_
  _space_group_symop_operation_xyz
  'x, y, z'

loop_
  _atom_site_type_symbol
  _atom_site_label
  _atom_site_symmetry_multiplicity
  _atom_site_fract_x
  _atom_site_fract_y
  _atom_site_fract_z
  _atom_site_occupancy
  Zn  Zn1       1.0  0.82095  0.04889  0.79900  1.0000
  Zn  Zn2       1.0  0.67905  0.04889  0.29900  1.0000
  Zn  Zn3       1.0  0.17905  0.95111  0.20100  1.0000
  Zn  Zn4       1.0  0.32095  0.95111  0.70100  1.0000
  H   H1        1.0  0.35401  0.54790  0.80214  1.0000
  H   H2        1.0  0.14598  0.54792  0.30215  1.0000
  H   H3        1.0  0.64599  0.45210  0.19786  1.0000
  H   H4        1.0  0.85401  0.45209  0.69786  1.0000
  H   H5        1.0  0.31888  0.29360  0.84460  1.0000
  H   H6        1.0  0.18112  0.29362  0.34461  1.0000
  H   H7        1.0  0.68114  0.70640  0.15540  1.0000
  H   H8        1.0  0.81886  0.70639  0.65539  1.0000
  H   H9        1.0  0.66300  0.38673  0.94907  1.0000
  H   H10       1.0  0.83700  0.38672  0.44907  1.0000
  H   H11       1.0  0.33701  0.61326  0.05093  1.0000
  H   H12       1.0  0.16299  0.61327  0.55093  1.0000
  H   H13       1.0  0.70365  0.64269  0.91061  1.0000
  H   H14       1.0  0.79635  0.64268  0.41061  1.0000
  H   H15       1.0  0.29635  0.35730  0.08939  1.0000
  H   H16       1.0  0.20364  0.35731  0.58939  1.0000
  H   H17       1.0  0.10445  0.12962  0.93128  1.0000
  H   H18       1.0  0.39555  0.12962  0.43127  1.0000
  H   H19       1.0  0.89557  0.87038  0.06871  1.0000
  H   H20       1.0  0.60443  0.87038  0.56872  1.0000
  H   H21       1.0  0.84756  0.16377  0.96693  1.0000
  H   H22       1.0  0.65243  0.16376  0.46694  1.0000
  H   H23       1.0  0.15246  0.83623  0.03307  1.0000
  H   H24       1.0  0.34754  0.83624  0.53306  1.0000
  C   C1        1.0  0.05045  0.75862  0.81918  1.0000
  C   C2        1.0  0.44955  0.75862  0.31919  1.0000
  C   C3        1.0  0.94955  0.24138  0.18082  1.0000
  C   C4        1.0  0.55045  0.24139  0.68081  1.0000
  C   C5        1.0  0.03067  0.61114  0.85283  1.0000
  C   C6        1.0  0.46933  0.61114  0.35284  1.0000
  C   C7        1.0  0.96934  0.38886  0.14716  1.0000
  C   C8        1.0  0.53066  0.38886  0.64716  1.0000
  C   C9        1.0  0.20386  0.51234  0.83508  1.0000
  C   C10       1.0  0.29614  0.51235  0.33508  1.0000
  C   C11       1.0  0.79615  0.48766  0.16492  1.0000
  C   C12       1.0  0.70385  0.48766  0.66492  1.0000
  C   C13       1.0  0.18364  0.37020  0.85821  1.0000
  C   C14       1.0  0.31635  0.37021  0.35822  1.0000
  C   C15       1.0  0.81638  0.62980  0.14179  1.0000
  C   C16       1.0  0.68363  0.62979  0.64179  1.0000
  C   C17       1.0  0.98713  0.32509  0.89796  1.0000
  C   C18       1.0  0.51287  0.32509  0.39796  1.0000
  C   C19       1.0  0.01289  0.67491  0.10204  1.0000
  C   C20       1.0  0.48711  0.67491  0.60203  1.0000
  C   C21       1.0  0.81472  0.42306  0.91752  1.0000
  C   C22       1.0  0.68527  0.42306  0.41752  1.0000
  C   C23       1.0  0.18529  0.57693  0.08248  1.0000
  C   C24       1.0  0.31472  0.57694  0.58248  1.0000
  C   C25       1.0  0.83771  0.56587  0.89599  1.0000
  C   C26       1.0  0.66230  0.56586  0.39599  1.0000
  C   C27       1.0  0.16230  0.43413  0.10402  1.0000
  C   C28       1.0  0.33769  0.43414  0.60401  1.0000
  N   N1        1.0  0.95815  0.17564  0.91379  1.0000
  N   N2        1.0  0.54184  0.17564  0.41379  1.0000
  N   N3        1.0  0.04187  0.82436  0.08621  1.0000
  N   N4        1.0  0.45814  0.82436  0.58621  1.0000
  N   N5        1.0  0.99664  0.01372  0.67500  1.0000
  N   N6        1.0  0.50336  0.01373  0.17500  1.0000
  N   N7        1.0  0.00336  0.98628  0.32499  1.0000
  N   N8        1.0  0.49664  0.98627  0.82500  1.0000
  N   N9        1.0  0.96130  0.08530  0.60990  1.0000
  N   N10       1.0  0.53869  0.08530  0.10990  1.0000
  N   N11       1.0  0.03870  0.91469  0.39010  1.0000
  N   N12       1.0  0.46131  0.91470  0.89010  1.0000
  N   N13       1.0  0.92589  0.15173  0.54666  1.0000
  N   N14       1.0  0.57410  0.15174  0.04666  1.0000
  N   N15       1.0  0.07410  0.84826  0.45333  1.0000
  N   N16       1.0  0.42591  0.84827  0.95334  1.0000
  O   O1        1.0  0.92712  0.86051  0.85517  1.0000
  O   O2        1.0  0.57288  0.86051  0.35517  1.0000
  O   O3        1.0  0.07287  0.13949  0.14483  1.0000
  O   O4        1.0  0.42712  0.13950  0.64483  1.0000
  O   O5        1.0  0.19054  0.77176  0.75468  1.0000
  O   O6        1.0  0.30947  0.77177  0.25467  1.0000
  O   O7        1.0  0.80946  0.22824  0.24533  1.0000
  O   O8        1.0  0.69053  0.22823  0.74533  1.0000
