data_image0
_chemical_formula_structural       Cd4H32C28N16O12
_chemical_formula_sum              "Cd4 H32 C28 N16 O12"
_cell_length_a       6.51296
_cell_length_b       7.101
_cell_length_c       20.0762
_cell_angle_alpha    89.9996
_cell_angle_beta     90.0009
_cell_angle_gamma    97.4379

_space_group_name_H-M_alt    "P 1"
_space_group_IT_number       1

loop_
  _space_group_symop_operation_xyz
  'x, y, z'

loop_
  _atom_site_type_symbol
  _atom_site_label
  _atom_site_symmetry_multiplicity
  _atom_site_fract_x
  _atom_site_fract_y
  _atom_site_fract_z
  _atom_site_occupancy
  Cd  Cd1       1.0  0.78088  0.29810  0.02850  1.0000
  Cd  Cd2       1.0  0.28084  0.79811  0.47150  1.0000
  Cd  Cd3       1.0  0.21915  0.70189  0.97150  1.0000
  Cd  Cd4       1.0  0.71912  0.20190  0.52850  1.0000
  H   H1        1.0  0.94459  0.95583  0.07789  1.0000
  H   H2        1.0  0.44457  0.45585  0.42211  1.0000
  H   H3        1.0  0.05544  0.04416  0.92211  1.0000
  H   H4        1.0  0.55541  0.54417  0.57788  1.0000
  H   H5        1.0  0.47538  0.48481  0.19801  1.0000
  H   H6        1.0  0.97536  0.98481  0.30198  1.0000
  H   H7        1.0  0.52463  0.51521  0.80198  1.0000
  H   H8        1.0  0.02463  0.01518  0.69801  1.0000
  H   H9        1.0  0.12660  0.44148  0.18291  1.0000
  H   H10       1.0  0.62658  0.94150  0.31709  1.0000
  H   H11       1.0  0.87341  0.55849  0.81710  1.0000
  H   H12       1.0  0.37341  0.05852  0.68291  1.0000
  H   H13       1.0  0.93193  0.61285  0.10183  1.0000
  H   H14       1.0  0.43191  0.11285  0.39817  1.0000
  H   H15       1.0  0.06809  0.38714  0.89817  1.0000
  H   H16       1.0  0.56806  0.88716  0.60183  1.0000
  H   H17       1.0  0.67340  0.60054  0.10588  1.0000
  H   H18       1.0  0.17337  0.10055  0.39411  1.0000
  H   H19       1.0  0.32663  0.39946  0.89412  1.0000
  H   H20       1.0  0.82659  0.89946  0.60588  1.0000
  H   H21       1.0  0.13430  0.35938  0.30275  1.0000
  H   H22       1.0  0.63431  0.85938  0.19725  1.0000
  H   H23       1.0  0.86568  0.64060  0.69725  1.0000
  H   H24       1.0  0.36570  0.14063  0.80275  1.0000
  H   H25       1.0  0.48322  0.40546  0.31759  1.0000
  H   H26       1.0  0.98322  0.90545  0.18241  1.0000
  H   H27       1.0  0.51678  0.59456  0.68241  1.0000
  H   H28       1.0  0.01678  0.09453  0.81759  1.0000
  H   H29       1.0  0.69550  0.93106  0.08286  1.0000
  H   H30       1.0  0.19547  0.43106  0.41715  1.0000
  H   H31       1.0  0.30453  0.06893  0.91715  1.0000
  H   H32       1.0  0.80450  0.56893  0.58286  1.0000
  C   C1        1.0  0.80929  0.37507  0.31885  1.0000
  C   C2        1.0  0.30931  0.87506  0.18116  1.0000
  C   C3        1.0  0.19071  0.62493  0.68115  1.0000
  C   C4        1.0  0.69069  0.12493  0.81884  1.0000
  C   C5        1.0  0.80122  0.47237  0.18316  1.0000
  C   C6        1.0  0.30116  0.97238  0.31684  1.0000
  C   C7        1.0  0.19881  0.52762  0.81685  1.0000
  C   C8        1.0  0.69881  0.02763  0.68316  1.0000
  C   C9        1.0  0.61918  0.45624  0.22121  1.0000
  C   C10       1.0  0.11921  0.95624  0.27880  1.0000
  C   C11       1.0  0.38083  0.54377  0.77879  1.0000
  C   C12       1.0  0.88077  0.04376  0.72120  1.0000
  C   C13       1.0  0.98607  0.43303  0.21283  1.0000
  C   C14       1.0  0.48610  0.93303  0.28717  1.0000
  C   C15       1.0  0.01392  0.56697  0.78717  1.0000
  C   C16       1.0  0.51390  0.06698  0.71283  1.0000
  C   C17       1.0  0.98964  0.38614  0.27981  1.0000
  C   C18       1.0  0.48962  0.88613  0.22018  1.0000
  C   C19       1.0  0.01036  0.61386  0.72019  1.0000
  C   C20       1.0  0.51038  0.11387  0.77982  1.0000
  C   C21       1.0  0.62415  0.41048  0.28822  1.0000
  C   C22       1.0  0.12415  0.91047  0.21176  1.0000
  C   C23       1.0  0.37584  0.58953  0.71177  1.0000
  C   C24       1.0  0.87586  0.08951  0.78823  1.0000
  C   C25       1.0  0.81353  0.32129  0.39007  1.0000
  C   C26       1.0  0.31351  0.82128  0.10993  1.0000
  C   C27       1.0  0.18645  0.67872  0.60993  1.0000
  C   C28       1.0  0.68650  0.17871  0.89007  1.0000
  N   N1        1.0  0.69879  0.68644  0.94913  1.0000
  N   N2        1.0  0.19878  0.18644  0.55086  1.0000
  N   N3        1.0  0.30123  0.31356  0.05087  1.0000
  N   N4        1.0  0.80120  0.81356  0.44914  1.0000
  N   N5        1.0  0.83891  0.60958  0.96908  1.0000
  N   N6        1.0  0.33888  0.10959  0.53092  1.0000
  N   N7        1.0  0.16112  0.39041  0.03092  1.0000
  N   N8        1.0  0.66108  0.89042  0.46908  1.0000
  N   N9        1.0  0.79812  0.52967  0.11608  1.0000
  N   N10       1.0  0.29812  0.02966  0.38392  1.0000
  N   N11       1.0  0.20190  0.47034  0.88392  1.0000
  N   N12       1.0  0.70186  0.97034  0.61608  1.0000
  N   N13       1.0  0.56095  0.76149  0.92865  1.0000
  N   N14       1.0  0.06091  0.26151  0.57135  1.0000
  N   N15       1.0  0.43908  0.23850  0.07135  1.0000
  N   N16       1.0  0.93905  0.73850  0.42865  1.0000
  O   O1        1.0  0.82283  0.02528  0.08410  1.0000
  O   O2        1.0  0.32282  0.52529  0.41590  1.0000
  O   O3        1.0  0.17721  0.97471  0.91590  1.0000
  O   O4        1.0  0.67717  0.47472  0.58410  1.0000
  O   O5        1.0  0.97539  0.27034  0.41645  1.0000
  O   O6        1.0  0.47542  0.77033  0.08355  1.0000
  O   O7        1.0  0.02459  0.72966  0.58355  1.0000
  O   O8        1.0  0.52461  0.22966  0.91645  1.0000
  O   O9        1.0  0.64573  0.31995  0.42499  1.0000
  O   O10       1.0  0.14576  0.81994  0.07501  1.0000
  O   O11       1.0  0.35425  0.68006  0.57501  1.0000
  O   O12       1.0  0.85427  0.18004  0.92499  1.0000
