data_image0
_chemical_formula_structural       Na4H20C4N20O10
_chemical_formula_sum              "Na4 H20 C4 N20 O10"
_cell_length_a       7.10057
_cell_length_b       7.5094
_cell_length_c       11.9541
_cell_angle_alpha    80.2624
_cell_angle_beta     81.5178
_cell_angle_gamma    68.7547

_space_group_name_H-M_alt    "P 1"
_space_group_IT_number       1

loop_
  _space_group_symop_operation_xyz
  'x, y, z'

loop_
  _atom_site_type_symbol
  _atom_site_label
  _atom_site_symmetry_multiplicity
  _atom_site_fract_x
  _atom_site_fract_y
  _atom_site_fract_z
  _atom_site_occupancy
  Na  Na1       1.0  0.86729  0.37701  0.58590  1.0000
  Na  Na2       1.0  0.13271  0.62299  0.41410  1.0000
  Na  Na3       1.0  0.63974  0.45885  0.86301  1.0000
  Na  Na4       1.0  0.36026  0.54115  0.13698  1.0000
  H   H1        1.0  0.70382  0.77248  0.44980  1.0000
  H   H2        1.0  0.29618  0.22752  0.55020  1.0000
  H   H3        1.0  0.73270  0.77210  0.57663  1.0000
  H   H4        1.0  0.26730  0.22789  0.42337  1.0000
  H   H5        1.0  0.66628  0.16620  0.50358  1.0000
  H   H6        1.0  0.33372  0.83379  0.49642  1.0000
  H   H7        1.0  0.81683  0.18892  0.39266  1.0000
  H   H8        1.0  0.18317  0.81108  0.60734  1.0000
  H   H9        1.0  0.09638  0.35182  0.76856  1.0000
  H   H10       1.0  0.90362  0.64818  0.23144  1.0000
  H   H11       1.0  0.98407  0.57170  0.77886  1.0000
  H   H12       1.0  0.01593  0.42830  0.22114  1.0000
  H   H13       1.0  0.44159  0.57100  0.62743  1.0000
  H   H14       1.0  0.55842  0.42900  0.37258  1.0000
  H   H15       1.0  0.48184  0.36069  0.68870  1.0000
  H   H16       1.0  0.51817  0.63931  0.31130  1.0000
  H   H17       1.0  0.74221  0.63719  0.03800  1.0000
  H   H18       1.0  0.25780  0.36281  0.96200  1.0000
  H   H19       1.0  0.80291  0.41921  0.08891  1.0000
  H   H20       1.0  0.19710  0.58079  0.91109  1.0000
  C   C1        1.0  0.86727  0.93718  0.88788  1.0000
  C   C2        1.0  0.13273  0.06282  0.11212  1.0000
  C   C3        1.0  0.61079  0.02041  0.15654  1.0000
  C   C4        1.0  0.38920  0.97960  0.84346  1.0000
  N   N1        1.0  0.81585  0.11071  0.82360  1.0000
  N   N2        1.0  0.18415  0.88929  0.17640  1.0000
  N   N3        1.0  0.92290  0.07784  0.72339  1.0000
  N   N4        1.0  0.07710  0.92215  0.27661  1.0000
  N   N5        1.0  0.03682  0.89218  0.72682  1.0000
  N   N6        1.0  0.96318  0.10782  0.27319  1.0000
  N   N7        1.0  0.00426  0.79901  0.82922  1.0000
  N   N8        1.0  0.99574  0.20099  0.17078  1.0000
  N   N9        1.0  0.79311  0.89623  0.99987  1.0000
  N   N10       1.0  0.20688  0.10377  0.00013  1.0000
  N   N11       1.0  0.68629  0.04853  0.04455  1.0000
  N   N12       1.0  0.31370  0.95147  0.95545  1.0000
  N   N13       1.0  0.66316  0.85961  0.23280  1.0000
  N   N14       1.0  0.33683  0.14040  0.76719  1.0000
  N   N15       1.0  0.55120  0.91296  0.32916  1.0000
  N   N16       1.0  0.44880  0.08705  0.67085  1.0000
  N   N17       1.0  0.43352  0.09934  0.31156  1.0000
  N   N18       1.0  0.56648  0.90067  0.68844  1.0000
  N   N19       1.0  0.47013  0.17050  0.20488  1.0000
  N   N20       1.0  0.52987  0.82951  0.79512  1.0000
  O   O1        1.0  0.80077  0.70754  0.50778  1.0000
  O   O2        1.0  0.19923  0.29247  0.49223  1.0000
  O   O3        1.0  0.72601  0.25589  0.45753  1.0000
  O   O4        1.0  0.27399  0.74411  0.54247  1.0000
  O   O5        1.0  0.96623  0.45914  0.75665  1.0000
  O   O6        1.0  0.03377  0.54085  0.24335  1.0000
  O   O7        1.0  0.53126  0.46799  0.68003  1.0000
  O   O8        1.0  0.46875  0.53201  0.31997  1.0000
  O   O9        1.0  0.70156  0.52334  0.04434  1.0000
  O   O10       1.0  0.29844  0.47667  0.95566  1.0000
