data_image0
_chemical_formula_structural       Ba2H12C4N20O6
_chemical_formula_sum              "Ba2 H12 C4 N20 O6"
_cell_length_a       8.46065
_cell_length_b       9.08608
_cell_length_c       9.0523
_cell_angle_alpha    120.124
_cell_angle_beta     114.997
_cell_angle_gamma    90.0014

_space_group_name_H-M_alt    "P 1"
_space_group_IT_number       1

loop_
  _space_group_symop_operation_xyz
  'x, y, z'

loop_
  _atom_site_type_symbol
  _atom_site_label
  _atom_site_symmetry_multiplicity
  _atom_site_fract_x
  _atom_site_fract_y
  _atom_site_fract_z
  _atom_site_occupancy
  Ba  Ba1       1.0  0.75000  0.08629  0.00000  1.0000
  Ba  Ba2       1.0  0.25000  0.91370  1.00000  1.0000
  H   H1        1.0  0.80463  0.52333  0.11523  1.0000
  H   H2        1.0  0.30462  0.59184  0.11512  1.0000
  H   H3        1.0  0.19536  0.47667  0.88477  1.0000
  H   H4        1.0  0.69539  0.40816  0.88488  1.0000
  H   H5        1.0  0.46146  0.26616  0.08305  1.0000
  H   H6        1.0  0.96146  0.81688  0.08305  1.0000
  H   H7        1.0  0.53854  0.73383  0.91695  1.0000
  H   H8        1.0  0.03854  0.18311  0.91695  1.0000
  H   H9        1.0  0.35273  0.17410  0.85048  1.0000
  H   H10       1.0  0.85272  0.67637  0.85048  1.0000
  H   H11       1.0  0.64727  0.82589  0.14952  1.0000
  H   H12       1.0  0.14728  0.32362  0.14952  1.0000
  C   C1        1.0  0.32057  0.08698  0.51945  1.0000
  C   C2        1.0  0.82057  0.43246  0.51944  1.0000
  C   C3        1.0  0.67942  0.91301  0.48056  1.0000
  C   C4        1.0  0.17943  0.56755  0.48055  1.0000
  N   N1        1.0  0.48377  0.04367  0.57080  1.0000
  N   N2        1.0  0.98378  0.52714  0.57080  1.0000
  N   N3        1.0  0.51622  0.95633  0.42921  1.0000
  N   N4        1.0  0.01623  0.47288  0.42921  1.0000
  N   N5        1.0  0.26704  0.17619  0.65398  1.0000
  N   N6        1.0  0.76703  0.47778  0.65397  1.0000
  N   N7        1.0  0.73295  0.82380  0.34602  1.0000
  N   N8        1.0  0.23297  0.52222  0.34603  1.0000
  N   N9        1.0  0.10746  0.19698  0.56082  1.0000
  N   N10       1.0  0.60745  0.36383  0.56079  1.0000
  N   N11       1.0  0.89253  0.80302  0.43918  1.0000
  N   N12       1.0  0.39256  0.63617  0.43921  1.0000
  N   N13       1.0  0.06479  0.12253  0.37359  1.0000
  N   N14       1.0  0.56478  0.25105  0.37357  1.0000
  N   N15       1.0  0.93521  0.87746  0.62641  1.0000
  N   N16       1.0  0.43522  0.74895  0.62643  1.0000
  N   N17       1.0  0.19607  0.05250  0.34395  1.0000
  N   N18       1.0  0.69607  0.29144  0.34394  1.0000
  N   N19       1.0  0.80393  0.94750  0.65606  1.0000
  N   N20       1.0  0.30393  0.70857  0.65606  1.0000
  O   O1        1.0  0.75000  0.40225  0.00005  1.0000
  O   O2        1.0  0.25000  0.59775  0.99995  1.0000
  O   O3        1.0  0.41216  0.15190  0.95878  1.0000
  O   O4        1.0  0.91217  0.80688  0.95878  1.0000
  O   O5        1.0  0.58784  0.84809  0.04121  1.0000
  O   O6        1.0  0.08783  0.19312  0.04122  1.0000
