data_image0
_chemical_formula_structural       Li4H20C4N20O10
_chemical_formula_sum              "Li4 H20 C4 N20 O10"
_cell_length_a       8.65782
_cell_length_b       8.61887
_cell_length_c       9.07002
_cell_angle_alpha    86.9112
_cell_angle_beta     81.7477
_cell_angle_gamma    60.5732

_space_group_name_H-M_alt    "P 1"
_space_group_IT_number       1

loop_
  _space_group_symop_operation_xyz
  'x, y, z'

loop_
  _atom_site_type_symbol
  _atom_site_label
  _atom_site_symmetry_multiplicity
  _atom_site_fract_x
  _atom_site_fract_y
  _atom_site_fract_z
  _atom_site_occupancy
  Li  Li1       1.0  0.27939  0.30076  0.37360  1.0000
  Li  Li2       1.0  0.72060  0.69924  0.62640  1.0000
  Li  Li3       1.0  0.11913  0.36466  0.07740  1.0000
  Li  Li4       1.0  0.88087  0.63534  0.92260  1.0000
  H   H1        1.0  0.21035  0.24053  0.62900  1.0000
  H   H2        1.0  0.78965  0.75947  0.37100  1.0000
  H   H3        1.0  0.31430  0.34806  0.64782  1.0000
  H   H4        1.0  0.68570  0.65194  0.35218  1.0000
  H   H5        1.0  0.40628  0.95881  0.38229  1.0000
  H   H6        1.0  0.59372  0.04119  0.61771  1.0000
  H   H7        1.0  0.56537  0.00138  0.33807  1.0000
  H   H8        1.0  0.43463  0.99862  0.66193  1.0000
  H   H9        1.0  0.96014  0.46467  0.33931  1.0000
  H   H10       1.0  0.03986  0.53533  0.66069  1.0000
  H   H11       1.0  0.02602  0.25889  0.31170  1.0000
  H   H12       1.0  0.97398  0.74111  0.68830  1.0000
  H   H13       1.0  0.41169  0.22489  0.88775  1.0000
  H   H14       1.0  0.58831  0.77511  0.11225  1.0000
  H   H15       1.0  0.38118  0.06499  0.93608  1.0000
  H   H16       1.0  0.61881  0.93501  0.06391  1.0000
  H   H17       1.0  0.04050  0.70457  0.09351  1.0000
  H   H18       1.0  0.95950  0.29543  0.90648  1.0000
  H   H19       1.0  0.19121  0.58931  0.95744  1.0000
  H   H20       1.0  0.80879  0.41069  0.04256  1.0000
  C   C1        1.0  0.16735  0.92358  0.61280  1.0000
  C   C2        1.0  0.83265  0.07642  0.38720  1.0000
  C   C3        1.0  0.40090  0.59190  0.33590  1.0000
  C   C4        1.0  0.59911  0.40809  0.66410  1.0000
  N   N1        1.0  0.28978  0.82908  0.49056  1.0000
  N   N2        1.0  0.71022  0.17091  0.50944  1.0000
  N   N3        1.0  0.03454  0.89853  0.68659  1.0000
  N   N4        1.0  0.96546  0.10147  0.31341  1.0000
  N   N5        1.0  0.95606  0.02085  0.79603  1.0000
  N   N6        1.0  0.04394  0.97915  0.20397  1.0000
  N   N7        1.0  0.03860  0.11711  0.78929  1.0000
  N   N8        1.0  0.96140  0.88289  0.21071  1.0000
  N   N9        1.0  0.17147  0.05986  0.67542  1.0000
  N   N10       1.0  0.82854  0.94014  0.32458  1.0000
  N   N11       1.0  0.27876  0.69446  0.45370  1.0000
  N   N12       1.0  0.72125  0.30554  0.54630  1.0000
  N   N13       1.0  0.53833  0.60633  0.25674  1.0000
  N   N14       1.0  0.46167  0.39367  0.74325  1.0000
  N   N15       1.0  0.61923  0.46561  0.16322  1.0000
  N   N16       1.0  0.38077  0.53439  0.83677  1.0000
  N   N17       1.0  0.53622  0.36934  0.18259  1.0000
  N   N18       1.0  0.46378  0.63066  0.81741  1.0000
  N   N19       1.0  0.39914  0.44551  0.29095  1.0000
  N   N20       1.0  0.60087  0.55449  0.70905  1.0000
  O   O1        1.0  0.22522  0.34435  0.59197  1.0000
  O   O2        1.0  0.77478  0.65565  0.40803  1.0000
  O   O3        1.0  0.43800  0.04641  0.33266  1.0000
  O   O4        1.0  0.56200  0.95359  0.66734  1.0000
  O   O5        1.0  0.06500  0.35248  0.29471  1.0000
  O   O6        1.0  0.93499  0.64752  0.70529  1.0000
  O   O7        1.0  0.34410  0.18738  0.96333  1.0000
  O   O8        1.0  0.65590  0.81262  0.03668  1.0000
  O   O9        1.0  0.08149  0.60198  0.02264  1.0000
  O   O10       1.0  0.91851  0.39802  0.97736  1.0000
