data_image0
_chemical_formula_structural       Mn2H56C64S6N4O12
_chemical_formula_sum              "Mn2 H56 C64 S6 N4 O12"
_cell_length_a       9.15581
_cell_length_b       9.97647
_cell_length_c       16.8221
_cell_angle_alpha    95.0473
_cell_angle_beta     91.6091
_cell_angle_gamma    96.7829

_space_group_name_H-M_alt    "P 1"
_space_group_IT_number       1

loop_
  _space_group_symop_operation_xyz
  'x, y, z'

loop_
  _atom_site_type_symbol
  _atom_site_label
  _atom_site_symmetry_multiplicity
  _atom_site_fract_x
  _atom_site_fract_y
  _atom_site_fract_z
  _atom_site_occupancy
  Mn  Mn1       1.0  0.90855  0.79559  0.53318  1.0000
  Mn  Mn2       1.0  0.09145  0.20440  0.46682  1.0000
  H   H1        1.0  0.57977  0.17704  0.31671  1.0000
  H   H2        1.0  0.42023  0.82296  0.68329  1.0000
  H   H3        1.0  0.65831  0.18137  0.16654  1.0000
  H   H4        1.0  0.34169  0.81863  0.83346  1.0000
  H   H5        1.0  0.11716  0.93697  0.88208  1.0000
  H   H6        1.0  0.88284  0.06303  0.11792  1.0000
  H   H7        1.0  0.98615  0.89012  0.73832  1.0000
  H   H8        1.0  0.01386  0.10988  0.26168  1.0000
  H   H9        1.0  0.80921  0.16455  0.99248  1.0000
  H   H10       1.0  0.19079  0.83545  0.00752  1.0000
  H   H11       1.0  0.04780  0.28565  0.04937  1.0000
  H   H12       1.0  0.95220  0.71435  0.95063  1.0000
  H   H13       1.0  0.05935  0.52052  0.11452  1.0000
  H   H14       1.0  0.94065  0.47949  0.88548  1.0000
  H   H15       1.0  0.83211  0.63524  0.12140  1.0000
  H   H16       1.0  0.16789  0.36476  0.87860  1.0000
  H   H17       1.0  0.59403  0.51331  0.06556  1.0000
  H   H18       1.0  0.40597  0.48669  0.93444  1.0000
  H   H19       1.0  0.63902  0.03164  0.83153  1.0000
  H   H20       1.0  0.36097  0.96836  0.16847  1.0000
  H   H21       1.0  0.81847  0.06899  0.72507  1.0000
  H   H22       1.0  0.18153  0.93101  0.27493  1.0000
  H   H23       1.0  0.88380  0.30030  0.68281  1.0000
  H   H24       1.0  0.11621  0.69970  0.31720  1.0000
  H   H25       1.0  0.76379  0.49328  0.74502  1.0000
  H   H26       1.0  0.23621  0.50672  0.25498  1.0000
  H   H27       1.0  0.58597  0.45647  0.85134  1.0000
  H   H28       1.0  0.41403  0.54353  0.14866  1.0000
  H   H29       1.0  0.22040  0.93988  0.47616  1.0000
  H   H30       1.0  0.77959  0.06012  0.52384  1.0000
  H   H31       1.0  0.42618  0.98270  0.41912  1.0000
  H   H32       1.0  0.57382  0.01730  0.58088  1.0000
  H   H33       1.0  0.47057  0.84027  0.35687  1.0000
  H   H34       1.0  0.52943  0.15973  0.64313  1.0000
  H   H35       1.0  0.57128  0.88791  0.44917  1.0000
  H   H36       1.0  0.42872  0.11209  0.55083  1.0000
  H   H37       1.0  0.30371  0.59808  0.49534  1.0000
  H   H38       1.0  0.69629  0.40192  0.50466  1.0000
  H   H39       1.0  0.49739  0.65713  0.49493  1.0000
  H   H40       1.0  0.50261  0.34287  0.50507  1.0000
  H   H41       1.0  0.39377  0.60402  0.40315  1.0000
  H   H42       1.0  0.60623  0.39598  0.59684  1.0000
  H   H43       1.0  0.00988  0.50500  0.42000  1.0000
  H   H44       1.0  0.99012  0.49500  0.57999  1.0000
  H   H45       1.0  0.58685  0.44067  0.36456  1.0000
  H   H46       1.0  0.41316  0.55932  0.63544  1.0000
  H   H47       1.0  0.64084  0.52654  0.27965  1.0000
  H   H48       1.0  0.35916  0.47346  0.72035  1.0000
  H   H49       1.0  0.65725  0.61673  0.37723  1.0000
  H   H50       1.0  0.34275  0.38327  0.62277  1.0000
  H   H51       1.0  0.98905  0.39105  0.30382  1.0000
  H   H52       1.0  0.01095  0.60895  0.69618  1.0000
  H   H53       1.0  0.85483  0.43099  0.23243  1.0000
  H   H54       1.0  0.14517  0.56901  0.76757  1.0000
  H   H55       1.0  0.81419  0.29335  0.29243  1.0000
  H   H56       1.0  0.18581  0.70664  0.70757  1.0000
  C   C1        1.0  0.28146  0.22773  0.35171  1.0000
  C   C2        1.0  0.71854  0.77227  0.64829  1.0000
  C   C3        1.0  0.36488  0.22248  0.27792  1.0000
  C   C4        1.0  0.63512  0.77751  0.72208  1.0000
  C   C5        1.0  0.50903  0.19812  0.26736  1.0000
  C   C6        1.0  0.49097  0.80187  0.73263  1.0000
  C   C7        1.0  0.55093  0.20108  0.18734  1.0000
  C   C8        1.0  0.44907  0.79892  0.81266  1.0000
  C   C9        1.0  0.43661  0.22362  0.13590  1.0000
  C   C10       1.0  0.56339  0.77638  0.86410  1.0000
  C   C11       1.0  0.43199  0.21584  0.04950  1.0000
  C   C12       1.0  0.56801  0.78416  0.95050  1.0000
  C   C13       1.0  0.54146  0.25570  0.99759  1.0000
  C   C14       1.0  0.45854  0.74430  0.00241  1.0000
  C   C15       1.0  0.49890  0.21669  0.91536  1.0000
  C   C16       1.0  0.50110  0.78332  0.08464  1.0000
  C   C17       1.0  0.35604  0.14926  0.90580  1.0000
  C   C18       1.0  0.64397  0.85074  0.09420  1.0000
  C   C19       1.0  0.26668  0.09617  0.83540  1.0000
  C   C20       1.0  0.73332  0.90383  0.16460  1.0000
  C   C21       1.0  0.14861  0.99321  0.83137  1.0000
  C   C22       1.0  0.85139  0.00679  0.16863  1.0000
  C   C23       1.0  0.07831  0.96778  0.75525  1.0000
  C   C24       1.0  0.92169  0.03222  0.24475  1.0000
  C   C25       1.0  0.14077  0.05196  0.70088  1.0000
  C   C26       1.0  0.85923  0.94804  0.29912  1.0000
  C   C27       1.0  0.08981  0.06072  0.61797  1.0000
  C   C28       1.0  0.91019  0.93928  0.38203  1.0000
  C   C29       1.0  0.68544  0.32998  0.02663  1.0000
  C   C30       1.0  0.31456  0.67001  0.97337  1.0000
  C   C31       1.0  0.81471  0.26742  0.02135  1.0000
  C   C32       1.0  0.18529  0.73259  0.97865  1.0000
  C   C33       1.0  0.94806  0.33532  0.05363  1.0000
  C   C34       1.0  0.05194  0.66468  0.94637  1.0000
  C   C35       1.0  0.95474  0.46711  0.09023  1.0000
  C   C36       1.0  0.04526  0.53289  0.90977  1.0000
  C   C37       1.0  0.82734  0.53149  0.09400  1.0000
  C   C38       1.0  0.17266  0.46851  0.90600  1.0000
  C   C39       1.0  0.69356  0.46321  0.06260  1.0000
  C   C40       1.0  0.30644  0.53679  0.93740  1.0000
  C   C41       1.0  0.60015  0.24095  0.84907  1.0000
  C   C42       1.0  0.39985  0.75905  0.15093  1.0000
  C   C43       1.0  0.66683  0.13282  0.81257  1.0000
  C   C44       1.0  0.33317  0.86718  0.18743  1.0000
  C   C45       1.0  0.76791  0.15382  0.75306  1.0000
  C   C46       1.0  0.23209  0.84617  0.24695  1.0000
  C   C47       1.0  0.80400  0.28369  0.72896  1.0000
  C   C48       1.0  0.19600  0.71631  0.27104  1.0000
  C   C49       1.0  0.73694  0.39177  0.76395  1.0000
  C   C50       1.0  0.26307  0.60823  0.23606  1.0000
  C   C51       1.0  0.63615  0.37084  0.82385  1.0000
  C   C52       1.0  0.36385  0.62916  0.17615  1.0000
  C   C53       1.0  0.23290  0.83414  0.48546  1.0000
  C   C54       1.0  0.76710  0.16586  0.51454  1.0000
  C   C55       1.0  0.46258  0.88183  0.41905  1.0000
  C   C56       1.0  0.53742  0.11817  0.58095  1.0000
  C   C57       1.0  0.38982  0.65431  0.46378  1.0000
  C   C58       1.0  0.61017  0.34569  0.53622  1.0000
  C   C59       1.0  0.89627  0.53126  0.41934  1.0000
  C   C60       1.0  0.10373  0.46874  0.58065  1.0000
  C   C61       1.0  0.66615  0.51968  0.34314  1.0000
  C   C62       1.0  0.33385  0.48032  0.65686  1.0000
  C   C63       1.0  0.87191  0.39627  0.29163  1.0000
  C   C64       1.0  0.12809  0.60373  0.70837  1.0000
  S   S1        1.0  0.27996  0.24712  0.18828  1.0000
  S   S2        1.0  0.72004  0.75287  0.81172  1.0000
  S   S3        1.0  0.27694  0.13328  0.99742  1.0000
  S   S4        1.0  0.72306  0.86672  0.00258  1.0000
  S   S5        1.0  0.28789  0.16123  0.74394  1.0000
  S   S6        1.0  0.71211  0.83877  0.25606  1.0000
  N   N1        1.0  0.35677  0.79233  0.45881  1.0000
  N   N2        1.0  0.64323  0.20767  0.54119  1.0000
  N   N3        1.0  0.81654  0.48793  0.35245  1.0000
  N   N4        1.0  0.18346  0.51207  0.64754  1.0000
  O   O1        1.0  0.33336  0.18706  0.41482  1.0000
  O   O2        1.0  0.66664  0.81294  0.58518  1.0000
  O   O3        1.0  0.15479  0.27129  0.34819  1.0000
  O   O4        1.0  0.84521  0.72870  0.65181  1.0000
  O   O5        1.0  0.16603  0.14411  0.57717  1.0000
  O   O6        1.0  0.83397  0.85590  0.42283  1.0000
  O   O7        1.0  0.97033  0.98864  0.59288  1.0000
  O   O8        1.0  0.02967  0.01137  0.40712  1.0000
  O   O9        1.0  0.13403  0.76005  0.51790  1.0000
  O   O10       1.0  0.86597  0.23994  0.48210  1.0000
  O   O11       1.0  0.84678  0.59550  0.47847  1.0000
  O   O12       1.0  0.15323  0.40450  0.52152  1.0000
