data_image0
_chemical_formula_structural       K4H48C60N4O20
_chemical_formula_sum              "K4 H48 C60 N4 O20"
_cell_length_a       7.02655
_cell_length_b       13.1945
_cell_length_c       14.9561
_cell_angle_alpha    89.9996
_cell_angle_beta     89.9996
_cell_angle_gamma    90.0001

_space_group_name_H-M_alt    "P 1"
_space_group_IT_number       1

loop_
  _space_group_symop_operation_xyz
  'x, y, z'

loop_
  _atom_site_type_symbol
  _atom_site_label
  _atom_site_symmetry_multiplicity
  _atom_site_fract_x
  _atom_site_fract_y
  _atom_site_fract_z
  _atom_site_occupancy
  K   K1        1.0  0.78796  0.69720  0.41921  1.0000
  K   K2        1.0  0.71203  0.30280  0.91921  1.0000
  K   K3        1.0  0.21203  0.19720  0.08079  1.0000
  K   K4        1.0  0.28796  0.80280  0.58079  1.0000
  H   H1        1.0  0.67112  0.17760  0.75921  1.0000
  H   H2        1.0  0.82890  0.82240  0.25921  1.0000
  H   H3        1.0  0.32888  0.67760  0.74079  1.0000
  H   H4        1.0  0.17110  0.32239  0.24079  1.0000
  H   H5        1.0  0.68702  0.00536  0.69129  1.0000
  H   H6        1.0  0.81299  0.99464  0.19129  1.0000
  H   H7        1.0  0.31298  0.50536  0.80871  1.0000
  H   H8        1.0  0.18700  0.49464  0.30870  1.0000
  H   H9        1.0  0.69883  0.98615  0.52638  1.0000
  H   H10       1.0  0.80118  0.01385  0.02638  1.0000
  H   H11       1.0  0.30118  0.48615  0.97362  1.0000
  H   H12       1.0  0.19881  0.51385  0.47362  1.0000
  H   H13       1.0  0.71284  0.06247  0.37651  1.0000
  H   H14       1.0  0.78715  0.93753  0.87651  1.0000
  H   H15       1.0  0.28717  0.56247  0.12349  1.0000
  H   H16       1.0  0.21283  0.43753  0.62349  1.0000
  H   H17       1.0  0.70641  0.21547  0.27925  1.0000
  H   H18       1.0  0.79358  0.78454  0.77925  1.0000
  H   H19       1.0  0.29360  0.71546  0.22075  1.0000
  H   H20       1.0  0.20641  0.28453  0.72075  1.0000
  H   H21       1.0  0.70402  0.38909  0.34969  1.0000
  H   H22       1.0  0.79598  0.61091  0.84969  1.0000
  H   H23       1.0  0.29600  0.88909  0.15031  1.0000
  H   H24       1.0  0.20402  0.11091  0.65031  1.0000
  H   H25       1.0  0.63223  0.53396  0.72238  1.0000
  H   H26       1.0  0.86777  0.46604  0.22238  1.0000
  H   H27       1.0  0.36777  0.03397  0.77762  1.0000
  H   H28       1.0  0.13223  0.96603  0.27763  1.0000
  H   H29       1.0  0.97822  0.52281  0.71077  1.0000
  H   H30       1.0  0.52178  0.47720  0.21077  1.0000
  H   H31       1.0  0.02178  0.02280  0.78924  1.0000
  H   H32       1.0  0.47822  0.97720  0.28923  1.0000
  H   H33       1.0  0.91068  0.65158  0.69625  1.0000
  H   H34       1.0  0.58931  0.34843  0.19625  1.0000
  H   H35       1.0  0.08931  0.15157  0.80375  1.0000
  H   H36       1.0  0.41069  0.84843  0.30375  1.0000
  H   H37       1.0  0.97676  0.57832  0.60195  1.0000
  H   H38       1.0  0.52324  0.42169  0.10194  1.0000
  H   H39       1.0  0.02324  0.07831  0.89806  1.0000
  H   H40       1.0  0.47676  0.92169  0.39806  1.0000
  H   H41       1.0  0.31497  0.71146  0.39197  1.0000
  H   H42       1.0  0.18503  0.28854  0.89197  1.0000
  H   H43       1.0  0.68503  0.21146  0.10803  1.0000
  H   H44       1.0  0.81497  0.78854  0.60803  1.0000
  H   H45       1.0  0.40585  0.62593  0.45024  1.0000
  H   H46       1.0  0.09414  0.37407  0.95023  1.0000
  H   H47       1.0  0.59414  0.12593  0.04977  1.0000
  H   H48       1.0  0.90586  0.87407  0.54977  1.0000
  C   C1        1.0  0.66949  0.35752  0.67347  1.0000
  C   C2        1.0  0.83052  0.64248  0.17346  1.0000
  C   C3        1.0  0.33051  0.85752  0.82653  1.0000
  C   C4        1.0  0.16948  0.14248  0.32654  1.0000
  C   C5        1.0  0.68096  0.25584  0.63320  1.0000
  C   C6        1.0  0.81906  0.74416  0.13320  1.0000
  C   C7        1.0  0.31905  0.75584  0.86680  1.0000
  C   C8        1.0  0.18094  0.24416  0.36680  1.0000
  C   C9        1.0  0.69064  0.24548  0.53905  1.0000
  C   C10       1.0  0.80937  0.75452  0.03905  1.0000
  C   C11       1.0  0.30937  0.74548  0.96095  1.0000
  C   C12       1.0  0.19062  0.25452  0.46095  1.0000
  C   C13       1.0  0.69727  0.33188  0.48301  1.0000
  C   C14       1.0  0.80275  0.66812  0.98301  1.0000
  C   C15       1.0  0.30275  0.83188  0.01699  1.0000
  C   C16       1.0  0.19725  0.16811  0.51699  1.0000
  C   C17       1.0  0.70767  0.43343  0.52289  1.0000
  C   C18       1.0  0.79235  0.56658  0.02290  1.0000
  C   C19       1.0  0.29234  0.93343  0.97710  1.0000
  C   C20       1.0  0.20765  0.06657  0.47711  1.0000
  C   C21       1.0  0.67912  0.16966  0.68687  1.0000
  C   C22       1.0  0.82089  0.83034  0.18687  1.0000
  C   C23       1.0  0.32088  0.66966  0.81313  1.0000
  C   C24       1.0  0.17910  0.33033  0.31313  1.0000
  C   C25       1.0  0.68648  0.07237  0.64865  1.0000
  C   C26       1.0  0.81353  0.92763  0.14865  1.0000
  C   C27       1.0  0.31352  0.57237  0.85134  1.0000
  C   C28       1.0  0.18646  0.42763  0.35134  1.0000
  C   C29       1.0  0.69297  0.06102  0.55676  1.0000
  C   C30       1.0  0.80703  0.93898  0.05676  1.0000
  C   C31       1.0  0.30703  0.56102  0.94324  1.0000
  C   C32       1.0  0.19295  0.43897  0.44324  1.0000
  C   C33       1.0  0.69503  0.14676  0.49986  1.0000
  C   C34       1.0  0.80497  0.85324  0.99986  1.0000
  C   C35       1.0  0.30498  0.64676  0.00014  1.0000
  C   C36       1.0  0.19502  0.35324  0.50013  1.0000
  C   C37       1.0  0.70229  0.13815  0.40531  1.0000
  C   C38       1.0  0.79770  0.86186  0.90531  1.0000
  C   C39       1.0  0.29772  0.63815  0.09469  1.0000
  C   C40       1.0  0.20228  0.36185  0.59469  1.0000
  C   C41       1.0  0.70168  0.22367  0.35177  1.0000
  C   C42       1.0  0.79832  0.77633  0.85178  1.0000
  C   C43       1.0  0.29834  0.72367  0.14822  1.0000
  C   C44       1.0  0.20167  0.27633  0.64822  1.0000
  C   C45       1.0  0.70047  0.32086  0.39067  1.0000
  C   C46       1.0  0.79954  0.67914  0.89067  1.0000
  C   C47       1.0  0.29955  0.82086  0.10933  1.0000
  C   C48       1.0  0.20046  0.17914  0.60933  1.0000
  C   C49       1.0  0.69625  0.54301  0.65573  1.0000
  C   C50       1.0  0.80375  0.45699  0.15573  1.0000
  C   C51       1.0  0.30375  0.04301  0.84427  1.0000
  C   C52       1.0  0.19624  0.95699  0.34428  1.0000
  C   C53       1.0  0.90307  0.57582  0.66655  1.0000
  C   C54       1.0  0.59693  0.42419  0.16654  1.0000
  C   C55       1.0  0.09693  0.07581  0.83346  1.0000
  C   C56       1.0  0.40307  0.92419  0.33346  1.0000
  C   C57       1.0  0.56701  0.61901  0.60550  1.0000
  C   C58       1.0  0.93300  0.38099  0.10550  1.0000
  C   C59       1.0  0.43299  0.11901  0.89451  1.0000
  C   C60       1.0  0.06700  0.88099  0.39451  1.0000
  N   N1        1.0  0.68554  0.44089  0.61556  1.0000
  N   N2        1.0  0.81447  0.55911  0.11556  1.0000
  N   N3        1.0  0.31446  0.94089  0.88444  1.0000
  N   N4        1.0  0.18553  0.05911  0.38444  1.0000
  O   O1        1.0  0.64877  0.37168  0.75478  1.0000
  O   O2        1.0  0.85123  0.62832  0.25478  1.0000
  O   O3        1.0  0.35122  0.87168  0.74522  1.0000
  O   O4        1.0  0.14877  0.12831  0.24522  1.0000
  O   O5        1.0  0.73677  0.51082  0.47803  1.0000
  O   O6        1.0  0.76324  0.48917  0.97802  1.0000
  O   O7        1.0  0.26324  0.01082  0.02198  1.0000
  O   O8        1.0  0.23676  0.98917  0.52198  1.0000
  O   O9        1.0  0.63056  0.70851  0.59344  1.0000
  O   O10       1.0  0.86944  0.29149  0.09344  1.0000
  O   O11       1.0  0.36944  0.20850  0.90657  1.0000
  O   O12       1.0  0.13056  0.79149  0.40657  1.0000
  O   O13       1.0  0.40120  0.59031  0.58395  1.0000
  O   O14       1.0  0.09880  0.40968  0.08394  1.0000
  O   O15       1.0  0.59880  0.09032  0.91605  1.0000
  O   O16       1.0  0.90120  0.90968  0.41606  1.0000
  O   O17       1.0  0.41718  0.65944  0.39185  1.0000
  O   O18       1.0  0.08281  0.34056  0.89185  1.0000
  O   O19       1.0  0.58281  0.15944  0.10815  1.0000
  O   O20       1.0  0.91719  0.84056  0.60815  1.0000
