data_image0
_chemical_formula_structural       Cs2H20C30N2O10
_chemical_formula_sum              "Cs2 H20 C30 N2 O10"
_cell_length_a       6.60259
_cell_length_b       9.38908
_cell_length_c       11.3433
_cell_angle_alpha    100.519
_cell_angle_beta     89.9998
_cell_angle_gamma    90.0005

_space_group_name_H-M_alt    "P 1"
_space_group_IT_number       1

loop_
  _space_group_symop_operation_xyz
  'x, y, z'

loop_
  _atom_site_type_symbol
  _atom_site_label
  _atom_site_symmetry_multiplicity
  _atom_site_fract_x
  _atom_site_fract_y
  _atom_site_fract_z
  _atom_site_occupancy
  Cs  Cs1       1.0  0.66985  0.40750  0.87733  1.0000
  Cs  Cs2       1.0  0.16985  0.59250  0.12267  1.0000
  H   H1        1.0  0.24700  0.71751  0.87498  1.0000
  H   H2        1.0  0.74699  0.28250  0.12502  1.0000
  H   H3        1.0  0.52380  0.86198  0.02264  1.0000
  H   H4        1.0  0.02379  0.13802  0.97736  1.0000
  H   H5        1.0  0.38431  0.92040  0.90606  1.0000
  H   H6        1.0  0.88430  0.07960  0.09394  1.0000
  H   H7        1.0  0.73396  0.96426  0.89601  1.0000
  H   H8        1.0  0.23395  0.03575  0.10399  1.0000
  H   H9        1.0  0.66738  0.47860  0.47868  1.0000
  H   H10       1.0  0.16736  0.52140  0.52133  1.0000
  H   H11       1.0  0.66280  0.47244  0.25809  1.0000
  H   H12       1.0  0.16280  0.52756  0.74191  1.0000
  H   H13       1.0  0.66349  0.20702  0.58232  1.0000
  H   H14       1.0  0.16349  0.79298  0.41768  1.0000
  H   H15       1.0  0.66065  0.97499  0.21770  1.0000
  H   H16       1.0  0.16067  0.02500  0.78230  1.0000
  H   H17       1.0  0.67172  0.70450  0.17854  1.0000
  H   H18       1.0  0.17174  0.29550  0.82146  1.0000
  H   H19       1.0  0.65685  0.20509  0.35987  1.0000
  H   H20       1.0  0.15686  0.79490  0.64013  1.0000
  C   C1        1.0  0.86832  0.76037  0.89488  1.0000
  C   C2        1.0  0.36831  0.23963  0.10512  1.0000
  C   C3        1.0  0.67591  0.71006  0.65411  1.0000
  C   C4        1.0  0.17590  0.28994  0.34589  1.0000
  C   C5        1.0  0.48790  0.83564  0.92586  1.0000
  C   C6        1.0  0.98789  0.16435  0.07414  1.0000
  C   C7        1.0  0.68879  0.85122  0.86189  1.0000
  C   C8        1.0  0.18878  0.14878  0.13811  1.0000
  C   C9        1.0  0.66871  0.70982  0.52392  1.0000
  C   C10       1.0  0.16871  0.29018  0.47608  1.0000
  C   C11       1.0  0.66798  0.97845  0.69189  1.0000
  C   C12       1.0  0.16798  0.02156  0.30811  1.0000
  C   C13       1.0  0.66653  0.84210  0.48070  1.0000
  C   C14       1.0  0.16653  0.15790  0.51930  1.0000
  C   C15       1.0  0.66695  0.57908  0.44349  1.0000
  C   C16       1.0  0.16694  0.42092  0.55651  1.0000
  C   C17       1.0  0.66578  0.97597  0.56184  1.0000
  C   C18       1.0  0.16578  0.02403  0.43816  1.0000
  C   C19       1.0  0.66625  0.84050  0.35446  1.0000
  C   C20       1.0  0.16626  0.15949  0.64554  1.0000
  C   C21       1.0  0.66561  0.57661  0.31894  1.0000
  C   C22       1.0  0.16561  0.42339  0.68106  1.0000
  C   C23       1.0  0.66440  0.10507  0.51853  1.0000
  C   C24       1.0  0.16441  0.89493  0.48147  1.0000
  C   C25       1.0  0.66400  0.97455  0.31376  1.0000
  C   C26       1.0  0.16402  0.02545  0.68624  1.0000
  C   C27       1.0  0.66714  0.70493  0.27505  1.0000
  C   C28       1.0  0.16715  0.29507  0.72495  1.0000
  C   C29       1.0  0.66283  0.10421  0.39428  1.0000
  C   C30       1.0  0.16284  0.89578  0.60572  1.0000
  N   N1        1.0  0.67174  0.84513  0.73134  1.0000
  N   N2        1.0  0.17173  0.15487  0.26866  1.0000
  O   O1        1.0  0.68740  0.59681  0.69454  1.0000
  O   O2        1.0  0.18739  0.40319  0.30546  1.0000
  O   O3        1.0  0.39155  0.69832  0.89804  1.0000
  O   O4        1.0  0.89155  0.30168  0.10196  1.0000
  O   O5        1.0  0.84564  0.69792  0.98363  1.0000
  O   O6        1.0  0.34564  0.30208  0.01637  1.0000
  O   O7        1.0  0.66822  0.09340  0.76583  1.0000
  O   O8        1.0  0.16823  0.90659  0.23417  1.0000
  O   O9        1.0  0.02925  0.76473  0.83377  1.0000
  O   O10       1.0  0.52924  0.23527  0.16623  1.0000
