data_image0
_chemical_formula_structural       Cs2H20C30N2O8
_chemical_formula_sum              "Cs2 H20 C30 N2 O8"
_cell_length_a       6.58576
_cell_length_b       9.14423
_cell_length_c       11.2844
_cell_angle_alpha    95.7056
_cell_angle_beta     89.9998
_cell_angle_gamma    89.9997

_space_group_name_H-M_alt    "P 1"
_space_group_IT_number       1

loop_
  _space_group_symop_operation_xyz
  'x, y, z'

loop_
  _atom_site_type_symbol
  _atom_site_label
  _atom_site_symmetry_multiplicity
  _atom_site_fract_x
  _atom_site_fract_y
  _atom_site_fract_z
  _atom_site_occupancy
  Cs  Cs1       1.0  0.47466  0.37695  0.90637  1.0000
  Cs  Cs2       1.0  0.97466  0.62305  0.09363  1.0000
  H   H1        1.0  0.47797  0.19819  0.54530  1.0000
  H   H2        1.0  0.97797  0.80181  0.45470  1.0000
  H   H3        1.0  0.46460  0.17855  0.32067  1.0000
  H   H4        1.0  0.96460  0.82146  0.67933  1.0000
  H   H5        1.0  0.45892  0.93328  0.20619  1.0000
  H   H6        1.0  0.95892  0.06672  0.79381  1.0000
  H   H7        1.0  0.44662  0.66303  0.20089  1.0000
  H   H8        1.0  0.94662  0.33697  0.79911  1.0000
  H   H9        1.0  0.39673  0.44065  0.30648  1.0000
  H   H10       1.0  0.89672  0.55935  0.69353  1.0000
  H   H11       1.0  0.38465  0.46461  0.53151  1.0000
  H   H12       1.0  0.88464  0.53539  0.46849  1.0000
  H   H13       1.0  0.55458  0.96369  0.89369  1.0000
  H   H14       1.0  0.05458  0.03631  0.10631  1.0000
  H   H15       1.0  0.19226  0.98655  0.90319  1.0000
  H   H16       1.0  0.69226  0.01345  0.09682  1.0000
  H   H17       1.0  0.26852  0.88215  0.02062  1.0000
  H   H18       1.0  0.76852  0.11785  0.97938  1.0000
  H   H19       1.0  0.15465  0.79266  0.88897  1.0000
  H   H20       1.0  0.65465  0.20734  0.11103  1.0000
  C   C1        1.0  0.47247  0.97880  0.68403  1.0000
  C   C2        1.0  0.97247  0.02120  0.31596  1.0000
  C   C3        1.0  0.46576  0.96609  0.55332  1.0000
  C   C4        1.0  0.96576  0.03390  0.44668  1.0000
  C   C5        1.0  0.45212  0.82533  0.48866  1.0000
  C   C6        1.0  0.95212  0.17468  0.51134  1.0000
  C   C7        1.0  0.42879  0.69722  0.54838  1.0000
  C   C8        1.0  0.92879  0.30278  0.45162  1.0000
  C   C9        1.0  0.41967  0.70992  0.67939  1.0000
  C   C10       1.0  0.91966  0.29008  0.32061  1.0000
  C   C11       1.0  0.47083  0.09136  0.49323  1.0000
  C   C12       1.0  0.97084  0.90863  0.50677  1.0000
  C   C13       1.0  0.46671  0.07998  0.36776  1.0000
  C   C14       1.0  0.96672  0.92002  0.63224  1.0000
  C   C15       1.0  0.46168  0.94329  0.30329  1.0000
  C   C16       1.0  0.96168  0.05671  0.69671  1.0000
  C   C17       1.0  0.45347  0.81298  0.36149  1.0000
  C   C18       1.0  0.95347  0.18702  0.63851  1.0000
  C   C19       1.0  0.43857  0.67154  0.29805  1.0000
  C   C20       1.0  0.93858  0.32846  0.70195  1.0000
  C   C21       1.0  0.41414  0.54752  0.35778  1.0000
  C   C22       1.0  0.91414  0.45248  0.64222  1.0000
  C   C23       1.0  0.40726  0.56074  0.48315  1.0000
  C   C24       1.0  0.90726  0.43926  0.51686  1.0000
  C   C25       1.0  0.46891  0.86199  0.87038  1.0000
  C   C26       1.0  0.96891  0.13801  0.12962  1.0000
  C   C27       1.0  0.25719  0.88143  0.92362  1.0000
  C   C28       1.0  0.75719  0.11857  0.07638  1.0000
  C   C29       1.0  0.59949  0.73976  0.91835  1.0000
  C   C30       1.0  0.09948  0.26024  0.08164  1.0000
  N   N1        1.0  0.46138  0.84840  0.73920  1.0000
  N   N2        1.0  0.96138  0.15160  0.26079  1.0000
  O   O1        1.0  0.48730  0.09876  0.74534  1.0000
  O   O2        1.0  0.98730  0.90124  0.25466  1.0000
  O   O3        1.0  0.37674  0.60520  0.73646  1.0000
  O   O4        1.0  0.87672  0.39480  0.26354  1.0000
  O   O5        1.0  0.53822  0.69143  0.01442  1.0000
  O   O6        1.0  0.03821  0.30857  0.98558  1.0000
  O   O7        1.0  0.76268  0.70389  0.86382  1.0000
  O   O8        1.0  0.26267  0.29612  0.13618  1.0000
