data_image0
_chemical_formula_structural       Na4H12C8N24O8
_chemical_formula_sum              "Na4 H12 C8 N24 O8"
_cell_length_a       3.63315
_cell_length_b       8.36416
_cell_length_c       18.9273
_cell_angle_alpha    90
_cell_angle_beta     91.3782
_cell_angle_gamma    90

_space_group_name_H-M_alt    "P 1"
_space_group_IT_number       1

loop_
  _space_group_symop_operation_xyz
  'x, y, z'

loop_
  _atom_site_type_symbol
  _atom_site_label
  _atom_site_symmetry_multiplicity
  _atom_site_fract_x
  _atom_site_fract_y
  _atom_site_fract_z
  _atom_site_occupancy
  Na  Na1       1.0  0.76068  0.16028  0.21718  1.0000
  Na  Na2       1.0  0.73932  0.66027  0.28282  1.0000
  Na  Na3       1.0  0.23932  0.83972  0.78282  1.0000
  Na  Na4       1.0  0.26068  0.33973  0.71718  1.0000
  H   H1        1.0  0.53537  0.85821  0.98236  1.0000
  H   H2        1.0  0.96464  0.35820  0.51764  1.0000
  H   H3        1.0  0.46463  0.14179  0.01764  1.0000
  H   H4        1.0  0.03537  0.64180  0.48236  1.0000
  H   H5        1.0  0.50975  0.64659  0.99771  1.0000
  H   H6        1.0  0.99025  0.14658  0.50229  1.0000
  H   H7        1.0  0.49025  0.35341  0.00229  1.0000
  H   H8        1.0  0.00976  0.85342  0.49771  1.0000
  H   H9        1.0  0.13126  0.75003  0.95684  1.0000
  H   H10       1.0  0.36875  0.25003  0.54316  1.0000
  H   H11       1.0  0.86874  0.24997  0.04316  1.0000
  H   H12       1.0  0.63126  0.74997  0.45684  1.0000
  C   C1        1.0  0.35584  0.75878  0.99633  1.0000
  C   C2        1.0  0.14417  0.25877  0.50367  1.0000
  C   C3        1.0  0.64416  0.24123  0.00367  1.0000
  C   C4        1.0  0.85584  0.74123  0.49633  1.0000
  C   C5        1.0  0.13910  0.68094  0.11856  1.0000
  C   C6        1.0  0.36090  0.18093  0.38144  1.0000
  C   C7        1.0  0.86090  0.31907  0.88144  1.0000
  C   C8        1.0  0.63910  0.81907  0.61856  1.0000
  N   N1        1.0  0.20721  0.78745  0.06577  1.0000
  N   N2        1.0  0.29279  0.28745  0.43423  1.0000
  N   N3        1.0  0.79278  0.21255  0.93423  1.0000
  N   N4        1.0  0.70721  0.71255  0.56577  1.0000
  N   N5        1.0  0.09940  0.93375  0.08633  1.0000
  N   N6        1.0  0.40060  0.43374  0.41367  1.0000
  N   N7        1.0  0.90060  0.06625  0.91367  1.0000
  N   N8        1.0  0.59940  0.56625  0.58633  1.0000
  N   N9        1.0  0.98818  0.76338  0.17175  1.0000
  N   N10       1.0  0.51182  0.26337  0.32824  1.0000
  N   N11       1.0  0.01181  0.23663  0.82824  1.0000
  N   N12       1.0  0.48818  0.73663  0.67176  1.0000
  N   N13       1.0  0.97076  0.91760  0.14962  1.0000
  N   N14       1.0  0.52924  0.41759  0.35038  1.0000
  N   N15       1.0  0.02924  0.08241  0.85038  1.0000
  N   N16       1.0  0.47076  0.58241  0.64962  1.0000
  N   N17       1.0  0.24112  0.52579  0.10876  1.0000
  N   N18       1.0  0.25888  0.02579  0.39124  1.0000
  N   N19       1.0  0.75888  0.47420  0.89123  1.0000
  N   N20       1.0  0.74112  0.97421  0.60877  1.0000
  N   N21       1.0  0.15627  0.42155  0.15741  1.0000
  N   N22       1.0  0.34372  0.92154  0.34259  1.0000
  N   N23       1.0  0.84373  0.57845  0.84259  1.0000
  N   N24       1.0  0.65628  0.07845  0.65741  1.0000
  O   O1        1.0  0.26006  0.27745  0.14707  1.0000
  O   O2        1.0  0.23994  0.77745  0.35293  1.0000
  O   O3        1.0  0.73994  0.72255  0.85293  1.0000
  O   O4        1.0  0.76006  0.22255  0.64707  1.0000
  O   O5        1.0  0.97404  0.45290  0.21219  1.0000
  O   O6        1.0  0.52596  0.95290  0.28780  1.0000
  O   O7        1.0  0.02597  0.54710  0.78781  1.0000
  O   O8        1.0  0.47403  0.04710  0.71220  1.0000
