data_image0
_chemical_formula_structural       Rb8H24C16N48O16
_chemical_formula_sum              "Rb8 H24 C16 N48 O16"
_cell_length_a       8.87246
_cell_length_b       10.2415
_cell_length_c       15.2147
_cell_angle_alpha    90
_cell_angle_beta     92.8305
_cell_angle_gamma    90

_space_group_name_H-M_alt    "P 1"
_space_group_IT_number       1

loop_
  _space_group_symop_operation_xyz
  'x, y, z'

loop_
  _atom_site_type_symbol
  _atom_site_label
  _atom_site_symmetry_multiplicity
  _atom_site_fract_x
  _atom_site_fract_y
  _atom_site_fract_z
  _atom_site_occupancy
  Rb  Rb1       1.0  0.32678  0.93896  0.07779  1.0000
  Rb  Rb2       1.0  0.17322  0.43896  0.42221  1.0000
  Rb  Rb3       1.0  0.67322  0.06104  0.92221  1.0000
  Rb  Rb4       1.0  0.82678  0.56104  0.57779  1.0000
  Rb  Rb5       1.0  0.36324  0.63031  0.65464  1.0000
  Rb  Rb6       1.0  0.13676  0.13031  0.84536  1.0000
  Rb  Rb7       1.0  0.63676  0.36969  0.34536  1.0000
  Rb  Rb8       1.0  0.86324  0.86969  0.15464  1.0000
  H   H1        1.0  0.02229  0.53119  0.09722  1.0000
  H   H2        1.0  0.47771  0.03119  0.40278  1.0000
  H   H3        1.0  0.97771  0.46881  0.90278  1.0000
  H   H4        1.0  0.52229  0.96881  0.59722  1.0000
  H   H5        1.0  0.97462  0.47912  0.20391  1.0000
  H   H6        1.0  0.52538  0.97912  0.29609  1.0000
  H   H7        1.0  0.02538  0.52088  0.79609  1.0000
  H   H8        1.0  0.47462  0.02088  0.70391  1.0000
  H   H9        1.0  0.83132  0.48584  0.11561  1.0000
  H   H10       1.0  0.66868  0.98584  0.38439  1.0000
  H   H11       1.0  0.16868  0.51416  0.88439  1.0000
  H   H12       1.0  0.33132  0.01416  0.61561  1.0000
  H   H13       1.0  0.64239  0.40081  0.88879  1.0000
  H   H14       1.0  0.85761  0.90081  0.61121  1.0000
  H   H15       1.0  0.35761  0.59919  0.11121  1.0000
  H   H16       1.0  0.14239  0.09919  0.38879  1.0000
  H   H17       1.0  0.46051  0.45232  0.84468  1.0000
  H   H18       1.0  0.03949  0.95232  0.65532  1.0000
  H   H19       1.0  0.53949  0.54768  0.15532  1.0000
  H   H20       1.0  0.96051  0.04768  0.34468  1.0000
  H   H21       1.0  0.62991  0.50654  0.79540  1.0000
  H   H22       1.0  0.87009  0.00654  0.70459  1.0000
  H   H23       1.0  0.37009  0.49346  0.20459  1.0000
  H   H24       1.0  0.12991  0.99346  0.29540  1.0000
  C   C1        1.0  0.50890  0.70549  0.91388  1.0000
  C   C2        1.0  0.99110  0.20549  0.58612  1.0000
  C   C3        1.0  0.49110  0.29451  0.08612  1.0000
  C   C4        1.0  0.00890  0.79451  0.41388  1.0000
  C   C5        1.0  0.07857  0.24477  0.15162  1.0000
  C   C6        1.0  0.42143  0.74477  0.34838  1.0000
  C   C7        1.0  0.92143  0.75523  0.84838  1.0000
  C   C8        1.0  0.57857  0.25523  0.65162  1.0000
  C   C9        1.0  0.94977  0.46546  0.13344  1.0000
  C   C10       1.0  0.55023  0.96546  0.36656  1.0000
  C   C11       1.0  0.05023  0.53454  0.86656  1.0000
  C   C12       1.0  0.44977  0.03454  0.63344  1.0000
  C   C13       1.0  0.57854  0.48094  0.85729  1.0000
  C   C14       1.0  0.92146  0.98094  0.64271  1.0000
  C   C15       1.0  0.42146  0.51906  0.14271  1.0000
  C   C16       1.0  0.07854  0.01906  0.35729  1.0000
  N   N1        1.0  0.27700  0.21741  0.25347  1.0000
  N   N2        1.0  0.22300  0.71741  0.24653  1.0000
  N   N3        1.0  0.72300  0.78259  0.74653  1.0000
  N   N4        1.0  0.77700  0.28259  0.75347  1.0000
  N   N5        1.0  0.40291  0.72042  0.84682  1.0000
  N   N6        1.0  0.09709  0.22042  0.65319  1.0000
  N   N7        1.0  0.59709  0.27958  0.15319  1.0000
  N   N8        1.0  0.90291  0.77958  0.34681  1.0000
  N   N9        1.0  0.06921  0.13183  0.10595  1.0000
  N   N10       1.0  0.43078  0.63183  0.39405  1.0000
  N   N11       1.0  0.93078  0.86817  0.89405  1.0000
  N   N12       1.0  0.56922  0.36816  0.60595  1.0000
  N   N13       1.0  0.15568  0.28492  0.22677  1.0000
  N   N14       1.0  0.34432  0.78492  0.27323  1.0000
  N   N15       1.0  0.84432  0.71508  0.77323  1.0000
  N   N16       1.0  0.65568  0.21508  0.72677  1.0000
  N   N17       1.0  0.58781  0.59101  0.91725  1.0000
  N   N18       1.0  0.91219  0.09101  0.58275  1.0000
  N   N19       1.0  0.41219  0.40899  0.08275  1.0000
  N   N20       1.0  0.08781  0.90899  0.41725  1.0000
  N   N21       1.0  0.68782  0.59406  0.98694  1.0000
  N   N22       1.0  0.81218  0.09406  0.51306  1.0000
  N   N23       1.0  0.31218  0.40594  0.01306  1.0000
  N   N24       1.0  0.18782  0.90594  0.48694  1.0000
  N   N25       1.0  0.98011  0.33061  0.11111  1.0000
  N   N26       1.0  0.51989  0.83061  0.38889  1.0000
  N   N27       1.0  0.01989  0.66939  0.88889  1.0000
  N   N28       1.0  0.48011  0.16939  0.61111  1.0000
  N   N29       1.0  0.96523  0.15329  0.03888  1.0000
  N   N30       1.0  0.53477  0.65329  0.46112  1.0000
  N   N31       1.0  0.03477  0.84671  0.96112  1.0000
  N   N32       1.0  0.46523  0.34671  0.53888  1.0000
  N   N33       1.0  0.91108  0.27171  0.04112  1.0000
  N   N34       1.0  0.58892  0.77171  0.45888  1.0000
  N   N35       1.0  0.08892  0.72829  0.95888  1.0000
  N   N36       1.0  0.41108  0.22829  0.54112  1.0000
  N   N37       1.0  0.33889  0.83646  0.83565  1.0000
  N   N38       1.0  0.16111  0.33646  0.66435  1.0000
  N   N39       1.0  0.66111  0.16355  0.16435  1.0000
  N   N40       1.0  0.83889  0.66354  0.33565  1.0000
  N   N41       1.0  0.55996  0.77850  0.98298  1.0000
  N   N42       1.0  0.94004  0.27850  0.51702  1.0000
  N   N43       1.0  0.44004  0.22150  0.01702  1.0000
  N   N44       1.0  0.05996  0.72150  0.48298  1.0000
  N   N45       1.0  0.66931  0.70617  0.02532  1.0000
  N   N46       1.0  0.83069  0.20617  0.47468  1.0000
  N   N47       1.0  0.33069  0.29383  0.97468  1.0000
  N   N48       1.0  0.16931  0.79383  0.52532  1.0000
  O   O1        1.0  0.32694  0.12051  0.21312  1.0000
  O   O2        1.0  0.17306  0.62051  0.28688  1.0000
  O   O3        1.0  0.67306  0.87949  0.78688  1.0000
  O   O4        1.0  0.82694  0.37949  0.71312  1.0000
  O   O5        1.0  0.24285  0.84649  0.77149  1.0000
  O   O6        1.0  0.25715  0.34649  0.72851  1.0000
  O   O7        1.0  0.75715  0.15351  0.22851  1.0000
  O   O8        1.0  0.74285  0.65351  0.27149  1.0000
  O   O9        1.0  0.37012  0.93426  0.88466  1.0000
  O   O10       1.0  0.12988  0.43426  0.61534  1.0000
  O   O11       1.0  0.62988  0.06574  0.11534  1.0000
  O   O12       1.0  0.87012  0.56574  0.38466  1.0000
  O   O13       1.0  0.34392  0.25700  0.32462  1.0000
  O   O14       1.0  0.15608  0.75700  0.17538  1.0000
  O   O15       1.0  0.65608  0.74300  0.67538  1.0000
  O   O16       1.0  0.84392  0.24300  0.82462  1.0000
