data_image0
_chemical_formula_structural       Li2H10C4N12O6
_chemical_formula_sum              "Li2 H10 C4 N12 O6"
_cell_length_a       3.52329
_cell_length_b       7.2841
_cell_length_c       12.3123
_cell_angle_alpha    89.9996
_cell_angle_beta     89.9999
_cell_angle_gamma    92.2205

_space_group_name_H-M_alt    "P 1"
_space_group_IT_number       1

loop_
  _space_group_symop_operation_xyz
  'x, y, z'

loop_
  _atom_site_type_symbol
  _atom_site_label
  _atom_site_symmetry_multiplicity
  _atom_site_fract_x
  _atom_site_fract_y
  _atom_site_fract_z
  _atom_site_occupancy
  Li  Li1       1.0  0.50308  0.50705  0.45264  1.0000
  Li  Li2       1.0  0.49692  0.49296  0.95264  1.0000
  H   H1        1.0  0.98656  0.76666  0.46907  1.0000
  H   H2        1.0  0.01344  0.23334  0.96906  1.0000
  H   H3        1.0  0.15827  0.84449  0.69651  1.0000
  H   H4        1.0  0.84173  0.15551  0.19650  1.0000
  H   H5        1.0  0.77020  0.91543  0.77698  1.0000
  H   H6        1.0  0.22981  0.08457  0.27698  1.0000
  H   H7        1.0  0.19459  0.05619  0.77088  1.0000
  H   H8        1.0  0.80540  0.94381  0.27088  1.0000
  H   H9        1.0  0.07744  0.68085  0.35258  1.0000
  H   H10       1.0  0.92257  0.31915  0.85258  1.0000
  C   C1        1.0  0.72888  0.23124  0.62252  1.0000
  C   C2        1.0  0.27112  0.76875  0.12253  1.0000
  C   C3        1.0  0.00474  0.96331  0.72450  1.0000
  C   C4        1.0  0.99526  0.03669  0.22450  1.0000
  N   N1        1.0  0.86528  0.05910  0.62995  1.0000
  N   N2        1.0  0.13471  0.94091  0.12995  1.0000
  N   N3        1.0  0.84832  0.98217  0.53005  1.0000
  N   N4        1.0  0.15168  0.01783  0.03005  1.0000
  N   N5        1.0  0.70775  0.10133  0.46443  1.0000
  N   N6        1.0  0.29225  0.89867  0.96443  1.0000
  N   N7        1.0  0.63008  0.25767  0.51792  1.0000
  N   N8        1.0  0.36992  0.74234  0.01792  1.0000
  N   N9        1.0  0.71039  0.33456  0.71437  1.0000
  N   N10       1.0  0.28961  0.66544  0.21437  1.0000
  N   N11       1.0  0.56577  0.50118  0.70627  1.0000
  N   N12       1.0  0.43423  0.49882  0.20627  1.0000
  O   O1        1.0  0.46587  0.57131  0.61763  1.0000
  O   O2        1.0  0.53414  0.42870  0.11764  1.0000
  O   O3        1.0  0.52960  0.58795  0.79398  1.0000
  O   O4        1.0  0.47040  0.41204  0.29399  1.0000
  O   O5        1.0  0.01162  0.64949  0.42893  1.0000
  O   O6        1.0  0.98837  0.35052  0.92893  1.0000
