data_image0
_chemical_formula_structural       Cs4H12C8N24O8
_chemical_formula_sum              "Cs4 H12 C8 N24 O8"
_cell_length_a       6.40825
_cell_length_b       8.31471
_cell_length_c       13.7062
_cell_angle_alpha    90.0001
_cell_angle_beta     89.9997
_cell_angle_gamma    98.8385

_space_group_name_H-M_alt    "P 1"
_space_group_IT_number       1

loop_
  _space_group_symop_operation_xyz
  'x, y, z'

loop_
  _atom_site_type_symbol
  _atom_site_label
  _atom_site_symmetry_multiplicity
  _atom_site_fract_x
  _atom_site_fract_y
  _atom_site_fract_z
  _atom_site_occupancy
  Cs  Cs1       1.0  0.85510  0.59300  0.18663  1.0000
  Cs  Cs2       1.0  0.64490  0.90700  0.68663  1.0000
  Cs  Cs3       1.0  0.14490  0.40700  0.81337  1.0000
  Cs  Cs4       1.0  0.35510  0.09300  0.31337  1.0000
  H   H1        1.0  0.72574  0.03127  0.15337  1.0000
  H   H2        1.0  0.77426  0.46873  0.65337  1.0000
  H   H3        1.0  0.27426  0.96873  0.84663  1.0000
  H   H4        1.0  0.22574  0.53127  0.34663  1.0000
  H   H5        1.0  0.90239  0.21973  0.14913  1.0000
  H   H6        1.0  0.59761  0.28027  0.64913  1.0000
  H   H7        1.0  0.09761  0.78026  0.85087  1.0000
  H   H8        1.0  0.40239  0.71973  0.35087  1.0000
  H   H9        1.0  0.96100  0.04724  0.08225  1.0000
  H   H10       1.0  0.53900  0.45276  0.58225  1.0000
  H   H11       1.0  0.03899  0.95276  0.91775  1.0000
  H   H12       1.0  0.46100  0.54724  0.41775  1.0000
  C   C1        1.0  0.55405  0.24056  0.01844  1.0000
  C   C2        1.0  0.94595  0.25944  0.51844  1.0000
  C   C3        1.0  0.44595  0.75944  0.98156  1.0000
  C   C4        1.0  0.05405  0.74056  0.48156  1.0000
  C   C5        1.0  0.83469  0.11212  0.10713  1.0000
  C   C6        1.0  0.66531  0.38788  0.60713  1.0000
  C   C7        1.0  0.16531  0.88788  0.89287  1.0000
  C   C8        1.0  0.33469  0.61212  0.39287  1.0000
  N   N1        1.0  0.48213  0.28880  0.10553  1.0000
  N   N2        1.0  0.01787  0.21120  0.60553  1.0000
  N   N3        1.0  0.51787  0.71120  0.89447  1.0000
  N   N4        1.0  0.98213  0.78880  0.39447  1.0000
  N   N5        1.0  0.50103  0.25240  0.92383  1.0000
  N   N6        1.0  0.99897  0.24760  0.42382  1.0000
  N   N7        1.0  0.49897  0.74760  0.07617  1.0000
  N   N8        1.0  0.00103  0.75240  0.57618  1.0000
  N   N9        1.0  0.77473  0.12204  0.93052  1.0000
  N   N10       1.0  0.72528  0.37797  0.43053  1.0000
  N   N11       1.0  0.22527  0.87797  0.06947  1.0000
  N   N12       1.0  0.27472  0.62203  0.56948  1.0000
  N   N13       1.0  0.31015  0.36043  0.10653  1.0000
  N   N14       1.0  0.18985  0.13957  0.60652  1.0000
  N   N15       1.0  0.68985  0.63957  0.89347  1.0000
  N   N16       1.0  0.81015  0.86043  0.39348  1.0000
  N   N17       1.0  0.72380  0.15942  0.02214  1.0000
  N   N18       1.0  0.77619  0.34058  0.52214  1.0000
  N   N19       1.0  0.27619  0.84058  0.97786  1.0000
  N   N20       1.0  0.22381  0.65942  0.47786  1.0000
  N   N21       1.0  0.64067  0.17828  0.87286  1.0000
  N   N22       1.0  0.85933  0.32172  0.37286  1.0000
  N   N23       1.0  0.35933  0.82172  0.12714  1.0000
  N   N24       1.0  0.14067  0.67828  0.62714  1.0000
  O   O1        1.0  0.24927  0.39693  0.19094  1.0000
  O   O2        1.0  0.25073  0.10307  0.69094  1.0000
  O   O3        1.0  0.75073  0.60307  0.80906  1.0000
  O   O4        1.0  0.74927  0.89693  0.30906  1.0000
  O   O5        1.0  0.20969  0.39004  0.03130  1.0000
  O   O6        1.0  0.29032  0.10996  0.53130  1.0000
  O   O7        1.0  0.79032  0.60996  0.96870  1.0000
  O   O8        1.0  0.70969  0.89004  0.46870  1.0000
