data_image0
_chemical_formula_structural       K4H12C8N24O8
_chemical_formula_sum              "K4 H12 C8 N24 O8"
_cell_length_a       3.68954
_cell_length_b       8.72291
_cell_length_c       19.8872
_cell_angle_alpha    90.0001
_cell_angle_beta     95.5658
_cell_angle_gamma    89.9998

_space_group_name_H-M_alt    "P 1"
_space_group_IT_number       1

loop_
  _space_group_symop_operation_xyz
  'x, y, z'

loop_
  _atom_site_type_symbol
  _atom_site_label
  _atom_site_symmetry_multiplicity
  _atom_site_fract_x
  _atom_site_fract_y
  _atom_site_fract_z
  _atom_site_occupancy
  K   K1        1.0  0.10495  0.16247  0.27477  1.0000
  K   K2        1.0  0.89505  0.66248  0.22523  1.0000
  K   K3        1.0  0.89505  0.83752  0.72523  1.0000
  K   K4        1.0  0.10494  0.33752  0.77477  1.0000
  H   H1        1.0  0.04819  0.85639  0.51924  1.0000
  H   H2        1.0  0.95181  0.35639  0.98076  1.0000
  H   H3        1.0  0.95180  0.14361  0.48076  1.0000
  H   H4        1.0  0.04819  0.64361  0.01924  1.0000
  H   H5        1.0  0.66788  0.74959  0.54304  1.0000
  H   H6        1.0  0.33211  0.24959  0.95696  1.0000
  H   H7        1.0  0.33211  0.25041  0.45696  1.0000
  H   H8        1.0  0.66789  0.75041  0.04304  1.0000
  H   H9        1.0  0.01896  0.65315  0.50405  1.0000
  H   H10       1.0  0.98105  0.15315  0.99595  1.0000
  H   H11       1.0  0.98104  0.34685  0.49595  1.0000
  H   H12       1.0  0.01896  0.84685  0.00405  1.0000
  C   C1        1.0  0.57362  0.68633  0.38874  1.0000
  C   C2        1.0  0.42638  0.18634  0.11126  1.0000
  C   C3        1.0  0.42636  0.31367  0.61126  1.0000
  C   C4        1.0  0.57363  0.81367  0.88874  1.0000
  C   C5        1.0  0.86567  0.76012  0.50553  1.0000
  C   C6        1.0  0.13434  0.26012  0.99447  1.0000
  C   C7        1.0  0.13432  0.23988  0.49447  1.0000
  C   C8        1.0  0.86567  0.73988  0.00553  1.0000
  N   N1        1.0  0.56028  0.43704  0.35176  1.0000
  N   N2        1.0  0.43972  0.93704  0.14824  1.0000
  N   N3        1.0  0.43971  0.56296  0.64824  1.0000
  N   N4        1.0  0.56028  0.06296  0.85176  1.0000
  N   N5        1.0  0.41201  0.91520  0.35743  1.0000
  N   N6        1.0  0.58800  0.41520  0.14257  1.0000
  N   N7        1.0  0.58800  0.08480  0.64257  1.0000
  N   N8        1.0  0.41201  0.58480  0.85743  1.0000
  N   N9        1.0  0.57288  0.92994  0.41835  1.0000
  N   N10       1.0  0.42712  0.42994  0.08165  1.0000
  N   N11       1.0  0.42712  0.07006  0.58165  1.0000
  N   N12       1.0  0.57288  0.57006  0.91835  1.0000
  N   N13       1.0  0.40491  0.76664  0.33676  1.0000
  N   N14       1.0  0.59509  0.26664  0.16324  1.0000
  N   N15       1.0  0.59509  0.23336  0.66324  1.0000
  N   N16       1.0  0.40491  0.73336  0.83676  1.0000
  N   N17       1.0  0.66390  0.53608  0.39954  1.0000
  N   N18       1.0  0.33611  0.03608  0.10046  1.0000
  N   N19       1.0  0.33609  0.46392  0.60046  1.0000
  N   N20       1.0  0.66390  0.96392  0.89954  1.0000
  N   N21       1.0  0.67794  0.78844  0.43902  1.0000
  N   N22       1.0  0.32207  0.28844  0.06098  1.0000
  N   N23       1.0  0.32206  0.21156  0.56098  1.0000
  N   N24       1.0  0.67794  0.71156  0.93902  1.0000
  O   O1        1.0  0.65540  0.29824  0.36258  1.0000
  O   O2        1.0  0.34460  0.79824  0.13742  1.0000
  O   O3        1.0  0.34460  0.70176  0.63743  1.0000
  O   O4        1.0  0.65540  0.20176  0.86258  1.0000
  O   O5        1.0  0.37258  0.47174  0.29647  1.0000
  O   O6        1.0  0.62741  0.97174  0.20353  1.0000
  O   O7        1.0  0.62742  0.52826  0.70353  1.0000
  O   O8        1.0  0.37258  0.02826  0.79647  1.0000
