data_image0
_chemical_formula_structural       Cu2H24C48N12Cl4O12
_chemical_formula_sum              "Cu2 H24 C48 N12 Cl4 O12"
_cell_length_a       11.7841
_cell_length_b       11.7842
_cell_length_c       12.6887
_cell_angle_alpha    103.648
_cell_angle_beta     103.647
_cell_angle_gamma    104.152

_space_group_name_H-M_alt    "P 1"
_space_group_IT_number       1

loop_
  _space_group_symop_operation_xyz
  'x, y, z'

loop_
  _atom_site_type_symbol
  _atom_site_label
  _atom_site_symmetry_multiplicity
  _atom_site_fract_x
  _atom_site_fract_y
  _atom_site_fract_z
  _atom_site_occupancy
  Cu  Cu1       1.0  0.43732  0.56268  0.75000  1.0000
  Cu  Cu2       1.0  0.56268  0.43732  0.25000  1.0000
  H   H1        1.0  0.71083  0.17670  0.95776  1.0000
  H   H2        1.0  0.82330  0.28916  0.54223  1.0000
  H   H3        1.0  0.28918  0.82331  0.04224  1.0000
  H   H4        1.0  0.17670  0.71083  0.45777  1.0000
  H   H5        1.0  0.62793  0.79357  0.93626  1.0000
  H   H6        1.0  0.20642  0.37207  0.56375  1.0000
  H   H7        1.0  0.37207  0.20642  0.06374  1.0000
  H   H8        1.0  0.79358  0.62793  0.43625  1.0000
  H   H9        1.0  0.56891  0.63978  0.58894  1.0000
  H   H10       1.0  0.36021  0.43110  0.91106  1.0000
  H   H11       1.0  0.43110  0.36020  0.41106  1.0000
  H   H12       1.0  0.63980  0.56891  0.08894  1.0000
  H   H13       1.0  0.57520  0.97358  0.57686  1.0000
  H   H14       1.0  0.02642  0.42479  0.92314  1.0000
  H   H15       1.0  0.42479  0.02641  0.42314  1.0000
  H   H16       1.0  0.97360  0.57522  0.07686  1.0000
  H   H17       1.0  0.46502  0.34431  0.57850  1.0000
  H   H18       1.0  0.65569  0.53497  0.92148  1.0000
  H   H19       1.0  0.53496  0.65570  0.42150  1.0000
  H   H20       1.0  0.34431  0.46504  0.07850  1.0000
  H   H21       1.0  0.93460  0.96772  0.55911  1.0000
  H   H22       1.0  0.03228  0.06541  0.94090  1.0000
  H   H23       1.0  0.06540  0.03228  0.44090  1.0000
  H   H24       1.0  0.96773  0.93460  0.05910  1.0000
  C   C1        1.0  0.80386  0.19679  0.95161  1.0000
  C   C2        1.0  0.80321  0.19613  0.54838  1.0000
  C   C3        1.0  0.19614  0.80321  0.04838  1.0000
  C   C4        1.0  0.19680  0.80387  0.45163  1.0000
  C   C5        1.0  0.86647  0.11108  0.95187  1.0000
  C   C6        1.0  0.88893  0.13352  0.54813  1.0000
  C   C7        1.0  0.13353  0.88892  0.04812  1.0000
  C   C8        1.0  0.11108  0.86648  0.45188  1.0000
  C   C9        1.0  0.74173  0.90484  0.85954  1.0000
  C   C10       1.0  0.09516  0.25826  0.64047  1.0000
  C   C11       1.0  0.25827  0.09516  0.14047  1.0000
  C   C12       1.0  0.90485  0.74175  0.35953  1.0000
  C   C13       1.0  0.65330  0.80143  0.86057  1.0000
  C   C14       1.0  0.19857  0.34670  0.63943  1.0000
  C   C15       1.0  0.34671  0.19857  0.13944  1.0000
  C   C16       1.0  0.80142  0.65329  0.36057  1.0000
  C   C17       1.0  0.61898  0.71642  0.66656  1.0000
  C   C18       1.0  0.28357  0.38103  0.83344  1.0000
  C   C19       1.0  0.38103  0.28356  0.33344  1.0000
  C   C20       1.0  0.71642  0.61897  0.16655  1.0000
  C   C21       1.0  0.70356  0.82461  0.66975  1.0000
  C   C22       1.0  0.17538  0.29644  0.83026  1.0000
  C   C23       1.0  0.29644  0.17538  0.33025  1.0000
  C   C24       1.0  0.82463  0.70357  0.16975  1.0000
  C   C25       1.0  0.75128  0.95820  0.56464  1.0000
  C   C26       1.0  0.04180  0.24872  0.93537  1.0000
  C   C27       1.0  0.24871  0.04180  0.43537  1.0000
  C   C28       1.0  0.95821  0.75129  0.06463  1.0000
  C   C29       1.0  0.66291  0.01800  0.56728  1.0000
  C   C30       1.0  0.98200  0.33709  0.93272  1.0000
  C   C31       1.0  0.33708  0.98200  0.43272  1.0000
  C   C32       1.0  0.01801  0.66292  0.06727  1.0000
  C   C33       1.0  0.69089  0.13632  0.55900  1.0000
  C   C34       1.0  0.86367  0.30910  0.94099  1.0000
  C   C35       1.0  0.30910  0.86367  0.44100  1.0000
  C   C36       1.0  0.13633  0.69090  0.05900  1.0000
  C   C37       1.0  0.61640  0.28342  0.65598  1.0000
  C   C38       1.0  0.71657  0.38358  0.84401  1.0000
  C   C39       1.0  0.38359  0.71657  0.34402  1.0000
  C   C40       1.0  0.28343  0.61641  0.15598  1.0000
  C   C41       1.0  0.53859  0.35624  0.65430  1.0000
  C   C42       1.0  0.64375  0.46140  0.84569  1.0000
  C   C43       1.0  0.46140  0.64375  0.34569  1.0000
  C   C44       1.0  0.35625  0.53860  0.15431  1.0000
  C   C45       1.0  0.86538  0.01431  0.55573  1.0000
  C   C46       1.0  0.98569  0.13462  0.94428  1.0000
  C   C47       1.0  0.13461  0.98569  0.44428  1.0000
  C   C48       1.0  0.01431  0.86539  0.05572  1.0000
  N   N1        1.0  0.59187  0.70964  0.76258  1.0000
  N   N2        1.0  0.29036  0.40813  0.73743  1.0000
  N   N3        1.0  0.40814  0.29035  0.23743  1.0000
  N   N4        1.0  0.70965  0.59186  0.26256  1.0000
  N   N5        1.0  0.76434  0.91787  0.76498  1.0000
  N   N6        1.0  0.08213  0.23566  0.73502  1.0000
  N   N7        1.0  0.23567  0.08212  0.23502  1.0000
  N   N8        1.0  0.91787  0.76435  0.26498  1.0000
  N   N9        1.0  0.70358  0.29640  0.75000  1.0000
  N   N10       1.0  0.29640  0.70359  0.25000  1.0000
  N   N11       1.0  0.55543  0.44456  0.74999  1.0000
  N   N12       1.0  0.44457  0.55543  0.25000  1.0000
  Cl  Cl1       1.0  0.44922  0.65212  0.93613  1.0000
  Cl  Cl2       1.0  0.34788  0.55077  0.56388  1.0000
  Cl  Cl3       1.0  0.55076  0.34789  0.06387  1.0000
  Cl  Cl4       1.0  0.65212  0.44924  0.43613  1.0000
  O   O1        1.0  0.80479  0.99676  0.96057  1.0000
  O   O2        1.0  0.00324  0.19520  0.53944  1.0000
  O   O3        1.0  0.19522  0.00325  0.03943  1.0000
  O   O4        1.0  0.99675  0.80479  0.46057  1.0000
  O   O5        1.0  0.72329  0.83719  0.57017  1.0000
  O   O6        1.0  0.16281  0.27671  0.92984  1.0000
  O   O7        1.0  0.27671  0.16280  0.42983  1.0000
  O   O8        1.0  0.83720  0.72330  0.07016  1.0000
  O   O9        1.0  0.60102  0.19550  0.55754  1.0000
  O   O10       1.0  0.80449  0.39897  0.94245  1.0000
  O   O11       1.0  0.39897  0.80450  0.44246  1.0000
  O   O12       1.0  0.19551  0.60104  0.05754  1.0000
