data_image0
_chemical_formula_structural       Zn2H24C48I4N12O12
_chemical_formula_sum              "Zn2 H24 C48 I4 N12 O12"
_cell_length_a       9.74156
_cell_length_b       12.5904
_cell_length_c       12.7233
_cell_angle_alpha    101.643
_cell_angle_beta     94.3795
_cell_angle_gamma    107.215

_space_group_name_H-M_alt    "P 1"
_space_group_IT_number       1

loop_
  _space_group_symop_operation_xyz
  'x, y, z'

loop_
  _atom_site_type_symbol
  _atom_site_label
  _atom_site_symmetry_multiplicity
  _atom_site_fract_x
  _atom_site_fract_y
  _atom_site_fract_z
  _atom_site_occupancy
  Zn  Zn1       1.0  0.91008  0.66599  0.05175  1.0000
  Zn  Zn2       1.0  0.08992  0.33401  0.94825  1.0000
  H   H1        1.0  0.03708  0.86516  0.25150  1.0000
  H   H2        1.0  0.96292  0.13485  0.74850  1.0000
  H   H3        1.0  0.65317  0.74975  0.03163  1.0000
  H   H4        1.0  0.34685  0.25025  0.96836  1.0000
  H   H5        1.0  0.59906  0.31955  0.76395  1.0000
  H   H6        1.0  0.40095  0.68045  0.23606  1.0000
  H   H7        1.0  0.20259  0.16437  0.55827  1.0000
  H   H8        1.0  0.79741  0.83563  0.44173  1.0000
  H   H9        1.0  0.05375  0.58904  0.23239  1.0000
  H   H10       1.0  0.94624  0.41096  0.76761  1.0000
  H   H11       1.0  0.63885  0.47787  0.05186  1.0000
  H   H12       1.0  0.36114  0.52212  0.94813  1.0000
  H   H13       1.0  0.83034  0.08071  0.52965  1.0000
  H   H14       1.0  0.16966  0.91930  0.47035  1.0000
  H   H15       1.0  0.84260  0.41979  0.50262  1.0000
  H   H16       1.0  0.15739  0.58021  0.49738  1.0000
  H   H17       1.0  0.04508  0.22655  0.28160  1.0000
  H   H18       1.0  0.95492  0.77345  0.71840  1.0000
  H   H19       1.0  0.41035  0.92795  0.28797  1.0000
  H   H20       1.0  0.58966  0.07205  0.71203  1.0000
  H   H21       1.0  0.39496  0.26854  0.29205  1.0000
  H   H22       1.0  0.60504  0.73146  0.70795  1.0000
  H   H23       1.0  0.62239  0.11212  0.06187  1.0000
  H   H24       1.0  0.37760  0.88787  0.93813  1.0000
  C   C1        1.0  0.89036  0.96815  0.27654  1.0000
  C   C2        1.0  0.10965  0.03185  0.72346  1.0000
  C   C3        1.0  0.93395  0.87632  0.22597  1.0000
  C   C4        1.0  0.06606  0.12369  0.77404  1.0000
  C   C5        1.0  0.72099  0.81212  0.10280  1.0000
  C   C6        1.0  0.27901  0.18788  0.89719  1.0000
  C   C7        1.0  0.68296  0.90566  0.15695  1.0000
  C   C8        1.0  0.31705  0.09434  0.84305  1.0000
  C   C9        1.0  0.53869  0.27127  0.68433  1.0000
  C   C10       1.0  0.46131  0.72873  0.31567  1.0000
  C   C11       1.0  0.61009  0.23865  0.59741  1.0000
  C   C12       1.0  0.38991  0.76135  0.40259  1.0000
  C   C13       1.0  0.39567  0.15548  0.48636  1.0000
  C   C14       1.0  0.60433  0.84452  0.51364  1.0000
  C   C15       1.0  0.32054  0.18589  0.57099  1.0000
  C   C16       1.0  0.67946  0.81411  0.42901  1.0000
  C   C17       1.0  0.94399  0.52863  0.21451  1.0000
  C   C18       1.0  0.05601  0.47137  0.78549  1.0000
  C   C19       1.0  0.89906  0.43597  0.26316  1.0000
  C   C20       1.0  0.10094  0.56403  0.73684  1.0000
  C   C21       1.0  0.67632  0.37373  0.16257  1.0000
  C   C22       1.0  0.32368  0.62627  0.83743  1.0000
  C   C23       1.0  0.71325  0.46666  0.11383  1.0000
  C   C24       1.0  0.28674  0.53334  0.88617  1.0000
  C   C25       1.0  0.94134  0.14445  0.40272  1.0000
  C   C26       1.0  0.05866  0.85556  0.59728  1.0000
  C   C27       1.0  0.86500  0.15175  0.49073  1.0000
  C   C28       1.0  0.13500  0.84825  0.50927  1.0000
  C   C29       1.0  0.83026  0.25184  0.52479  1.0000
  C   C30       1.0  0.16974  0.74816  0.47521  1.0000
  C   C31       1.0  0.87065  0.34248  0.47446  1.0000
  C   C32       1.0  0.12935  0.65753  0.52554  1.0000
  C   C33       1.0  0.94817  0.33137  0.38765  1.0000
  C   C34       1.0  0.05183  0.66863  0.61235  1.0000
  C   C35       1.0  0.98565  0.23345  0.35049  1.0000
  C   C36       1.0  0.01435  0.76655  0.64951  1.0000
  C   C37       1.0  0.51790  0.01086  0.16978  1.0000
  C   C38       1.0  0.48210  0.98913  0.83022  1.0000
  C   C39       1.0  0.43826  0.00406  0.25584  1.0000
  C   C40       1.0  0.56174  0.99594  0.74417  1.0000
  C   C41       1.0  0.39692  0.09823  0.29933  1.0000
  C   C42       1.0  0.60308  0.90177  0.70067  1.0000
  C   C43       1.0  0.42978  0.19587  0.25821  1.0000
  C   C44       1.0  0.57021  0.80413  0.74179  1.0000
  C   C45       1.0  0.51086  0.19838  0.17310  1.0000
  C   C46       1.0  0.48914  0.80161  0.82690  1.0000
  C   C47       1.0  0.55691  0.10708  0.12742  1.0000
  C   C48       1.0  0.44309  0.89291  0.87257  1.0000
  I   I1        1.0  0.18485  0.74377  0.07392  1.0000
  I   I2        1.0  0.81515  0.25623  0.92608  1.0000
  I   I3        1.0  0.75104  0.58952  0.86614  1.0000
  I   I4        1.0  0.24896  0.41048  0.13387  1.0000
  N   N1        1.0  0.84709  0.80068  0.13874  1.0000
  N   N2        1.0  0.15292  0.19933  0.86126  1.0000
  N   N3        1.0  0.76731  0.98344  0.24150  1.0000
  N   N4        1.0  0.23269  0.01656  0.75850  1.0000
  N   N5        1.0  0.53946  0.18180  0.49935  1.0000
  N   N6        1.0  0.46054  0.81820  0.50065  1.0000
  N   N7        1.0  0.39387  0.24387  0.66920  1.0000
  N   N8        1.0  0.60614  0.75613  0.33080  1.0000
  N   N9        1.0  0.76716  0.35960  0.23759  1.0000
  N   N10       1.0  0.23283  0.64040  0.76241  1.0000
  N   N11       1.0  0.84764  0.54169  0.14089  1.0000
  N   N12       1.0  0.15235  0.45830  0.85911  1.0000
  O   O1        1.0  0.97727  0.04419  0.36605  1.0000
  O   O2        1.0  0.02273  0.95581  0.63395  1.0000
  O   O3        1.0  0.55395  0.91456  0.11984  1.0000
  O   O4        1.0  0.44605  0.08543  0.88017  1.0000
  O   O5        1.0  0.75815  0.26506  0.61558  1.0000
  O   O6        1.0  0.24185  0.73494  0.38442  1.0000
  O   O7        1.0  0.31768  0.09524  0.38693  1.0000
  O   O8        1.0  0.68232  0.90476  0.61307  1.0000
  O   O9        1.0  0.99613  0.42382  0.33899  1.0000
  O   O10       1.0  0.00387  0.57618  0.66101  1.0000
  O   O11       1.0  0.54267  0.29513  0.12936  1.0000
  O   O12       1.0  0.45733  0.70486  0.87063  1.0000
