data_image0
_chemical_formula_structural       Zn2H24C48N16O24
_chemical_formula_sum              "Zn2 H24 C48 N16 O24"
_cell_length_a       8.9349
_cell_length_b       12.4619
_cell_length_c       13.1821
_cell_angle_alpha    101.439
_cell_angle_beta     92.6848
_cell_angle_gamma    102.055

_space_group_name_H-M_alt    "P 1"
_space_group_IT_number       1

loop_
  _space_group_symop_operation_xyz
  'x, y, z'

loop_
  _atom_site_type_symbol
  _atom_site_label
  _atom_site_symmetry_multiplicity
  _atom_site_fract_x
  _atom_site_fract_y
  _atom_site_fract_z
  _atom_site_occupancy
  Zn  Zn1       1.0  0.39887  0.65168  0.55747  1.0000
  Zn  Zn2       1.0  0.60113  0.34832  0.44253  1.0000
  H   H1        1.0  0.14203  0.76628  0.52392  1.0000
  H   H2        1.0  0.85796  0.23371  0.47608  1.0000
  H   H3        1.0  0.53954  0.84412  0.72942  1.0000
  H   H4        1.0  0.46046  0.15588  0.27058  1.0000
  H   H5        1.0  0.11592  0.50511  0.59016  1.0000
  H   H6        1.0  0.88408  0.49489  0.40984  1.0000
  H   H7        1.0  0.56093  0.57941  0.73973  1.0000
  H   H8        1.0  0.43908  0.42059  0.26026  1.0000
  H   H9        1.0  0.09259  0.30068  0.26582  1.0000
  H   H10       1.0  0.90742  0.69931  0.73418  1.0000
  H   H11       1.0  0.67613  0.17486  0.08037  1.0000
  H   H12       1.0  0.32387  0.82513  0.91963  1.0000
  H   H13       1.0  0.09167  0.14365  0.57377  1.0000
  H   H14       1.0  0.90833  0.85635  0.42623  1.0000
  H   H15       1.0  0.87858  0.29441  0.83527  1.0000
  H   H16       1.0  0.12141  0.70560  0.16472  1.0000
  H   H17       1.0  0.89208  0.94254  0.78625  1.0000
  H   H18       1.0  0.10792  0.05746  0.21375  1.0000
  H   H19       1.0  0.33668  0.06293  0.01029  1.0000
  H   H20       1.0  0.66331  0.93707  0.98971  1.0000
  H   H21       1.0  0.35551  0.41320  0.01611  1.0000
  H   H22       1.0  0.64449  0.58681  0.98388  1.0000
  H   H23       1.0  0.54621  0.21692  0.76848  1.0000
  H   H24       1.0  0.45379  0.78308  0.23152  1.0000
  C   C1        1.0  0.17135  0.91878  0.64572  1.0000
  C   C2        1.0  0.82864  0.08122  0.35429  1.0000
  C   C3        1.0  0.21295  0.82252  0.59050  1.0000
  C   C4        1.0  0.78705  0.17748  0.40950  1.0000
  C   C5        1.0  0.43399  0.86615  0.70521  1.0000
  C   C6        1.0  0.56602  0.13385  0.29479  1.0000
  C   C7        1.0  0.38742  0.96179  0.75608  1.0000
  C   C8        1.0  0.61258  0.03821  0.24393  1.0000
  C   C9        1.0  0.15967  0.39565  0.69278  1.0000
  C   C10       1.0  0.84033  0.60435  0.30722  1.0000
  C   C11       1.0  0.19754  0.48696  0.64449  1.0000
  C   C12       1.0  0.80246  0.51304  0.35551  1.0000
  C   C13       1.0  0.44459  0.52802  0.72800  1.0000
  C   C14       1.0  0.55542  0.47198  0.27200  1.0000
  C   C15       1.0  0.39796  0.43821  0.77715  1.0000
  C   C16       1.0  0.60204  0.56179  0.22285  1.0000
  C   C17       1.0  0.88319  0.16215  0.00260  1.0000
  C   C18       1.0  0.11681  0.83785  0.99740  1.0000
  C   C19       1.0  0.10856  0.23036  0.10245  1.0000
  C   C20       1.0  0.89145  0.76965  0.89754  1.0000
  C   C21       1.0  0.03065  0.26025  0.19039  1.0000
  C   C22       1.0  0.96935  0.73975  0.80962  1.0000
  C   C23       1.0  0.80136  0.19070  0.08810  1.0000
  C   C24       1.0  0.19863  0.80930  0.91190  1.0000
  C   C25       1.0  0.99458  0.03463  0.67448  1.0000
  C   C26       1.0  0.00542  0.96537  0.32552  1.0000
  C   C27       1.0  0.03096  0.13578  0.64246  1.0000
  C   C28       1.0  0.96903  0.86422  0.35754  1.0000
  C   C29       1.0  0.98765  0.22762  0.70216  1.0000
  C   C30       1.0  0.01235  0.77238  0.29785  1.0000
  C   C31       1.0  0.91143  0.22093  0.79076  1.0000
  C   C32       1.0  0.08856  0.77907  0.20924  1.0000
  C   C33       1.0  0.87917  0.11762  0.82009  1.0000
  C   C34       1.0  0.12083  0.88238  0.17991  1.0000
  C   C35       1.0  0.91752  0.02262  0.76235  1.0000
  C   C36       1.0  0.08248  0.97739  0.23765  1.0000
  C   C37       1.0  0.44395  0.12997  0.88516  1.0000
  C   C38       1.0  0.55605  0.87003  0.11484  1.0000
  C   C39       1.0  0.37099  0.13625  0.97649  1.0000
  C   C40       1.0  0.62901  0.86375  0.02352  1.0000
  C   C41       1.0  0.33946  0.23917  0.02159  1.0000
  C   C42       1.0  0.66054  0.76083  0.97841  1.0000
  C   C43       1.0  0.38155  0.33379  0.97949  1.0000
  C   C44       1.0  0.61845  0.66621  0.02051  1.0000
  C   C45       1.0  0.45517  0.32301  0.88854  1.0000
  C   C46       1.0  0.54483  0.67699  0.11146  1.0000
  C   C47       1.0  0.48847  0.22215  0.83975  1.0000
  C   C48       1.0  0.51153  0.77785  0.16025  1.0000
  N   N1        1.0  0.25842  0.98822  0.72647  1.0000
  N   N2        1.0  0.74158  0.01178  0.27354  1.0000
  N   N3        1.0  0.34489  0.79904  0.62238  1.0000
  N   N4        1.0  0.65511  0.20096  0.37763  1.0000
  N   N5        1.0  0.34139  0.54942  0.66147  1.0000
  N   N6        1.0  0.65861  0.45057  0.33853  1.0000
  N   N7        1.0  0.25815  0.37189  0.75866  1.0000
  N   N8        1.0  0.74185  0.62811  0.24135  1.0000
  N   N9        1.0  0.87712  0.23957  0.18140  1.0000
  N   N10       1.0  0.12288  0.76042  0.81860  1.0000
  N   N11       1.0  0.03567  0.18212  0.00938  1.0000
  N   N12       1.0  0.96433  0.81788  0.99062  1.0000
  N   N13       1.0  0.70775  0.69644  0.56412  1.0000
  N   N14       1.0  0.29225  0.30356  0.43587  1.0000
  N   N15       1.0  0.26254  0.59444  0.35477  1.0000
  N   N16       1.0  0.73746  0.40555  0.64522  1.0000
  O   O1        1.0  0.03630  0.94074  0.61445  1.0000
  O   O2        1.0  0.96370  0.05926  0.38555  1.0000
  O   O3        1.0  0.47933  0.02732  0.84002  1.0000
  O   O4        1.0  0.52066  0.97268  0.15998  1.0000
  O   O5        1.0  0.26595  0.25033  0.11363  1.0000
  O   O6        1.0  0.73405  0.74967  0.88637  1.0000
  O   O7        1.0  0.80209  0.10862  0.90905  1.0000
  O   O8        1.0  0.19790  0.89138  0.09095  1.0000
  O   O9        1.0  0.50157  0.41831  0.84616  1.0000
  O   O10       1.0  0.49844  0.58169  0.15384  1.0000
  O   O11       1.0  0.01676  0.32924  0.66857  1.0000
  O   O12       1.0  0.98324  0.67076  0.33143  1.0000
  O   O13       1.0  0.84225  0.70892  0.54254  1.0000
  O   O14       1.0  0.15775  0.29109  0.45746  1.0000
  O   O15       1.0  0.59595  0.65392  0.48959  1.0000
  O   O16       1.0  0.40405  0.34608  0.51041  1.0000
  O   O17       1.0  0.66954  0.72277  0.65537  1.0000
  O   O18       1.0  0.33045  0.27723  0.34462  1.0000
  O   O19       1.0  0.20478  0.53259  0.27080  1.0000
  O   O20       1.0  0.79523  0.46740  0.72920  1.0000
  O   O21       1.0  0.33117  0.69537  0.36590  1.0000
  O   O22       1.0  0.66883  0.30463  0.63410  1.0000
  O   O23       1.0  0.25146  0.55156  0.43939  1.0000
  O   O24       1.0  0.74854  0.44844  0.56061  1.0000
