data_image0
_chemical_formula_structural       Cd4H44C40S8N12O16
_chemical_formula_sum              "Cd4 H44 C40 S8 N12 O16"
_cell_length_a       7.19273
_cell_length_b       9.84752
_cell_length_c       19.0394
_cell_angle_alpha    89.9999
_cell_angle_beta     90.0001
_cell_angle_gamma    101.768

_space_group_name_H-M_alt    "P 1"
_space_group_IT_number       1

loop_
  _space_group_symop_operation_xyz
  'x, y, z'

loop_
  _atom_site_type_symbol
  _atom_site_label
  _atom_site_symmetry_multiplicity
  _atom_site_fract_x
  _atom_site_fract_y
  _atom_site_fract_z
  _atom_site_occupancy
  Cd  Cd1       1.0  0.79913  0.83748  0.18119  1.0000
  Cd  Cd2       1.0  0.29913  0.83748  0.31881  1.0000
  Cd  Cd3       1.0  0.20086  0.16252  0.81881  1.0000
  Cd  Cd4       1.0  0.70087  0.16252  0.68119  1.0000
  H   H1        1.0  0.53946  0.58644  0.19098  1.0000
  H   H2        1.0  0.03946  0.58644  0.30902  1.0000
  H   H3        1.0  0.46054  0.41356  0.80902  1.0000
  H   H4        1.0  0.96053  0.41356  0.69098  1.0000
  H   H5        1.0  0.70879  0.58114  0.24594  1.0000
  H   H6        1.0  0.20878  0.58114  0.25406  1.0000
  H   H7        1.0  0.29121  0.41886  0.75406  1.0000
  H   H8        1.0  0.79121  0.41886  0.74594  1.0000
  H   H9        1.0  0.72061  0.11310  0.99711  1.0000
  H   H10       1.0  0.22060  0.11310  0.50289  1.0000
  H   H11       1.0  0.27940  0.88690  0.00289  1.0000
  H   H12       1.0  0.77940  0.88690  0.49711  1.0000
  H   H13       1.0  0.77793  0.60869  0.07585  1.0000
  H   H14       1.0  0.27793  0.60869  0.42415  1.0000
  H   H15       1.0  0.22207  0.39131  0.92415  1.0000
  H   H16       1.0  0.72208  0.39131  0.57585  1.0000
  H   H17       1.0  0.67870  0.53547  0.95316  1.0000
  H   H18       1.0  0.17870  0.53546  0.54684  1.0000
  H   H19       1.0  0.32130  0.46453  0.04684  1.0000
  H   H20       1.0  0.82130  0.46454  0.45316  1.0000
  H   H21       1.0  0.61276  0.71887  0.86943  1.0000
  H   H22       1.0  0.11275  0.71887  0.63057  1.0000
  H   H23       1.0  0.38724  0.28113  0.13057  1.0000
  H   H24       1.0  0.88724  0.28113  0.36943  1.0000
  H   H25       1.0  0.65652  0.96283  0.91093  1.0000
  H   H26       1.0  0.15651  0.96283  0.58907  1.0000
  H   H27       1.0  0.34348  0.03717  0.08907  1.0000
  H   H28       1.0  0.84349  0.03717  0.41093  1.0000
  H   H29       1.0  0.77346  0.31475  0.04681  1.0000
  H   H30       1.0  0.27346  0.31475  0.45319  1.0000
  H   H31       1.0  0.22654  0.68525  0.95319  1.0000
  H   H32       1.0  0.72654  0.68525  0.54681  1.0000
  H   H33       1.0  0.91712  0.46662  0.14642  1.0000
  H   H34       1.0  0.41712  0.46662  0.35358  1.0000
  H   H35       1.0  0.08288  0.53338  0.85358  1.0000
  H   H36       1.0  0.58288  0.53338  0.64642  1.0000
  H   H37       1.0  0.06925  0.35838  0.24622  1.0000
  H   H38       1.0  0.56925  0.35838  0.25378  1.0000
  H   H39       1.0  0.93075  0.64162  0.75378  1.0000
  H   H40       1.0  0.43075  0.64162  0.74622  1.0000
  H   H41       1.0  0.05114  0.10458  0.24378  1.0000
  H   H42       1.0  0.55114  0.10458  0.25622  1.0000
  H   H43       1.0  0.94886  0.89542  0.75622  1.0000
  H   H44       1.0  0.44886  0.89542  0.74378  1.0000
  C   C1        1.0  0.74977  0.68324  0.03708  1.0000
  C   C2        1.0  0.24978  0.68324  0.46292  1.0000
  C   C3        1.0  0.25023  0.31676  0.96292  1.0000
  C   C4        1.0  0.75023  0.31676  0.53708  1.0000
  C   C5        1.0  0.69371  0.64308  0.96945  1.0000
  C   C6        1.0  0.19371  0.64308  0.53055  1.0000
  C   C7        1.0  0.30629  0.35692  0.03055  1.0000
  C   C8        1.0  0.80629  0.35692  0.46945  1.0000
  C   C9        1.0  0.65751  0.74536  0.92328  1.0000
  C   C10       1.0  0.15751  0.74536  0.57672  1.0000
  C   C11       1.0  0.34249  0.25464  0.07672  1.0000
  C   C12       1.0  0.84249  0.25464  0.42328  1.0000
  C   C13       1.0  0.68137  0.88113  0.94623  1.0000
  C   C14       1.0  0.18137  0.88113  0.55377  1.0000
  C   C15       1.0  0.31863  0.11887  0.05377  1.0000
  C   C16       1.0  0.81863  0.11887  0.44623  1.0000
  C   C17       1.0  0.73909  0.91387  0.01617  1.0000
  C   C18       1.0  0.23909  0.91387  0.48383  1.0000
  C   C19       1.0  0.26092  0.08613  0.98383  1.0000
  C   C20       1.0  0.76092  0.08613  0.51617  1.0000
  C   C21       1.0  0.83506  0.12866  0.09372  1.0000
  C   C22       1.0  0.33506  0.12866  0.40628  1.0000
  C   C23       1.0  0.16494  0.87134  0.90628  1.0000
  C   C24       1.0  0.66494  0.87133  0.59372  1.0000
  C   C25       1.0  0.83539  0.27256  0.09197  1.0000
  C   C26       1.0  0.33539  0.27256  0.40803  1.0000
  C   C27       1.0  0.16461  0.72744  0.90803  1.0000
  C   C28       1.0  0.66461  0.72744  0.59197  1.0000
  C   C29       1.0  0.91656  0.35599  0.14676  1.0000
  C   C30       1.0  0.41656  0.35599  0.35324  1.0000
  C   C31       1.0  0.08344  0.64401  0.85324  1.0000
  C   C32       1.0  0.58344  0.64401  0.64676  1.0000
  C   C33       1.0  0.99947  0.29679  0.20265  1.0000
  C   C34       1.0  0.49946  0.29679  0.29735  1.0000
  C   C35       1.0  0.00053  0.70321  0.79735  1.0000
  C   C36       1.0  0.50053  0.70321  0.70264  1.0000
  C   C37       1.0  0.99078  0.15553  0.20106  1.0000
  C   C38       1.0  0.49078  0.15553  0.29894  1.0000
  C   C39       1.0  0.00922  0.84447  0.79894  1.0000
  C   C40       1.0  0.50922  0.84447  0.70106  1.0000
  S   S1        1.0  0.43823  0.88613  0.19308  1.0000
  S   S2        1.0  0.93823  0.88613  0.30692  1.0000
  S   S3        1.0  0.56177  0.11387  0.80692  1.0000
  S   S4        1.0  0.06177  0.11387  0.69307  1.0000
  S   S5        1.0  0.27036  0.72131  0.13928  1.0000
  S   S6        1.0  0.77035  0.72131  0.36072  1.0000
  S   S7        1.0  0.72964  0.27869  0.86072  1.0000
  S   S8        1.0  0.22965  0.27869  0.63928  1.0000
  N   N1        1.0  0.77125  0.81509  0.06076  1.0000
  N   N2        1.0  0.27125  0.81509  0.43924  1.0000
  N   N3        1.0  0.22875  0.18491  0.93924  1.0000
  N   N4        1.0  0.72875  0.18491  0.56076  1.0000
  N   N5        1.0  0.90762  0.07113  0.14898  1.0000
  N   N6        1.0  0.40762  0.07113  0.35102  1.0000
  N   N7        1.0  0.09238  0.92887  0.85102  1.0000
  N   N8        1.0  0.59238  0.92887  0.64898  1.0000
  N   N9        1.0  0.75774  0.05155  0.03622  1.0000
  N   N10       1.0  0.25774  0.05155  0.46378  1.0000
  N   N11       1.0  0.24226  0.94845  0.96378  1.0000
  N   N12       1.0  0.74226  0.94845  0.53622  1.0000
  O   O1        1.0  0.07215  0.72625  0.15443  1.0000
  O   O2        1.0  0.57215  0.72624  0.34557  1.0000
  O   O3        1.0  0.92785  0.27376  0.84557  1.0000
  O   O4        1.0  0.42785  0.27375  0.65443  1.0000
  O   O5        1.0  0.32331  0.74215  0.06522  1.0000
  O   O6        1.0  0.82331  0.74215  0.43478  1.0000
  O   O7        1.0  0.67669  0.25785  0.93478  1.0000
  O   O8        1.0  0.17669  0.25785  0.56522  1.0000
  O   O9        1.0  0.31426  0.59041  0.16815  1.0000
  O   O10       1.0  0.81426  0.59041  0.33186  1.0000
  O   O11       1.0  0.68574  0.40959  0.83185  1.0000
  O   O12       1.0  0.18574  0.40959  0.66814  1.0000
  O   O13       1.0  0.67935  0.59589  0.19607  1.0000
  O   O14       1.0  0.17935  0.59589  0.30393  1.0000
  O   O15       1.0  0.32065  0.40411  0.80393  1.0000
  O   O16       1.0  0.82065  0.40411  0.69607  1.0000
