data_image0
_chemical_formula_structural       Mn2H20C28O12
_chemical_formula_sum              "Mn2 H20 C28 O12"
_cell_length_a       6.03286
_cell_length_b       7.59266
_cell_length_c       14.4539
_cell_angle_alpha    102.155
_cell_angle_beta     89.9953
_cell_angle_gamma    90.0052

_space_group_name_H-M_alt    "P 1"
_space_group_IT_number       1

loop_
  _space_group_symop_operation_xyz
  'x, y, z'

loop_
  _atom_site_type_symbol
  _atom_site_label
  _atom_site_symmetry_multiplicity
  _atom_site_fract_x
  _atom_site_fract_y
  _atom_site_fract_z
  _atom_site_occupancy
  Mn  Mn1       1.0  0.69550  0.75001  0.49999  1.0000
  Mn  Mn2       1.0  0.30449  0.25000  0.50001  1.0000
  H   H1        1.0  0.02138  0.32624  0.31689  1.0000
  H   H2        1.0  0.02140  0.17374  0.68313  1.0000
  H   H3        1.0  0.97863  0.67376  0.68311  1.0000
  H   H4        1.0  0.97858  0.82625  0.31687  1.0000
  H   H5        1.0  0.86770  0.21328  0.15452  1.0000
  H   H6        1.0  0.86774  0.28672  0.84551  1.0000
  H   H7        1.0  0.13232  0.78673  0.84548  1.0000
  H   H8        1.0  0.13225  0.71326  0.15449  1.0000
  H   H9        1.0  0.45288  0.40211  0.03430  1.0000
  H   H10       1.0  0.45286  0.09789  0.96570  1.0000
  H   H11       1.0  0.54710  0.59788  0.96570  1.0000
  H   H12       1.0  0.54712  0.90210  0.03430  1.0000
  H   H13       1.0  0.60209  0.51811  0.19626  1.0000
  H   H14       1.0  0.60204  0.98187  0.80375  1.0000
  H   H15       1.0  0.39792  0.48189  0.80374  1.0000
  H   H16       1.0  0.39794  0.01811  0.19625  1.0000
  H   H17       1.0  0.13428  0.85777  0.52128  1.0000
  H   H18       1.0  0.13427  0.64222  0.47866  1.0000
  H   H19       1.0  0.86573  0.14224  0.47871  1.0000
  H   H20       1.0  0.86575  0.35780  0.52134  1.0000
  C   C1        1.0  0.32152  0.42958  0.26665  1.0000
  C   C2        1.0  0.32152  0.07040  0.73336  1.0000
  C   C3        1.0  0.67850  0.57043  0.73335  1.0000
  C   C4        1.0  0.67847  0.92958  0.26664  1.0000
  C   C5        1.0  0.11464  0.34267  0.25471  1.0000
  C   C6        1.0  0.11467  0.15730  0.74530  1.0000
  C   C7        1.0  0.88539  0.65733  0.74529  1.0000
  C   C8        1.0  0.88532  0.84269  0.25470  1.0000
  C   C9        1.0  0.02885  0.27932  0.16479  1.0000
  C   C10       1.0  0.02886  0.22068  0.83524  1.0000
  C   C11       1.0  0.97117  0.72068  0.83522  1.0000
  C   C12       1.0  0.97113  0.77931  0.16476  1.0000
  C   C13       1.0  0.15016  0.30216  0.08553  1.0000
  C   C14       1.0  0.15017  0.19783  0.91448  1.0000
  C   C15       1.0  0.84984  0.69784  0.91447  1.0000
  C   C16       1.0  0.84981  0.80216  0.08552  1.0000
  C   C17       1.0  0.35845  0.38569  0.09600  1.0000
  C   C18       1.0  0.35843  0.11430  0.90402  1.0000
  C   C19       1.0  0.64155  0.61430  0.90400  1.0000
  C   C20       1.0  0.64155  0.88569  0.09598  1.0000
  C   C21       1.0  0.44223  0.44977  0.18656  1.0000
  C   C22       1.0  0.44221  0.05020  0.81345  1.0000
  C   C23       1.0  0.55777  0.55022  0.81344  1.0000
  C   C24       1.0  0.55777  0.94978  0.18655  1.0000
  C   C25       1.0  0.40660  0.50514  0.36299  1.0000
  C   C26       1.0  0.40661  0.99483  0.63702  1.0000
  C   C27       1.0  0.59342  0.49488  0.63701  1.0000
  C   C28       1.0  0.59340  0.00517  0.36299  1.0000
  O   O1        1.0  0.58230  0.60027  0.37205  1.0000
  O   O2        1.0  0.58229  0.89971  0.62795  1.0000
  O   O3        1.0  0.41771  0.39976  0.62796  1.0000
  O   O4        1.0  0.41771  0.10029  0.37205  1.0000
  O   O5        1.0  0.03749  0.75001  0.49993  1.0000
  O   O6        1.0  0.96252  0.25000  0.50006  1.0000
  O   O7        1.0  0.29492  0.47753  0.43486  1.0000
  O   O8        1.0  0.29493  0.02245  0.56516  1.0000
  O   O9        1.0  0.70508  0.52248  0.56514  1.0000
  O   O10       1.0  0.70506  0.97756  0.43485  1.0000
  O   O11       1.0  0.04199  0.25001  0.00001  1.0000
  O   O12       1.0  0.95800  0.75000  0.99999  1.0000
