data_image0
_chemical_formula_structural       Cd2P2H34C48N4O12
_chemical_formula_sum              "Cd2 P2 H34 C48 N4 O12"
_cell_length_a       10.2243
_cell_length_b       11.0138
_cell_length_c       11.8619
_cell_angle_alpha    67.464
_cell_angle_beta     65.1593
_cell_angle_gamma    81.9296

_space_group_name_H-M_alt    "P 1"
_space_group_IT_number       1

loop_
  _space_group_symop_operation_xyz
  'x, y, z'

loop_
  _atom_site_type_symbol
  _atom_site_label
  _atom_site_symmetry_multiplicity
  _atom_site_fract_x
  _atom_site_fract_y
  _atom_site_fract_z
  _atom_site_occupancy
  Cd  Cd1       1.0  0.95787  0.15899  0.52196  1.0000
  Cd  Cd2       1.0  0.04213  0.84101  0.47804  1.0000
  P   P1        1.0  0.26611  0.14501  0.28272  1.0000
  P   P2        1.0  0.73389  0.85498  0.71728  1.0000
  H   H1        1.0  0.52689  0.39087  0.51100  1.0000
  H   H2        1.0  0.47310  0.60913  0.48900  1.0000
  H   H3        1.0  0.42630  0.91061  0.35312  1.0000
  H   H4        1.0  0.57370  0.08939  0.64688  1.0000
  H   H5        1.0  0.65922  0.87124  0.37940  1.0000
  H   H6        1.0  0.34078  0.12876  0.62060  1.0000
  H   H7        1.0  0.70431  0.28270  0.29131  1.0000
  H   H8        1.0  0.29569  0.71730  0.70869  1.0000
  H   H9        1.0  0.47494  0.32475  0.25941  1.0000
  H   H10       1.0  0.52506  0.67525  0.74059  1.0000
  H   H11       1.0  0.23428  0.40973  0.11371  1.0000
  H   H12       1.0  0.76572  0.59027  0.88630  1.0000
  H   H13       1.0  0.31119  0.51863  0.86556  1.0000
  H   H14       1.0  0.68881  0.48137  0.13444  1.0000
  H   H15       1.0  0.46998  0.15005  0.82014  1.0000
  H   H16       1.0  0.53002  0.84995  0.17986  1.0000
  H   H17       1.0  0.39637  0.04337  0.06617  1.0000
  H   H18       1.0  0.60363  0.95663  0.93383  1.0000
  H   H19       1.0  0.95852  0.38412  0.25280  1.0000
  H   H20       1.0  0.04148  0.61588  0.74720  1.0000
  H   H21       1.0  0.93085  0.62925  0.15282  1.0000
  H   H22       1.0  0.06915  0.37075  0.84718  1.0000
  H   H23       1.0  0.84172  0.75757  0.30722  1.0000
  H   H24       1.0  0.15828  0.24243  0.69278  1.0000
  H   H25       1.0  0.78003  0.63988  0.54721  1.0000
  H   H26       1.0  0.21997  0.36012  0.45279  1.0000
  H   H27       1.0  0.70314  0.52383  0.74756  1.0000
  H   H28       1.0  0.29686  0.47618  0.25244  1.0000
  H   H29       1.0  0.65123  0.37741  0.98345  1.0000
  H   H30       1.0  0.34877  0.62259  0.01655  1.0000
  H   H31       1.0  0.73222  0.14442  0.03243  1.0000
  H   H32       1.0  0.26778  0.85558  0.96757  1.0000
  H   H33       1.0  0.85955  0.06612  0.83828  1.0000
  H   H34       1.0  0.14045  0.93388  0.16172  1.0000
  C   C1        1.0  0.43712  0.12047  0.29982  1.0000
  C   C2        1.0  0.56288  0.87953  0.70018  1.0000
  C   C3        1.0  0.49038  0.99300  0.33387  1.0000
  C   C4        1.0  0.50962  0.00700  0.66613  1.0000
  C   C5        1.0  0.62065  0.97083  0.34896  1.0000
  C   C6        1.0  0.37935  0.02917  0.65104  1.0000
  C   C7        1.0  0.69948  0.07537  0.33181  1.0000
  C   C8        1.0  0.30052  0.92463  0.66819  1.0000
  C   C9        1.0  0.64578  0.20276  0.29877  1.0000
  C   C10       1.0  0.35422  0.79724  0.70124  1.0000
  C   C11       1.0  0.51641  0.22532  0.28221  1.0000
  C   C12       1.0  0.48359  0.77468  0.71779  1.0000
  C   C13       1.0  0.83319  0.05018  0.36089  1.0000
  C   C14       1.0  0.16681  0.94981  0.63911  1.0000
  C   C15       1.0  0.31519  0.22156  0.10400  1.0000
  C   C16       1.0  0.68481  0.77844  0.89600  1.0000
  C   C17       1.0  0.28871  0.35491  0.04781  1.0000
  C   C18       1.0  0.71129  0.64509  0.95219  1.0000
  C   C19       1.0  0.33003  0.41481  0.91090  1.0000
  C   C20       1.0  0.66998  0.58519  0.08910  1.0000
  C   C21       1.0  0.39741  0.34139  0.82854  1.0000
  C   C22       1.0  0.60259  0.65861  0.17146  1.0000
  C   C23       1.0  0.41966  0.20680  0.88458  1.0000
  C   C24       1.0  0.58034  0.79321  0.11542  1.0000
  C   C25       1.0  0.37916  0.14782  0.02157  1.0000
  C   C26       1.0  0.62084  0.85218  0.97843  1.0000
  C   C27       1.0  0.44586  0.40983  0.68298  1.0000
  C   C28       1.0  0.55413  0.59018  0.31702  1.0000
  C   C29       1.0  0.91862  0.44542  0.31354  1.0000
  C   C30       1.0  0.08138  0.55458  0.68646  1.0000
  C   C31       1.0  0.90262  0.58065  0.25940  1.0000
  C   C32       1.0  0.09738  0.41935  0.74060  1.0000
  C   C33       1.0  0.85149  0.65106  0.34477  1.0000
  C   C34       1.0  0.14851  0.34894  0.65522  1.0000
  C   C35       1.0  0.81605  0.58459  0.48072  1.0000
  C   C36       1.0  0.18395  0.41541  0.51928  1.0000
  C   C37       1.0  0.83511  0.44844  0.52751  1.0000
  C   C38       1.0  0.16489  0.55156  0.47250  1.0000
  C   C39       1.0  0.80346  0.36952  0.67027  1.0000
  C   C40       1.0  0.19654  0.63048  0.32973  1.0000
  C   C41       1.0  0.73411  0.42130  0.77153  1.0000
  C   C42       1.0  0.26589  0.57870  0.22847  1.0000
  C   C43       1.0  0.70736  0.34011  0.90276  1.0000
  C   C44       1.0  0.29264  0.65989  0.09724  1.0000
  C   C45       1.0  0.75167  0.21013  0.93072  1.0000
  C   C46       1.0  0.24833  0.78987  0.06928  1.0000
  C   C47       1.0  0.82131  0.16624  0.82448  1.0000
  C   C48       1.0  0.17869  0.83376  0.17552  1.0000
  N   N1        1.0  0.88668  0.38183  0.44349  1.0000
  N   N2        1.0  0.11332  0.61817  0.55651  1.0000
  N   N3        1.0  0.84532  0.24369  0.69869  1.0000
  N   N4        1.0  0.15468  0.75631  0.30131  1.0000
  O   O1        1.0  0.88472  0.93553  0.37596  1.0000
  O   O2        1.0  0.11528  0.06447  0.62404  1.0000
  O   O3        1.0  0.88055  0.14472  0.37072  1.0000
  O   O4        1.0  0.11945  0.85527  0.62929  1.0000
  O   O5        1.0  0.49965  0.33435  0.61134  1.0000
  O   O6        1.0  0.50035  0.66566  0.38867  1.0000
  O   O7        1.0  0.43604  0.53180  0.63423  1.0000
  O   O8        1.0  0.56396  0.46819  0.36578  1.0000
  O   O9        1.0  0.17900  0.24486  0.34390  1.0000
  O   O10       1.0  0.82100  0.75514  0.65610  1.0000
  O   O11       1.0  0.20141  0.01072  0.32694  1.0000
  O   O12       1.0  0.79859  0.98928  0.67306  1.0000
