data_image0
_chemical_formula_structural       Cd2P2H28C40N2O12
_chemical_formula_sum              "Cd2 P2 H28 C40 N2 O12"
_cell_length_a       9.87536
_cell_length_b       10.0959
_cell_length_c       10.3164
_cell_angle_alpha    101.149
_cell_angle_beta     107.058
_cell_angle_gamma    97.2749

_space_group_name_H-M_alt    "P 1"
_space_group_IT_number       1

loop_
  _space_group_symop_operation_xyz
  'x, y, z'

loop_
  _atom_site_type_symbol
  _atom_site_label
  _atom_site_symmetry_multiplicity
  _atom_site_fract_x
  _atom_site_fract_y
  _atom_site_fract_z
  _atom_site_occupancy
  Cd  Cd1       1.0  0.73219  0.06851  0.02982  1.0000
  Cd  Cd2       1.0  0.26781  0.93149  0.97018  1.0000
  P   P1        1.0  0.09599  0.11048  0.22444  1.0000
  P   P2        1.0  0.90401  0.88952  0.77556  1.0000
  H   H1        1.0  0.15731  0.87602  0.18959  1.0000
  H   H2        1.0  0.84269  0.12398  0.81041  1.0000
  H   H3        1.0  0.39566  0.11075  0.36458  1.0000
  H   H4        1.0  0.60434  0.88925  0.63542  1.0000
  H   H5        1.0  0.53327  0.11622  0.61161  1.0000
  H   H6        1.0  0.46673  0.88378  0.38839  1.0000
  H   H7        1.0  0.15418  0.15406  0.72794  1.0000
  H   H8        1.0  0.84582  0.84594  0.27205  1.0000
  H   H9        1.0  0.01528  0.15029  0.48177  1.0000
  H   H10       1.0  0.98472  0.84971  0.51823  1.0000
  H   H11       1.0  0.22964  0.23431  0.03605  1.0000
  H   H12       1.0  0.77036  0.76569  0.96395  1.0000
  H   H13       1.0  0.24681  0.46967  0.99500  1.0000
  H   H14       1.0  0.75319  0.53033  0.00500  1.0000
  H   H15       1.0  0.04371  0.59347  0.30279  1.0000
  H   H16       1.0  0.95629  0.40653  0.69722  1.0000
  H   H17       1.0  0.02026  0.35755  0.34158  1.0000
  H   H18       1.0  0.97974  0.64245  0.65842  1.0000
  H   H19       1.0  0.58788  0.33448  0.06637  1.0000
  H   H20       1.0  0.41213  0.66552  0.93363  1.0000
  H   H21       1.0  0.51323  0.48759  0.24136  1.0000
  H   H22       1.0  0.48677  0.51241  0.75864  1.0000
  H   H23       1.0  0.71190  0.26501  0.54218  1.0000
  H   H24       1.0  0.28810  0.73499  0.45782  1.0000
  H   H25       1.0  0.78224  0.12505  0.35395  1.0000
  H   H26       1.0  0.21776  0.87496  0.64605  1.0000
  H   H27       1.0  0.60388  0.45464  0.61974  1.0000
  H   H28       1.0  0.39612  0.54536  0.38026  1.0000
  C   C1        1.0  0.19653  0.13078  0.40740  1.0000
  C   C2        1.0  0.80347  0.86922  0.59260  1.0000
  C   C3        1.0  0.34369  0.12403  0.44484  1.0000
  C   C4        1.0  0.65631  0.87597  0.55516  1.0000
  C   C5        1.0  0.42067  0.12697  0.58225  1.0000
  C   C6        1.0  0.57933  0.87303  0.41775  1.0000
  C   C7        1.0  0.35227  0.13606  0.68429  1.0000
  C   C8        1.0  0.64773  0.86394  0.31571  1.0000
  C   C9        1.0  0.20721  0.14965  0.64869  1.0000
  C   C10       1.0  0.79279  0.85035  0.35131  1.0000
  C   C11       1.0  0.12987  0.14663  0.51085  1.0000
  C   C12       1.0  0.87013  0.85337  0.48915  1.0000
  C   C13       1.0  0.42989  0.11379  0.82553  1.0000
  C   C14       1.0  0.57011  0.88621  0.17447  1.0000
  C   C15       1.0  0.12471  0.28067  0.19293  1.0000
  C   C16       1.0  0.87529  0.71933  0.80707  1.0000
  C   C17       1.0  0.18892  0.31198  0.09530  1.0000
  C   C18       1.0  0.81108  0.68802  0.90470  1.0000
  C   C19       1.0  0.19991  0.44402  0.07258  1.0000
  C   C20       1.0  0.80009  0.55598  0.92742  1.0000
  C   C21       1.0  0.14995  0.54620  0.14864  1.0000
  C   C22       1.0  0.85005  0.45380  0.85136  1.0000
  C   C23       1.0  0.08548  0.51477  0.24626  1.0000
  C   C24       1.0  0.91452  0.48523  0.75374  1.0000
  C   C25       1.0  0.07273  0.38274  0.26756  1.0000
  C   C26       1.0  0.92727  0.61726  0.73244  1.0000
  C   C27       1.0  0.16432  0.68567  0.12156  1.0000
  C   C28       1.0  0.83568  0.31433  0.87844  1.0000
  C   C29       1.0  0.61263  0.32302  0.17312  1.0000
  C   C30       1.0  0.38737  0.67698  0.82688  1.0000
  C   C31       1.0  0.57057  0.40713  0.27114  1.0000
  C   C32       1.0  0.42943  0.59287  0.72886  1.0000
  C   C33       1.0  0.60191  0.38660  0.40711  1.0000
  C   C34       1.0  0.39810  0.61340  0.59289  1.0000
  C   C35       1.0  0.68240  0.28471  0.43825  1.0000
  C   C36       1.0  0.31760  0.71529  0.56175  1.0000
  C   C37       1.0  0.72115  0.20578  0.33404  1.0000
  C   C38       1.0  0.27885  0.79422  0.66596  1.0000
  C   C39       1.0  0.55233  0.46272  0.51309  1.0000
  C   C40       1.0  0.44767  0.53728  0.48690  1.0000
  N   N1        1.0  0.68516  0.22264  0.20298  1.0000
  N   N2        1.0  0.31484  0.77736  0.79702  1.0000
  O   O1        1.0  0.36745  0.12555  0.91814  1.0000
  O   O2        1.0  0.63255  0.87445  0.08186  1.0000
  O   O3        1.0  0.55188  0.07922  0.83889  1.0000
  O   O4        1.0  0.44812  0.92078  0.16111  1.0000
  O   O5        1.0  0.14864  0.78371  0.21915  1.0000
  O   O6        1.0  0.85136  0.21629  0.78085  1.0000
  O   O7        1.0  0.19003  0.70616  0.01561  1.0000
  O   O8        1.0  0.80996  0.29384  0.98439  1.0000
  O   O9        1.0  0.93686  0.06628  0.20376  1.0000
  O   O10       1.0  0.06314  0.93372  0.79624  1.0000
  O   O11       1.0  0.16410  0.01243  0.14066  1.0000
  O   O12       1.0  0.83590  0.98757  0.85934  1.0000
