data_image0
_chemical_formula_structural       Cd2P2H26C38N2O12
_chemical_formula_sum              "Cd2 P2 H26 C38 N2 O12"
_cell_length_a       9.71287
_cell_length_b       9.72896
_cell_length_c       10.0446
_cell_angle_alpha    74.7911
_cell_angle_beta     87.8669
_cell_angle_gamma    76.9676

_space_group_name_H-M_alt    "P 1"
_space_group_IT_number       1

loop_
  _space_group_symop_operation_xyz
  'x, y, z'

loop_
  _atom_site_type_symbol
  _atom_site_label
  _atom_site_symmetry_multiplicity
  _atom_site_fract_x
  _atom_site_fract_y
  _atom_site_fract_z
  _atom_site_occupancy
  Cd  Cd1       1.0  0.27290  0.04668  0.89736  1.0000
  Cd  Cd2       1.0  0.72710  0.95332  0.10264  1.0000
  P   P1        1.0  0.07840  0.76891  0.12311  1.0000
  P   P2        1.0  0.92160  0.23109  0.87689  1.0000
  H   H1        1.0  0.14786  0.81359  0.87667  1.0000
  H   H2        1.0  0.85214  0.18641  0.12333  1.0000
  H   H3        1.0  0.01698  0.62482  0.39964  1.0000
  H   H4        1.0  0.98302  0.37518  0.60036  1.0000
  H   H5        1.0  0.04981  0.66820  0.62855  1.0000
  H   H6        1.0  0.95020  0.33180  0.37145  1.0000
  H   H7        1.0  0.22872  0.03530  0.43267  1.0000
  H   H8        1.0  0.77128  0.96470  0.56733  1.0000
  H   H9        1.0  0.20406  0.98844  0.20391  1.0000
  H   H10       1.0  0.79594  0.01156  0.79609  1.0000
  H   H11       1.0  0.99681  0.48919  0.14253  1.0000
  H   H12       1.0  0.00318  0.51081  0.85747  1.0000
  H   H13       1.0  0.13990  0.24487  0.13443  1.0000
  H   H14       1.0  0.86010  0.75513  0.86557  1.0000
  H   H15       1.0  0.52078  0.40101  0.12675  1.0000
  H   H16       1.0  0.47922  0.59899  0.87325  1.0000
  H   H17       1.0  0.37817  0.64901  0.12768  1.0000
  H   H18       1.0  0.62183  0.35099  0.87233  1.0000
  H   H19       1.0  0.45614  0.08337  0.62505  1.0000
  H   H20       1.0  0.54386  0.91663  0.37495  1.0000
  H   H21       1.0  0.55392  0.26674  0.45197  1.0000
  H   H22       1.0  0.44607  0.73326  0.54803  1.0000
  H   H23       1.0  0.35915  0.58375  0.67504  1.0000
  H   H24       1.0  0.64085  0.41625  0.32496  1.0000
  H   H25       1.0  0.26554  0.38778  0.83404  1.0000
  H   H26       1.0  0.73446  0.61222  0.16596  1.0000
  C   C1        1.0  0.10813  0.80401  0.28676  1.0000
  C   C2        1.0  0.89188  0.19599  0.71323  1.0000
  C   C3        1.0  0.06562  0.71339  0.40701  1.0000
  C   C4        1.0  0.93438  0.28661  0.59299  1.0000
  C   C5        1.0  0.08369  0.73716  0.53510  1.0000
  C   C6        1.0  0.91631  0.26284  0.46490  1.0000
  C   C7        1.0  0.14347  0.85325  0.54391  1.0000
  C   C8        1.0  0.85653  0.14675  0.45610  1.0000
  C   C9        1.0  0.18441  0.94445  0.42390  1.0000
  C   C10       1.0  0.81559  0.05554  0.57610  1.0000
  C   C11       1.0  0.16818  0.91921  0.29587  1.0000
  C   C12       1.0  0.83182  0.08080  0.70413  1.0000
  C   C13       1.0  0.16227  0.88381  0.67857  1.0000
  C   C14       1.0  0.83773  0.11619  0.32144  1.0000
  C   C15       1.0  0.17806  0.58435  0.13635  1.0000
  C   C16       1.0  0.82194  0.41565  0.86365  1.0000
  C   C17       1.0  0.11185  0.46931  0.14103  1.0000
  C   C18       1.0  0.88815  0.53069  0.85897  1.0000
  C   C19       1.0  0.19211  0.33205  0.13702  1.0000
  C   C20       1.0  0.80789  0.66795  0.86298  1.0000
  C   C21       1.0  0.33974  0.30813  0.13077  1.0000
  C   C22       1.0  0.66026  0.69187  0.86923  1.0000
  C   C23       1.0  0.40603  0.42194  0.13188  1.0000
  C   C24       1.0  0.59397  0.57806  0.86812  1.0000
  C   C25       1.0  0.32622  0.55932  0.13329  1.0000
  C   C26       1.0  0.67379  0.44068  0.86671  1.0000
  C   C27       1.0  0.42943  0.16494  0.11638  1.0000
  C   C28       1.0  0.57057  0.83506  0.88362  1.0000
  C   C29       1.0  0.43735  0.19628  0.63147  1.0000
  C   C30       1.0  0.56265  0.80372  0.36853  1.0000
  C   C31       1.0  0.49224  0.30014  0.53525  1.0000
  C   C32       1.0  0.50776  0.69986  0.46475  1.0000
  C   C33       1.0  0.46912  0.44376  0.54833  1.0000
  C   C34       1.0  0.53088  0.55624  0.45167  1.0000
  C   C35       1.0  0.38474  0.47514  0.65802  1.0000
  C   C36       1.0  0.61526  0.52486  0.34198  1.0000
  C   C37       1.0  0.33195  0.36572  0.74868  1.0000
  C   C38       1.0  0.66805  0.63428  0.25132  1.0000
  N   N1        1.0  0.35917  0.22761  0.73715  1.0000
  N   N2        1.0  0.64083  0.77239  0.26285  1.0000
  O   O1        1.0  0.19530  0.99798  0.68538  1.0000
  O   O2        1.0  0.80470  0.00202  0.31462  1.0000
  O   O3        1.0  0.14106  0.78011  0.78766  1.0000
  O   O4        1.0  0.85894  0.21989  0.21234  1.0000
  O   O5        1.0  0.56235  0.14875  0.13097  1.0000
  O   O6        1.0  0.43765  0.85125  0.86903  1.0000
  O   O7        1.0  0.37028  0.06971  0.09194  1.0000
  O   O8        1.0  0.62972  0.93029  0.90806  1.0000
  O   O9        1.0  0.92274  0.77257  0.10614  1.0000
  O   O10       1.0  0.07726  0.22743  0.89387  1.0000
  O   O11       1.0  0.14566  0.86803  0.00674  1.0000
  O   O12       1.0  0.85434  0.13197  0.99326  1.0000
