data_image0
_chemical_formula_structural       Zn4H56C56N24O8
_chemical_formula_sum              "Zn4 H56 C56 N24 O8"
_cell_length_a       7.1416
_cell_length_b       8.27832
_cell_length_c       26.4282
_cell_angle_alpha    89.9997
_cell_angle_beta     90
_cell_angle_gamma    89.9995

_space_group_name_H-M_alt    "P 1"
_space_group_IT_number       1

loop_
  _space_group_symop_operation_xyz
  'x, y, z'

loop_
  _atom_site_type_symbol
  _atom_site_label
  _atom_site_symmetry_multiplicity
  _atom_site_fract_x
  _atom_site_fract_y
  _atom_site_fract_z
  _atom_site_occupancy
  Zn  Zn1       1.0  0.27785  0.04251  0.00275  1.0000
  Zn  Zn2       1.0  0.22215  0.95749  0.50275  1.0000
  Zn  Zn3       1.0  0.72215  0.54251  0.49725  1.0000
  Zn  Zn4       1.0  0.77786  0.45749  0.99725  1.0000
  H   H1        1.0  0.29036  0.98461  0.10167  1.0000
  H   H2        1.0  0.20964  0.01538  0.60167  1.0000
  H   H3        1.0  0.70964  0.48462  0.39833  1.0000
  H   H4        1.0  0.79036  0.51538  0.89833  1.0000
  H   H5        1.0  0.66384  0.99258  0.22350  1.0000
  H   H6        1.0  0.83618  0.00743  0.72350  1.0000
  H   H7        1.0  0.33616  0.49258  0.27651  1.0000
  H   H8        1.0  0.16384  0.50741  0.77650  1.0000
  H   H9        1.0  0.20644  0.70033  0.07635  1.0000
  H   H10       1.0  0.29356  0.29966  0.57635  1.0000
  H   H11       1.0  0.79356  0.20033  0.42365  1.0000
  H   H12       1.0  0.70644  0.79967  0.92365  1.0000
  H   H13       1.0  0.96670  0.65274  0.07641  1.0000
  H   H14       1.0  0.53330  0.34725  0.57642  1.0000
  H   H15       1.0  0.03331  0.15275  0.42358  1.0000
  H   H16       1.0  0.46669  0.84725  0.92358  1.0000
  H   H17       1.0  0.90268  0.95889  0.06335  1.0000
  H   H18       1.0  0.59733  0.04111  0.56335  1.0000
  H   H19       1.0  0.09732  0.45890  0.43665  1.0000
  H   H20       1.0  0.40268  0.54111  0.93665  1.0000
  H   H21       1.0  0.98012  0.89514  0.12371  1.0000
  H   H22       1.0  0.51988  0.10485  0.62371  1.0000
  H   H23       1.0  0.01989  0.39515  0.37629  1.0000
  H   H24       1.0  0.48011  0.60485  0.87629  1.0000
  H   H25       1.0  0.02450  0.18426  0.12684  1.0000
  H   H26       1.0  0.47550  0.81573  0.62684  1.0000
  H   H27       1.0  0.97549  0.68427  0.37316  1.0000
  H   H28       1.0  0.52451  0.31573  0.87316  1.0000
  H   H29       1.0  0.40074  0.28827  0.08021  1.0000
  H   H30       1.0  0.09926  0.71172  0.58021  1.0000
  H   H31       1.0  0.59926  0.78829  0.41979  1.0000
  H   H32       1.0  0.90074  0.21172  0.91979  1.0000
  H   H33       1.0  0.25285  0.41230  0.11737  1.0000
  H   H34       1.0  0.24715  0.58770  0.61737  1.0000
  H   H35       1.0  0.74714  0.91231  0.38263  1.0000
  H   H36       1.0  0.75286  0.08770  0.88263  1.0000
  H   H37       1.0  0.64379  0.09317  0.13371  1.0000
  H   H38       1.0  0.85622  0.90683  0.63371  1.0000
  H   H39       1.0  0.35620  0.59319  0.36630  1.0000
  H   H40       1.0  0.14379  0.40681  0.86629  1.0000
  H   H41       1.0  0.03987  0.36133  0.20407  1.0000
  H   H42       1.0  0.46014  0.63867  0.70407  1.0000
  H   H43       1.0  0.96012  0.86132  0.29593  1.0000
  H   H44       1.0  0.53987  0.13868  0.79593  1.0000
  H   H45       1.0  0.95794  0.31111  0.29351  1.0000
  H   H46       1.0  0.54207  0.68889  0.79351  1.0000
  H   H47       1.0  0.04206  0.81109  0.20649  1.0000
  H   H48       1.0  0.45793  0.18891  0.70649  1.0000
  H   H49       1.0  0.16657  0.14248  0.34877  1.0000
  H   H50       1.0  0.33343  0.85753  0.84877  1.0000
  H   H51       1.0  0.83341  0.64246  0.15123  1.0000
  H   H52       1.0  0.66658  0.35753  0.65123  1.0000
  H   H53       1.0  0.45510  0.02020  0.31539  1.0000
  H   H54       1.0  0.04491  0.97982  0.81539  1.0000
  H   H55       1.0  0.54489  0.52018  0.18461  1.0000
  H   H56       1.0  0.95511  0.47980  0.68461  1.0000
  C   C1        1.0  0.06669  0.73508  0.00583  1.0000
  C   C2        1.0  0.43331  0.26492  0.50583  1.0000
  C   C3        1.0  0.93332  0.23509  0.49417  1.0000
  C   C4        1.0  0.56669  0.76492  0.99417  1.0000
  C   C5        1.0  0.06899  0.74061  0.06226  1.0000
  C   C6        1.0  0.43101  0.25938  0.56226  1.0000
  C   C7        1.0  0.93102  0.24062  0.43774  1.0000
  C   C8        1.0  0.56899  0.75938  0.93774  1.0000
  C   C9        1.0  0.02296  0.90782  0.08384  1.0000
  C   C10       1.0  0.47705  0.09218  0.58384  1.0000
  C   C11       1.0  0.97704  0.40783  0.41616  1.0000
  C   C12       1.0  0.52296  0.59218  0.91616  1.0000
  C   C13       1.0  0.12449  0.18763  0.09507  1.0000
  C   C14       1.0  0.37551  0.81236  0.59507  1.0000
  C   C15       1.0  0.87550  0.68764  0.40492  1.0000
  C   C16       1.0  0.62450  0.31236  0.90493  1.0000
  C   C17       1.0  0.02737  0.26798  0.05024  1.0000
  C   C18       1.0  0.47263  0.73201  0.55024  1.0000
  C   C19       1.0  0.97262  0.76798  0.44976  1.0000
  C   C20       1.0  0.52737  0.23202  0.94976  1.0000
  C   C21       1.0  0.29840  0.28663  0.11138  1.0000
  C   C22       1.0  0.20161  0.71336  0.61138  1.0000
  C   C23       1.0  0.70159  0.78664  0.38862  1.0000
  C   C24       1.0  0.79840  0.21336  0.88862  1.0000
  C   C25       1.0  0.38154  0.21692  0.15843  1.0000
  C   C26       1.0  0.11847  0.78307  0.65843  1.0000
  C   C27       1.0  0.61845  0.71694  0.34158  1.0000
  C   C28       1.0  0.88154  0.28306  0.84158  1.0000
  C   C29       1.0  0.54248  0.12502  0.16262  1.0000
  C   C30       1.0  0.95753  0.87499  0.66262  1.0000
  C   C31       1.0  0.45751  0.62503  0.33739  1.0000
  C   C32       1.0  0.04248  0.37497  0.83739  1.0000
  C   C33       1.0  0.29566  0.21716  0.20775  1.0000
  C   C34       1.0  0.20435  0.78284  0.70775  1.0000
  C   C35       1.0  0.70433  0.71716  0.29225  1.0000
  C   C36       1.0  0.79566  0.28284  0.79225  1.0000
  C   C37       1.0  0.13164  0.28724  0.22756  1.0000
  C   C38       1.0  0.36837  0.71277  0.72756  1.0000
  C   C39       1.0  0.86835  0.78724  0.27244  1.0000
  C   C40       1.0  0.63164  0.21277  0.77244  1.0000
  C   C41       1.0  0.08645  0.25909  0.27814  1.0000
  C   C42       1.0  0.41355  0.74092  0.77815  1.0000
  C   C43       1.0  0.91354  0.75908  0.22186  1.0000
  C   C44       1.0  0.58645  0.24092  0.72186  1.0000
  C   C45       1.0  0.20261  0.16324  0.30927  1.0000
  C   C46       1.0  0.29740  0.83677  0.80927  1.0000
  C   C47       1.0  0.79738  0.66322  0.19073  1.0000
  C   C48       1.0  0.70261  0.33678  0.69073  1.0000
  C   C49       1.0  0.36695  0.09409  0.29090  1.0000
  C   C50       1.0  0.13306  0.90592  0.79090  1.0000
  C   C51       1.0  0.63304  0.59408  0.20911  1.0000
  C   C52       1.0  0.86695  0.40592  0.70911  1.0000
  C   C53       1.0  0.41218  0.12180  0.24015  1.0000
  C   C54       1.0  0.08784  0.87821  0.74015  1.0000
  C   C55       1.0  0.58781  0.62179  0.25985  1.0000
  C   C56       1.0  0.91218  0.37820  0.75985  1.0000
  N   N1        1.0  0.12646  0.85487  0.97566  1.0000
  N   N2        1.0  0.37355  0.14513  0.47566  1.0000
  N   N3        1.0  0.87355  0.35487  0.52434  1.0000
  N   N4        1.0  0.62646  0.64513  0.02434  1.0000
  N   N5        1.0  0.09969  0.80671  0.92727  1.0000
  N   N6        1.0  0.40031  0.19329  0.42727  1.0000
  N   N7        1.0  0.90030  0.30671  0.57273  1.0000
  N   N8        1.0  0.59970  0.69329  0.07273  1.0000
  N   N9        1.0  0.02493  0.66259  0.92806  1.0000
  N   N10       1.0  0.47508  0.33741  0.42806  1.0000
  N   N11       1.0  0.97507  0.16259  0.57194  1.0000
  N   N12       1.0  0.52493  0.83741  0.07194  1.0000
  N   N13       1.0  0.00209  0.61425  0.97687  1.0000
  N   N14       1.0  0.49792  0.38575  0.47687  1.0000
  N   N15       1.0  0.99792  0.11425  0.52313  1.0000
  N   N16       1.0  0.50209  0.88575  0.02313  1.0000
  N   N17       1.0  0.17999  0.02395  0.07987  1.0000
  N   N18       1.0  0.32001  0.97605  0.57987  1.0000
  N   N19       1.0  0.82001  0.52396  0.42012  1.0000
  N   N20       1.0  0.67999  0.47605  0.92012  1.0000
  N   N21       1.0  0.56163  0.06919  0.21149  1.0000
  N   N22       1.0  0.93838  0.93082  0.71149  1.0000
  N   N23       1.0  0.43836  0.56920  0.28851  1.0000
  N   N24       1.0  0.06163  0.43080  0.78851  1.0000
  O   O1        1.0  0.07985  0.23253  0.00567  1.0000
  O   O2        1.0  0.42015  0.76748  0.50566  1.0000
  O   O3        1.0  0.92014  0.73254  0.49433  1.0000
  O   O4        1.0  0.57985  0.26747  0.99433  1.0000
  O   O5        1.0  0.89851  0.36897  0.06046  1.0000
  O   O6        1.0  0.60148  0.63103  0.56046  1.0000
  O   O7        1.0  0.10150  0.86897  0.43954  1.0000
  O   O8        1.0  0.39851  0.13103  0.93954  1.0000
