data_image0
_chemical_formula_structural       Cd4H32C64N8O16
_chemical_formula_sum              "Cd4 H32 C64 N8 O16"
_cell_length_a       8.30169
_cell_length_b       9.62703
_cell_length_c       17.2526
_cell_angle_alpha    89.9993
_cell_angle_beta     90.0003
_cell_angle_gamma    91.0529

_space_group_name_H-M_alt    "P 1"
_space_group_IT_number       1

loop_
  _space_group_symop_operation_xyz
  'x, y, z'

loop_
  _atom_site_type_symbol
  _atom_site_label
  _atom_site_symmetry_multiplicity
  _atom_site_fract_x
  _atom_site_fract_y
  _atom_site_fract_z
  _atom_site_occupancy
  Cd  Cd1       1.0  0.29958  0.21893  0.14852  1.0000
  Cd  Cd2       1.0  0.20043  0.78107  0.64852  1.0000
  Cd  Cd3       1.0  0.70042  0.78107  0.85148  1.0000
  Cd  Cd4       1.0  0.79957  0.21893  0.35149  1.0000
  H   H1        1.0  0.93291  0.14350  0.07667  1.0000
  H   H2        1.0  0.56709  0.85651  0.57667  1.0000
  H   H3        1.0  0.06709  0.85651  0.92333  1.0000
  H   H4        1.0  0.43291  0.14350  0.42333  1.0000
  H   H5        1.0  0.68225  0.26749  0.03725  1.0000
  H   H6        1.0  0.81775  0.73252  0.53725  1.0000
  H   H7        1.0  0.31775  0.73252  0.96275  1.0000
  H   H8        1.0  0.18225  0.26748  0.46275  1.0000
  H   H9        1.0  0.67894  0.52805  0.04824  1.0000
  H   H10       1.0  0.82106  0.47196  0.54824  1.0000
  H   H11       1.0  0.32106  0.47196  0.95176  1.0000
  H   H12       1.0  0.17894  0.52804  0.45176  1.0000
  H   H13       1.0  0.81951  0.74664  0.08791  1.0000
  H   H14       1.0  0.68049  0.25336  0.58791  1.0000
  H   H15       1.0  0.18049  0.25336  0.91209  1.0000
  H   H16       1.0  0.31951  0.74664  0.41209  1.0000
  H   H17       1.0  0.07177  0.87036  0.12821  1.0000
  H   H18       1.0  0.42824  0.12965  0.62822  1.0000
  H   H19       1.0  0.92823  0.12965  0.87178  1.0000
  H   H20       1.0  0.57177  0.87036  0.37179  1.0000
  H   H21       1.0  0.35779  0.86028  0.16880  1.0000
  H   H22       1.0  0.14221  0.13972  0.66880  1.0000
  H   H23       1.0  0.64221  0.13972  0.83120  1.0000
  H   H24       1.0  0.85779  0.86028  0.33120  1.0000
  H   H25       1.0  0.59681  0.71610  0.20251  1.0000
  H   H26       1.0  0.90319  0.28390  0.70251  1.0000
  H   H27       1.0  0.40318  0.28390  0.79749  1.0000
  H   H28       1.0  0.09681  0.71610  0.29749  1.0000
  H   H29       1.0  0.56479  0.45494  0.20120  1.0000
  H   H30       1.0  0.93521  0.54506  0.70120  1.0000
  H   H31       1.0  0.43521  0.54506  0.79880  1.0000
  H   H32       1.0  0.06479  0.45494  0.29880  1.0000
  C   C1        1.0  0.92586  0.25610  0.08196  1.0000
  C   C2        1.0  0.57414  0.74390  0.58196  1.0000
  C   C3        1.0  0.07414  0.74390  0.91804  1.0000
  C   C4        1.0  0.42586  0.25610  0.41804  1.0000
  C   C5        1.0  0.78590  0.32599  0.05951  1.0000
  C   C6        1.0  0.71410  0.67402  0.55951  1.0000
  C   C7        1.0  0.21410  0.67402  0.94049  1.0000
  C   C8        1.0  0.28590  0.32598  0.44049  1.0000
  C   C9        1.0  0.78355  0.46893  0.06617  1.0000
  C   C10       1.0  0.71645  0.53107  0.56617  1.0000
  C   C11       1.0  0.21644  0.53107  0.93383  1.0000
  C   C12       1.0  0.28355  0.46893  0.43383  1.0000
  C   C13       1.0  0.92037  0.54144  0.09527  1.0000
  C   C14       1.0  0.57963  0.45856  0.59527  1.0000
  C   C15       1.0  0.07962  0.45856  0.90473  1.0000
  C   C16       1.0  0.42037  0.54144  0.40473  1.0000
  C   C17       1.0  0.92714  0.68944  0.10234  1.0000
  C   C18       1.0  0.57286  0.31057  0.60234  1.0000
  C   C19       1.0  0.07286  0.31057  0.89766  1.0000
  C   C20       1.0  0.42714  0.68943  0.39766  1.0000
  C   C21       1.0  0.06475  0.75734  0.12534  1.0000
  C   C22       1.0  0.43525  0.24266  0.62534  1.0000
  C   C23       1.0  0.93525  0.24266  0.87466  1.0000
  C   C24       1.0  0.56475  0.75734  0.37466  1.0000
  C   C25       1.0  0.20534  0.68118  0.14514  1.0000
  C   C26       1.0  0.29466  0.31882  0.64514  1.0000
  C   C27       1.0  0.79466  0.31882  0.85486  1.0000
  C   C28       1.0  0.70534  0.68118  0.35486  1.0000
  C   C29       1.0  0.35131  0.74731  0.16726  1.0000
  C   C30       1.0  0.14870  0.25269  0.66726  1.0000
  C   C31       1.0  0.64869  0.25269  0.83274  1.0000
  C   C32       1.0  0.85130  0.74731  0.33274  1.0000
  C   C33       1.0  0.48222  0.66773  0.18646  1.0000
  C   C34       1.0  0.01778  0.33227  0.68646  1.0000
  C   C35       1.0  0.51778  0.33227  0.81354  1.0000
  C   C36       1.0  0.98222  0.66773  0.31354  1.0000
  C   C37       1.0  0.46606  0.52234  0.18518  1.0000
  C   C38       1.0  0.03395  0.47766  0.68518  1.0000
  C   C39       1.0  0.53394  0.47766  0.81482  1.0000
  C   C40       1.0  0.96605  0.52234  0.31482  1.0000
  C   C41       1.0  0.20094  0.53349  0.14271  1.0000
  C   C42       1.0  0.29906  0.46651  0.64271  1.0000
  C   C43       1.0  0.79906  0.46652  0.85728  1.0000
  C   C44       1.0  0.70094  0.53348  0.35729  1.0000
  C   C45       1.0  0.05644  0.46219  0.11599  1.0000
  C   C46       1.0  0.44356  0.53781  0.61599  1.0000
  C   C47       1.0  0.94356  0.53781  0.88401  1.0000
  C   C48       1.0  0.55644  0.46219  0.38401  1.0000
  C   C49       1.0  0.34098  0.10970  0.00201  1.0000
  C   C50       1.0  0.15903  0.89031  0.50202  1.0000
  C   C51       1.0  0.65903  0.89031  0.99798  1.0000
  C   C52       1.0  0.84097  0.10967  0.49799  1.0000
  C   C53       1.0  0.35133  0.04441  0.92668  1.0000
  C   C54       1.0  0.14867  0.95560  0.42669  1.0000
  C   C55       1.0  0.64868  0.95559  0.07331  1.0000
  C   C56       1.0  0.85133  0.04438  0.57331  1.0000
  C   C57       1.0  0.35809  0.98581  0.86414  1.0000
  C   C58       1.0  0.14191  0.01420  0.36415  1.0000
  C   C59       1.0  0.64193  0.01419  0.13585  1.0000
  C   C60       1.0  0.85810  0.98579  0.63585  1.0000
  C   C61       1.0  0.35454  0.90110  0.79484  1.0000
  C   C62       1.0  0.14545  0.09891  0.29485  1.0000
  C   C63       1.0  0.64546  0.09890  0.20516  1.0000
  C   C64       1.0  0.85455  0.90108  0.70516  1.0000
  N   N1        1.0  0.05621  0.32190  0.10927  1.0000
  N   N2        1.0  0.44379  0.67811  0.60927  1.0000
  N   N3        1.0  0.94379  0.67811  0.89073  1.0000
  N   N4        1.0  0.55621  0.32190  0.39073  1.0000
  N   N5        1.0  0.32995  0.45760  0.16377  1.0000
  N   N6        1.0  0.17005  0.54240  0.66377  1.0000
  N   N7        1.0  0.67005  0.54240  0.83623  1.0000
  N   N8        1.0  0.82994  0.45760  0.33623  1.0000
  O   O1        1.0  0.25852  0.04405  0.05317  1.0000
  O   O2        1.0  0.24149  0.95596  0.55317  1.0000
  O   O3        1.0  0.74149  0.95596  0.94683  1.0000
  O   O4        1.0  0.75850  0.04403  0.44683  1.0000
  O   O5        1.0  0.41101  0.22659  0.01249  1.0000
  O   O6        1.0  0.08900  0.77342  0.51249  1.0000
  O   O7        1.0  0.58899  0.77342  0.98751  1.0000
  O   O8        1.0  0.91100  0.22657  0.48751  1.0000
  O   O9        1.0  0.44299  0.79498  0.79231  1.0000
  O   O10       1.0  0.05701  0.20504  0.29232  1.0000
  O   O11       1.0  0.55701  0.20502  0.20768  1.0000
  O   O12       1.0  0.94300  0.79496  0.70769  1.0000
  O   O13       1.0  0.25605  0.93824  0.74240  1.0000
  O   O14       1.0  0.24395  0.06177  0.24240  1.0000
  O   O15       1.0  0.74396  0.06176  0.25760  1.0000
  O   O16       1.0  0.75606  0.93823  0.75760  1.0000
