data_image0
_chemical_formula_structural       Y2H28C24Cl2O2
_chemical_formula_sum              "Y2 H28 C24 Cl2 O2"
_cell_length_a       8.1268
_cell_length_b       8.15544
_cell_length_c       10.3393
_cell_angle_alpha    89.1529
_cell_angle_beta     72.9742
_cell_angle_gamma    60.3294

_space_group_name_H-M_alt    "P 1"
_space_group_IT_number       1

loop_
  _space_group_symop_operation_xyz
  'x, y, z'

loop_
  _atom_site_type_symbol
  _atom_site_label
  _atom_site_symmetry_multiplicity
  _atom_site_fract_x
  _atom_site_fract_y
  _atom_site_fract_z
  _atom_site_occupancy
  Y   Y1        1.0  0.22687  0.96357  0.80679  1.0000
  Y   Y2        1.0  0.77314  0.03643  0.19321  1.0000
  H   H1        1.0  0.71659  0.74364  0.67295  1.0000
  H   H2        1.0  0.28341  0.25636  0.32705  1.0000
  H   H3        1.0  0.53909  0.65174  0.52840  1.0000
  H   H4        1.0  0.46091  0.34826  0.47160  1.0000
  H   H5        1.0  0.30074  0.54070  0.70396  1.0000
  H   H6        1.0  0.69927  0.45929  0.29604  1.0000
  H   H7        1.0  0.32846  0.57572  0.95170  1.0000
  H   H8        1.0  0.67155  0.42428  0.04830  1.0000
  H   H9        1.0  0.58181  0.70314  0.93456  1.0000
  H   H10       1.0  0.41819  0.29687  0.06544  1.0000
  H   H11       1.0  0.55471  0.05053  0.58936  1.0000
  H   H12       1.0  0.44529  0.94946  0.41064  1.0000
  H   H13       1.0  0.52128  0.10111  0.85594  1.0000
  H   H14       1.0  0.47872  0.89889  0.14406  1.0000
  H   H15       1.0  0.12946  0.33804  0.99829  1.0000
  H   H16       1.0  0.87054  0.66196  0.00171  1.0000
  H   H17       1.0  0.92269  0.43362  0.82125  1.0000
  H   H18       1.0  0.07731  0.56638  0.17875  1.0000
  H   H19       1.0  0.18718  0.25392  0.56884  1.0000
  H   H20       1.0  0.81282  0.74607  0.43116  1.0000
  H   H21       1.0  0.88279  0.26893  0.66716  1.0000
  H   H22       1.0  0.11720  0.73107  0.33284  1.0000
  H   H23       1.0  0.77605  0.12381  0.67019  1.0000
  H   H24       1.0  0.22394  0.87619  0.32981  1.0000
  H   H25       1.0  0.99209  0.78972  0.58943  1.0000
  H   H26       1.0  0.00791  0.21029  0.41057  1.0000
  H   H27       1.0  0.25668  0.69471  0.52250  1.0000
  H   H28       1.0  0.74332  0.30529  0.47750  1.0000
  C   C1        1.0  0.61168  0.69489  0.71244  1.0000
  C   C2        1.0  0.38833  0.30511  0.28756  1.0000
  C   C3        1.0  0.51658  0.64717  0.63702  1.0000
  C   C4        1.0  0.48342  0.35283  0.36298  1.0000
  C   C5        1.0  0.39211  0.58971  0.72842  1.0000
  C   C6        1.0  0.60789  0.41028  0.27158  1.0000
  C   C7        1.0  0.40808  0.60557  0.85942  1.0000
  C   C8        1.0  0.59192  0.39443  0.14058  1.0000
  C   C9        1.0  0.54238  0.67203  0.85019  1.0000
  C   C10       1.0  0.45762  0.32797  0.14980  1.0000
  C   C11       1.0  0.41675  0.13656  0.67400  1.0000
  C   C12       1.0  0.58325  0.86344  0.32599  1.0000
  C   C13       1.0  0.39866  0.16401  0.81408  1.0000
  C   C14       1.0  0.60134  0.83598  0.18592  1.0000
  C   C15       1.0  0.19338  0.29037  0.88860  1.0000
  C   C16       1.0  0.80662  0.70963  0.11140  1.0000
  C   C17       1.0  0.08364  0.33902  0.79597  1.0000
  C   C18       1.0  0.91636  0.66098  0.20403  1.0000
  C   C19       1.0  0.22270  0.24456  0.66303  1.0000
  C   C20       1.0  0.77730  0.75544  0.33697  1.0000
  C   C21       1.0  0.89821  0.14616  0.61169  1.0000
  C   C22       1.0  0.10179  0.85385  0.38831  1.0000
  C   C23       1.0  0.11048  0.81790  0.53070  1.0000
  C   C24       1.0  0.88952  0.18211  0.46930  1.0000
  Cl  Cl1       1.0  0.86586  0.99097  0.90953  1.0000
  Cl  Cl2       1.0  0.13413  0.00903  0.09047  1.0000
  O   O1        1.0  0.08874  0.97973  0.60587  1.0000
  O   O2        1.0  0.91126  0.02027  0.39413  1.0000
