data_image0
_chemical_formula_structural       Cs4U2H12C16O26
_chemical_formula_sum              "Cs4 U2 H12 C16 O26"
_cell_length_a       7.08235
_cell_length_b       11.3899
_cell_length_c       11.39
_cell_angle_alpha    108.719
_cell_angle_beta     90.0006
_cell_angle_gamma    90.0002

_space_group_name_H-M_alt    "P 1"
_space_group_IT_number       1

loop_
  _space_group_symop_operation_xyz
  'x, y, z'

loop_
  _atom_site_type_symbol
  _atom_site_label
  _atom_site_symmetry_multiplicity
  _atom_site_fract_x
  _atom_site_fract_y
  _atom_site_fract_z
  _atom_site_occupancy
  Cs  Cs1       1.0  0.02973  0.78678  0.28678  1.0000
  Cs  Cs2       1.0  0.97027  0.28678  0.78678  1.0000
  Cs  Cs3       1.0  1.00000  0.49651  0.49651  1.0000
  Cs  Cs4       1.0  1.00000  0.99651  0.99651  1.0000
  U   U1        1.0  0.50801  0.99868  0.49868  1.0000
  U   U2        1.0  0.49198  0.49867  0.99867  1.0000
  H   H1        1.0  0.09109  0.01175  0.59905  1.0000
  H   H2        1.0  0.90891  0.59904  0.01174  1.0000
  H   H3        1.0  0.09109  0.09905  0.51175  1.0000
  H   H4        1.0  0.90891  0.51174  0.09904  1.0000
  H   H5        1.0  0.34842  0.29348  0.54574  1.0000
  H   H6        1.0  0.65158  0.54574  0.29348  1.0000
  H   H7        1.0  0.34842  0.04574  0.79349  1.0000
  H   H8        1.0  0.65158  0.79348  0.04574  1.0000
  H   H9        1.0  0.40186  0.37557  0.67910  1.0000
  H   H10       1.0  0.59814  0.67910  0.37556  1.0000
  H   H11       1.0  0.40186  0.17911  0.87557  1.0000
  H   H12       1.0  0.59814  0.87556  0.17910  1.0000
  C   C1        1.0  0.29180  0.80225  0.62217  1.0000
  C   C2        1.0  0.70820  0.62217  0.80225  1.0000
  C   C3        1.0  0.29181  0.12217  0.30225  1.0000
  C   C4        1.0  0.70820  0.30225  0.12217  1.0000
  C   C5        1.0  0.26475  0.75642  0.72608  1.0000
  C   C6        1.0  0.73524  0.72607  0.75641  1.0000
  C   C7        1.0  0.26477  0.22608  0.25641  1.0000
  C   C8        1.0  0.73525  0.25641  0.22607  1.0000
  C   C9        1.0  0.22636  0.70924  0.80528  1.0000
  C   C10       1.0  0.77364  0.80528  0.70923  1.0000
  C   C11       1.0  0.22637  0.30528  0.20923  1.0000
  C   C12       1.0  0.77364  0.20923  0.30527  1.0000
  C   C13       1.0  0.16577  0.65204  0.89513  1.0000
  C   C14       1.0  0.83422  0.89513  0.65203  1.0000
  C   C15       1.0  0.16577  0.39513  0.15203  1.0000
  C   C16       1.0  0.83422  0.15203  0.39513  1.0000
  O   O1        1.0  0.56727  0.13146  0.63146  1.0000
  O   O2        1.0  0.43275  0.63146  0.13146  1.0000
  O   O3        1.0  0.46596  0.86351  0.36351  1.0000
  O   O4        1.0  0.53401  0.36350  0.86350  1.0000
  O   O5        1.0  0.38796  0.90370  0.64411  1.0000
  O   O6        1.0  0.61204  0.64411  0.90369  1.0000
  O   O7        1.0  0.38796  0.14411  0.40369  1.0000
  O   O8        1.0  0.61204  0.40369  0.14411  1.0000
  O   O9        1.0  0.21801  0.74101  0.52155  1.0000
  O   O10       1.0  0.78199  0.52154  0.74101  1.0000
  O   O11       1.0  0.21801  0.02155  0.24101  1.0000
  O   O12       1.0  0.78199  0.24101  0.02154  1.0000
  O   O13       1.0  0.24415  0.54791  0.88823  1.0000
  O   O14       1.0  0.75585  0.88823  0.54790  1.0000
  O   O15       1.0  0.24415  0.38823  0.04790  1.0000
  O   O16       1.0  0.75584  0.04790  0.38823  1.0000
  O   O17       1.0  0.03811  0.70453  0.97063  1.0000
  O   O18       1.0  0.96189  0.97063  0.70453  1.0000
  O   O19       1.0  0.03811  0.47063  0.20453  1.0000
  O   O20       1.0  0.96189  0.20452  0.47063  1.0000
  O   O21       1.0  0.16583  0.03572  0.53572  1.0000
  O   O22       1.0  0.83417  0.53571  0.03571  1.0000
  O   O23       1.0  0.30618  0.36521  0.61492  1.0000
  O   O24       1.0  0.69383  0.61491  0.36521  1.0000
  O   O25       1.0  0.30618  0.11492  0.86522  1.0000
  O   O26       1.0  0.69382  0.86521  0.11491  1.0000
