data_image0
_chemical_formula_structural       Cu4H16C20N16
_chemical_formula_sum              "Cu4 H16 C20 N16"
_cell_length_a       7.98209
_cell_length_b       8.75128
_cell_length_c       8.96546
_cell_angle_alpha    111.791
_cell_angle_beta     90.0001
_cell_angle_gamma    90.0006

_space_group_name_H-M_alt    "P 1"
_space_group_IT_number       1

loop_
  _space_group_symop_operation_xyz
  'x, y, z'

loop_
  _atom_site_type_symbol
  _atom_site_label
  _atom_site_symmetry_multiplicity
  _atom_site_fract_x
  _atom_site_fract_y
  _atom_site_fract_z
  _atom_site_occupancy
  Cu  Cu1       1.0  0.86488  0.43267  0.38213  1.0000
  Cu  Cu2       1.0  0.36488  0.06734  0.11788  1.0000
  Cu  Cu3       1.0  0.13512  0.56733  0.61788  1.0000
  Cu  Cu4       1.0  0.63512  0.93266  0.88212  1.0000
  H   H1        1.0  0.51202  0.50484  0.33183  1.0000
  H   H2        1.0  0.01202  0.99516  0.16817  1.0000
  H   H3        1.0  0.48798  0.49516  0.66817  1.0000
  H   H4        1.0  0.98798  0.00484  0.83183  1.0000
  H   H5        1.0  0.33864  0.75250  0.39662  1.0000
  H   H6        1.0  0.83864  0.74749  0.10338  1.0000
  H   H7        1.0  0.66136  0.24749  0.60339  1.0000
  H   H8        1.0  0.16136  0.25251  0.89661  1.0000
  H   H9        1.0  0.79344  0.04054  0.54556  1.0000
  H   H10       1.0  0.29345  0.45947  0.95445  1.0000
  H   H11       1.0  0.20655  0.95946  0.45444  1.0000
  H   H12       1.0  0.70655  0.54053  0.04555  1.0000
  H   H13       1.0  0.94733  0.77900  0.47599  1.0000
  H   H14       1.0  0.44733  0.72101  0.02402  1.0000
  H   H15       1.0  0.05267  0.22100  0.52401  1.0000
  H   H16       1.0  0.55267  0.27899  0.97598  1.0000
  C   C1        1.0  0.56934  0.62655  0.38005  1.0000
  C   C2        1.0  0.06934  0.87345  0.11995  1.0000
  C   C3        1.0  0.43066  0.37345  0.61995  1.0000
  C   C4        1.0  0.93066  0.12655  0.88005  1.0000
  C   C5        1.0  0.47305  0.76758  0.41599  1.0000
  C   C6        1.0  0.97305  0.73242  0.08401  1.0000
  C   C7        1.0  0.52695  0.23242  0.58401  1.0000
  C   C8        1.0  0.02695  0.26758  0.91598  1.0000
  C   C9        1.0  0.54901  0.92358  0.47860  1.0000
  C   C10       1.0  0.04901  0.57642  0.02141  1.0000
  C   C11       1.0  0.45098  0.07642  0.52140  1.0000
  C   C12       1.0  0.95098  0.42358  0.97859  1.0000
  C   C13       1.0  0.72389  0.92563  0.49934  1.0000
  C   C14       1.0  0.22389  0.57437  0.00067  1.0000
  C   C15       1.0  0.27611  0.07437  0.50066  1.0000
  C   C16       1.0  0.77611  0.42563  0.99933  1.0000
  C   C17       1.0  0.81204  0.77951  0.45929  1.0000
  C   C18       1.0  0.31204  0.72050  0.04072  1.0000
  C   C19       1.0  0.18796  0.22049  0.54071  1.0000
  C   C20       1.0  0.68796  0.27950  0.95929  1.0000
  N   N1        1.0  0.73720  0.63031  0.40066  1.0000
  N   N2        1.0  0.23721  0.86970  0.09934  1.0000
  N   N3        1.0  0.26280  0.36969  0.59933  1.0000
  N   N4        1.0  0.76279  0.13030  0.90066  1.0000
  N   N5        1.0  0.10845  0.48324  0.34265  1.0000
  N   N6        1.0  0.60845  0.01678  0.15736  1.0000
  N   N7        1.0  0.89155  0.51677  0.65736  1.0000
  N   N8        1.0  0.39155  0.98322  0.84264  1.0000
  N   N9        1.0  0.20832  0.38570  0.26323  1.0000
  N   N10       1.0  0.70832  0.11430  0.23677  1.0000
  N   N11       1.0  0.79168  0.61430  0.73677  1.0000
  N   N12       1.0  0.29168  0.88570  0.76323  1.0000
  N   N13       1.0  0.18653  0.79586  0.68470  1.0000
  N   N14       1.0  0.68655  0.70414  0.81529  1.0000
  N   N15       1.0  0.81347  0.20414  0.31529  1.0000
  N   N16       1.0  0.31345  0.29587  0.18471  1.0000
