data_image0
_chemical_formula_structural       MnH22C26N12
_chemical_formula_sum              "Mn1 H22 C26 N12"
_cell_length_a       7.97622
_cell_length_b       8.48922
_cell_length_c       10.2627
_cell_angle_alpha    68.5821
_cell_angle_beta     84.0084
_cell_angle_gamma    69.7179

_space_group_name_H-M_alt    "P 1"
_space_group_IT_number       1

loop_
  _space_group_symop_operation_xyz
  'x, y, z'

loop_
  _atom_site_type_symbol
  _atom_site_label
  _atom_site_symmetry_multiplicity
  _atom_site_fract_x
  _atom_site_fract_y
  _atom_site_fract_z
  _atom_site_occupancy
  Mn  Mn1       1.0  0.00002  0.99998  0.00001  1.0000
  H   H1        1.0  0.85301  0.36639  0.08117  1.0000
  H   H2        1.0  0.14700  0.63360  0.91883  1.0000
  H   H3        1.0  0.70170  0.11829  0.58655  1.0000
  H   H4        1.0  0.29829  0.88171  0.41344  1.0000
  H   H5        1.0  0.75205  0.79101  0.69883  1.0000
  H   H6        1.0  0.24795  0.20899  0.30117  1.0000
  H   H7        1.0  0.86924  0.58828  0.56318  1.0000
  H   H8        1.0  0.13076  0.41172  0.43682  1.0000
  H   H9        1.0  0.95070  0.70582  0.31160  1.0000
  H   H10       1.0  0.04931  0.29417  0.68841  1.0000
  H   H11       1.0  0.26607  0.61002  0.55876  1.0000
  H   H12       1.0  0.73393  0.38998  0.44123  1.0000
  H   H13       1.0  0.16259  0.50866  0.71050  1.0000
  H   H14       1.0  0.83741  0.49134  0.28949  1.0000
  H   H15       1.0  0.39077  0.20624  0.74191  1.0000
  H   H16       1.0  0.60922  0.79376  0.25809  1.0000
  H   H17       1.0  0.67572  0.99530  0.85880  1.0000
  H   H18       1.0  0.32427  0.00470  0.14120  1.0000
  H   H19       1.0  0.83342  0.40868  0.86967  1.0000
  H   H20       1.0  0.16658  0.59132  0.13032  1.0000
  H   H21       1.0  0.55121  0.63574  0.75835  1.0000
  H   H22       1.0  0.44878  0.36427  0.24164  1.0000
  C   C1        1.0  0.85035  0.24836  0.17012  1.0000
  C   C2        1.0  0.14966  0.75163  0.82988  1.0000
  C   C3        1.0  0.86830  0.97781  0.30804  1.0000
  C   C4        1.0  0.13171  0.02219  0.69196  1.0000
  C   C5        1.0  0.79824  0.09224  0.38687  1.0000
  C   C6        1.0  0.20176  0.90776  0.61313  1.0000
  C   C7        1.0  0.75417  0.02918  0.52707  1.0000
  C   C8        1.0  0.24583  0.97082  0.47293  1.0000
  C   C9        1.0  0.78163  0.84614  0.58854  1.0000
  C   C10       1.0  0.21837  0.15386  0.41146  1.0000
  C   C11       1.0  0.85131  0.73065  0.51168  1.0000
  C   C12       1.0  0.14868  0.26935  0.48833  1.0000
  C   C13       1.0  0.89698  0.79371  0.37185  1.0000
  C   C14       1.0  0.10303  0.20628  0.62816  1.0000
  C   C15       1.0  0.26540  0.57288  0.67330  1.0000
  C   C16       1.0  0.73459  0.42712  0.32669  1.0000
  C   C17       1.0  0.48550  0.25803  0.76745  1.0000
  C   C18       1.0  0.51449  0.74198  0.23255  1.0000
  C   C19       1.0  0.64598  0.13776  0.83509  1.0000
  C   C20       1.0  0.35401  0.86225  0.16491  1.0000
  C   C21       1.0  0.73219  0.36724  0.84155  1.0000
  C   C22       1.0  0.26781  0.63276  0.15844  1.0000
  C   C23       1.0  0.57337  0.49531  0.77621  1.0000
  C   C24       1.0  0.42662  0.50469  0.22379  1.0000
  C   C25       1.0  0.44408  0.44191  0.73898  1.0000
  C   C26       1.0  0.55591  0.55810  0.26102  1.0000
  N   N1        1.0  0.89889  0.08073  0.17192  1.0000
  N   N2        1.0  0.10112  0.91926  0.82808  1.0000
  N   N3        1.0  0.79011  0.26222  0.29633  1.0000
  N   N4        1.0  0.20989  0.73778  0.70367  1.0000
  N   N5        1.0  0.77040  0.18816  0.87506  1.0000
  N   N6        1.0  0.22959  0.81185  0.12493  1.0000
  N   N7        1.0  0.11892  0.19258  0.93411  1.0000
  N   N8        1.0  0.88109  0.80741  0.06590  1.0000
  N   N9        1.0  0.17092  0.26678  0.99247  1.0000
  N   N10       1.0  0.82909  0.73323  0.00753  1.0000
  N   N11       1.0  0.22565  0.34263  0.04440  1.0000
  N   N12       1.0  0.77435  0.65737  0.95560  1.0000
