data_image0
_chemical_formula_structural       Cu4H32C40N8O16
_chemical_formula_sum              "Cu4 H32 C40 N8 O16"
_cell_length_a       9.4791
_cell_length_b       10.198
_cell_length_c       11.1551
_cell_angle_alpha    90.002
_cell_angle_beta     89.9998
_cell_angle_gamma    108.128

_space_group_name_H-M_alt    "P 1"
_space_group_IT_number       1

loop_
  _space_group_symop_operation_xyz
  'x, y, z'

loop_
  _atom_site_type_symbol
  _atom_site_label
  _atom_site_symmetry_multiplicity
  _atom_site_fract_x
  _atom_site_fract_y
  _atom_site_fract_z
  _atom_site_occupancy
  Cu  Cu1       1.0  0.27696  0.75199  0.25543  1.0000
  Cu  Cu2       1.0  0.22293  0.74806  0.75547  1.0000
  Cu  Cu3       1.0  0.72276  0.24791  0.74454  1.0000
  Cu  Cu4       1.0  0.77722  0.25206  0.24453  1.0000
  H   H1        1.0  0.25409  0.82049  0.00509  1.0000
  H   H2        1.0  0.24589  0.67950  0.50502  1.0000
  H   H3        1.0  0.74045  0.17972  0.99557  1.0000
  H   H4        1.0  0.75957  0.32027  0.49555  1.0000
  H   H5        1.0  0.98739  0.52951  0.17487  1.0000
  H   H6        1.0  0.51267  0.97052  0.67484  1.0000
  H   H7        1.0  0.01255  0.47107  0.82554  1.0000
  H   H8        1.0  0.48741  0.02888  0.32549  1.0000
  H   H9        1.0  0.31392  0.47012  0.21081  1.0000
  H   H10       1.0  0.18608  0.02991  0.71084  1.0000
  H   H11       1.0  0.68618  0.52933  0.78921  1.0000
  H   H12       1.0  0.81383  0.97066  0.28919  1.0000
  H   H13       1.0  0.46951  0.31219  0.23221  1.0000
  H   H14       1.0  0.03048  0.18782  0.73223  1.0000
  H   H15       1.0  0.53060  0.68729  0.76768  1.0000
  H   H16       1.0  0.96941  0.81271  0.26766  1.0000
  H   H17       1.0  0.86062  0.54313  0.48096  1.0000
  H   H18       1.0  0.63936  0.95688  0.98095  1.0000
  H   H19       1.0  0.13956  0.45636  0.51892  1.0000
  H   H20       1.0  0.36048  0.04365  0.01894  1.0000
  H   H21       1.0  0.93259  0.76817  0.58410  1.0000
  H   H22       1.0  0.56739  0.73184  0.08409  1.0000
  H   H23       1.0  0.06766  0.23129  0.41579  1.0000
  H   H24       1.0  0.43235  0.26871  0.91580  1.0000
  H   H25       1.0  0.77810  0.92758  0.56051  1.0000
  H   H26       1.0  0.72188  0.57242  0.06050  1.0000
  H   H27       1.0  0.22202  0.07184  0.43946  1.0000
  H   H28       1.0  0.27796  0.42813  0.93946  1.0000
  H   H29       1.0  0.55247  0.85845  0.43487  1.0000
  H   H30       1.0  0.94753  0.64156  0.93488  1.0000
  H   H31       1.0  0.44799  0.14115  0.56483  1.0000
  H   H32       1.0  0.05201  0.35884  0.06482  1.0000
  C   C1        1.0  0.24011  0.70936  0.00440  1.0000
  C   C2        1.0  0.25991  0.79064  0.50431  1.0000
  C   C3        1.0  0.75795  0.29154  0.99587  1.0000
  C   C4        1.0  0.74206  0.20846  0.49580  1.0000
  C   C5        1.0  0.01209  0.51168  0.26896  1.0000
  C   C6        1.0  0.48793  0.98832  0.76900  1.0000
  C   C7        1.0  0.98838  0.48900  0.73125  1.0000
  C   C8        1.0  0.51156  0.01097  0.23128  1.0000
  C   C9        1.0  0.41398  0.50072  0.26580  1.0000
  C   C10       1.0  0.08601  0.99930  0.76582  1.0000
  C   C11       1.0  0.58617  0.49876  0.73417  1.0000
  C   C12       1.0  0.91384  0.00123  0.23415  1.0000
  C   C13       1.0  0.50206  0.41181  0.27813  1.0000
  C   C14       1.0  0.99794  0.08820  0.77816  1.0000
  C   C15       1.0  0.49812  0.58767  0.72176  1.0000
  C   C16       1.0  0.00189  0.91233  0.22174  1.0000
  C   C17       1.0  0.79389  0.61208  0.47078  1.0000
  C   C18       1.0  0.70611  0.88794  0.97079  1.0000
  C   C19       1.0  0.20633  0.38739  0.52904  1.0000
  C   C20       1.0  0.29370  0.11261  0.02906  1.0000
  C   C21       1.0  0.83346  0.73825  0.52811  1.0000
  C   C22       1.0  0.66653  0.76177  0.02812  1.0000
  C   C23       1.0  0.16677  0.26119  0.47177  1.0000
  C   C24       1.0  0.33324  0.23882  0.97178  1.0000
  C   C25       1.0  0.74627  0.82768  0.51541  1.0000
  C   C26       1.0  0.75372  0.67233  0.01542  1.0000
  C   C27       1.0  0.25397  0.17178  0.48447  1.0000
  C   C28       1.0  0.24603  0.32821  0.98447  1.0000
  C   C29       1.0  0.61993  0.79020  0.44538  1.0000
  C   C30       1.0  0.88007  0.70981  0.94540  1.0000
  C   C31       1.0  0.38039  0.20926  0.55444  1.0000
  C   C32       1.0  0.11962  0.29073  0.05444  1.0000
  C   C33       1.0  0.57592  0.66128  0.38581  1.0000
  C   C34       1.0  0.92409  0.83873  0.88583  1.0000
  C   C35       1.0  0.42437  0.33815  0.61404  1.0000
  C   C36       1.0  0.07564  0.16185  0.11404  1.0000
  C   C37       1.0  0.66451  0.57045  0.39858  1.0000
  C   C38       1.0  0.83549  0.92956  0.89860  1.0000
  C   C39       1.0  0.33575  0.42895  0.60124  1.0000
  C   C40       1.0  0.16427  0.07106  0.10125  1.0000
  N   N1        1.0  0.44963  0.62325  0.31763  1.0000
  N   N2        1.0  0.05037  0.87677  0.81766  1.0000
  N   N3        1.0  0.55057  0.37622  0.68232  1.0000
  N   N4        1.0  0.94944  0.12376  0.18231  1.0000
  N   N5        1.0  0.62475  0.44467  0.34281  1.0000
  N   N6        1.0  0.87524  0.05534  0.84284  1.0000
  N   N7        1.0  0.37549  0.55477  0.65700  1.0000
  N   N8        1.0  0.12453  0.94523  0.15700  1.0000
  O   O1        1.0  0.24556  0.64794  0.10246  1.0000
  O   O2        1.0  0.25448  0.85208  0.60238  1.0000
  O   O3        1.0  0.75402  0.35232  0.89719  1.0000
  O   O4        1.0  0.74597  0.14771  0.39712  1.0000
  O   O5        1.0  0.11188  0.60350  0.32529  1.0000
  O   O6        1.0  0.38815  0.89645  0.82529  1.0000
  O   O7        1.0  0.88860  0.39732  0.67487  1.0000
  O   O8        1.0  0.61131  0.10258  0.17488  1.0000
  O   O9        1.0  0.21738  0.64313  0.90581  1.0000
  O   O10       1.0  0.28267  0.85685  0.40574  1.0000
  O   O11       1.0  0.78265  0.35735  0.09472  1.0000
  O   O12       1.0  0.71737  0.14262  0.59466  1.0000
  O   O13       1.0  0.93895  0.39987  0.31966  1.0000
  O   O14       1.0  0.56111  0.10018  0.81969  1.0000
  O   O15       1.0  0.06193  0.60081  0.68059  1.0000
  O   O16       1.0  0.43803  0.89920  0.18057  1.0000
