data_image0
_chemical_formula_structural       NiH20C20N2O8
_chemical_formula_sum              "Ni1 H20 C20 N2 O8"
_cell_length_a       5.66911
_cell_length_b       7.88458
_cell_length_c       10.7762
_cell_angle_alpha    107.107
_cell_angle_beta     96.1063
_cell_angle_gamma    98.1406

_space_group_name_H-M_alt    "P 1"
_space_group_IT_number       1

loop_
  _space_group_symop_operation_xyz
  'x, y, z'

loop_
  _atom_site_type_symbol
  _atom_site_label
  _atom_site_symmetry_multiplicity
  _atom_site_fract_x
  _atom_site_fract_y
  _atom_site_fract_z
  _atom_site_occupancy
  Ni  Ni1       1.0  0.00000  0.00000  0.00001  1.0000
  H   H1        1.0  0.32151  0.73745  0.87502  1.0000
  H   H2        1.0  0.67851  0.26258  0.12500  1.0000
  H   H3        1.0  0.32851  0.51525  0.66322  1.0000
  H   H4        1.0  0.67153  0.48476  0.33682  1.0000
  H   H5        1.0  0.66344  0.65373  0.51654  1.0000
  H   H6        1.0  0.33660  0.34624  0.48346  1.0000
  H   H7        1.0  0.67987  0.86479  0.73820  1.0000
  H   H8        1.0  0.32015  0.13521  0.26178  1.0000
  H   H9        1.0  0.75810  0.44635  0.75858  1.0000
  H   H10       1.0  0.24188  0.55363  0.24139  1.0000
  H   H11       1.0  0.60744  0.46058  0.89676  1.0000
  H   H12       1.0  0.39254  0.53944  0.10323  1.0000
  H   H13       1.0  0.12940  0.98569  0.60229  1.0000
  H   H14       1.0  0.87058  0.01431  0.39768  1.0000
  H   H15       1.0  0.86501  0.23066  0.61599  1.0000
  H   H16       1.0  0.13495  0.76931  0.38398  1.0000
  H   H17       1.0  0.75398  0.75530  0.05301  1.0000
  H   H18       1.0  0.24602  0.24472  0.94699  1.0000
  H   H19       1.0  0.55157  0.88059  0.06284  1.0000
  H   H20       1.0  0.44843  0.11943  0.93718  1.0000
  C   C1        1.0  0.17799  0.71534  0.79331  1.0000
  C   C2        1.0  0.82201  0.28467  0.20671  1.0000
  C   C3        1.0  0.18164  0.59090  0.67187  1.0000
  C   C4        1.0  0.81838  0.40910  0.32817  1.0000
  C   C5        1.0  0.99877  0.56367  0.56583  1.0000
  C   C6        1.0  0.00128  0.43634  0.43420  1.0000
  C   C7        1.0  0.81340  0.66427  0.59200  1.0000
  C   C8        1.0  0.18663  0.33573  0.40801  1.0000
  C   C9        1.0  0.82063  0.78490  0.71647  1.0000
  C   C10       1.0  0.17939  0.21511  0.28354  1.0000
  C   C11       1.0  0.86180  0.28056  0.87549  1.0000
  C   C12       1.0  0.13819  0.71946  0.12451  1.0000
  C   C13       1.0  0.67305  0.36752  0.81601  1.0000
  C   C14       1.0  0.32693  0.63250  0.18398  1.0000
  C   C15       1.0  0.49314  0.12337  0.62299  1.0000
  C   C16       1.0  0.50684  0.87661  0.37699  1.0000
  C   C17       1.0  0.29179  0.99080  0.55690  1.0000
  C   C18       1.0  0.70820  0.00917  0.44307  1.0000
  C   C19       1.0  0.29628  0.86864  0.43415  1.0000
  C   C20       1.0  0.70370  0.13133  0.56583  1.0000
  N   N1        1.0  0.00148  0.81293  0.81629  1.0000
  N   N2        1.0  0.99853  0.18708  0.18373  1.0000
  O   O1        1.0  0.78047  0.14002  0.90609  1.0000
  O   O2        1.0  0.21951  0.86001  0.09391  1.0000
  O   O3        1.0  0.92111  0.64515  0.10839  1.0000
  O   O4        1.0  0.07888  0.35485  0.89159  1.0000
  O   O5        1.0  0.46451  0.24164  0.74031  1.0000
  O   O6        1.0  0.53549  0.75834  0.25968  1.0000
  O   O7        1.0  0.67364  0.83571  0.00899  1.0000
  O   O8        1.0  0.32635  0.16431  0.99102  1.0000
