data_image0
_chemical_formula_structural       Cd2H16C12N20O8
_chemical_formula_sum              "Cd2 H16 C12 N20 O8"
_cell_length_a       8.67163
_cell_length_b       8.67163
_cell_length_c       8.86893
_cell_angle_alpha    76.9395
_cell_angle_beta     76.9396
_cell_angle_gamma    76.0967

_space_group_name_H-M_alt    "P 1"
_space_group_IT_number       1

loop_
  _space_group_symop_operation_xyz
  'x, y, z'

loop_
  _atom_site_type_symbol
  _atom_site_label
  _atom_site_symmetry_multiplicity
  _atom_site_fract_x
  _atom_site_fract_y
  _atom_site_fract_z
  _atom_site_occupancy
  Cd  Cd1       1.0  0.69976  0.30024  0.75000  1.0000
  Cd  Cd2       1.0  0.30025  0.69975  0.25000  1.0000
  H   H1        1.0  0.02699  0.70030  0.57878  1.0000
  H   H2        1.0  0.29971  0.97301  0.92121  1.0000
  H   H3        1.0  0.97301  0.29971  0.42122  1.0000
  H   H4        1.0  0.70029  0.02699  0.07879  1.0000
  H   H5        1.0  0.98726  0.51101  0.68662  1.0000
  H   H6        1.0  0.48899  0.01274  0.81338  1.0000
  H   H7        1.0  0.01274  0.48899  0.31338  1.0000
  H   H8        1.0  0.51101  0.98726  0.18662  1.0000
  H   H9        1.0  0.71620  0.01743  0.36243  1.0000
  H   H10       1.0  0.98257  0.28380  0.13758  1.0000
  H   H11       1.0  0.28380  0.98257  0.63758  1.0000
  H   H12       1.0  0.01743  0.71620  0.86242  1.0000
  H   H13       1.0  0.91232  0.91868  0.39831  1.0000
  H   H14       1.0  0.08132  0.08768  0.10169  1.0000
  H   H15       1.0  0.08768  0.08132  0.60169  1.0000
  H   H16       1.0  0.91868  0.91232  0.89831  1.0000
  C   C1        1.0  0.79934  0.65811  0.59483  1.0000
  C   C2        1.0  0.34189  0.20066  0.90517  1.0000
  C   C3        1.0  0.20066  0.34188  0.40517  1.0000
  C   C4        1.0  0.65812  0.79934  0.09483  1.0000
  C   C5        1.0  0.78476  0.94717  0.45373  1.0000
  C   C6        1.0  0.05283  0.21524  0.04627  1.0000
  C   C7        1.0  0.21524  0.05283  0.54627  1.0000
  C   C8        1.0  0.94717  0.78476  0.95373  1.0000
  C   C9        1.0  0.76471  0.04992  0.57814  1.0000
  C   C10       1.0  0.95008  0.23529  0.92186  1.0000
  C   C11       1.0  0.23529  0.95008  0.42186  1.0000
  C   C12       1.0  0.04992  0.76471  0.07814  1.0000
  N   N1        1.0  0.72645  0.79897  0.51450  1.0000
  N   N2        1.0  0.20103  0.27355  0.98550  1.0000
  N   N3        1.0  0.27355  0.20103  0.48550  1.0000
  N   N4        1.0  0.79897  0.72645  0.01450  1.0000
  N   N5        1.0  0.57322  0.78676  0.50792  1.0000
  N   N6        1.0  0.21324  0.42678  0.99208  1.0000
  N   N7        1.0  0.42678  0.21324  0.49208  1.0000
  N   N8        1.0  0.78676  0.57322  0.00792  1.0000
  N   N9        1.0  0.55502  0.64415  0.57891  1.0000
  N   N10       1.0  0.35585  0.44498  0.92109  1.0000
  N   N11       1.0  0.44498  0.35585  0.42109  1.0000
  N   N12       1.0  0.64415  0.55502  0.07891  1.0000
  N   N13       1.0  0.69159  0.55983  0.63433  1.0000
  N   N14       1.0  0.44017  0.30841  0.86567  1.0000
  N   N15       1.0  0.30841  0.44017  0.36567  1.0000
  N   N16       1.0  0.55983  0.69159  0.13433  1.0000
  N   N17       1.0  0.94680  0.62575  0.62990  1.0000
  N   N18       1.0  0.37425  0.05320  0.87010  1.0000
  N   N19       1.0  0.05320  0.37425  0.37010  1.0000
  N   N20       1.0  0.62575  0.94680  0.12990  1.0000
  O   O1        1.0  0.81539  0.18284  0.52915  1.0000
  O   O2        1.0  0.81716  0.18461  0.97085  1.0000
  O   O3        1.0  0.18461  0.81716  0.47085  1.0000
  O   O4        1.0  0.18284  0.81539  0.02915  1.0000
  O   O5        1.0  0.70078  0.00456  0.71875  1.0000
  O   O6        1.0  0.99544  0.29922  0.78125  1.0000
  O   O7        1.0  0.29922  0.99544  0.28125  1.0000
  O   O8        1.0  0.00456  0.70078  0.21875  1.0000
