data_image0
_chemical_formula_structural       Ba2Ni2H20C12O22
_chemical_formula_sum              "Ba2 Ni2 H20 C12 O22"
_cell_length_a       7.12032
_cell_length_b       9.26033
_cell_length_c       9.26044
_cell_angle_alpha    97.2827
_cell_angle_beta     90.8065
_cell_angle_gamma    90.8062

_space_group_name_H-M_alt    "P 1"
_space_group_IT_number       1

loop_
  _space_group_symop_operation_xyz
  'x, y, z'

loop_
  _atom_site_type_symbol
  _atom_site_label
  _atom_site_symmetry_multiplicity
  _atom_site_fract_x
  _atom_site_fract_y
  _atom_site_fract_z
  _atom_site_occupancy
  Ba  Ba1       1.0  0.91789  0.31777  0.49309  1.0000
  Ba  Ba2       1.0  0.41789  0.49309  0.31777  1.0000
  Ni  Ni1       1.0  0.05229  0.38841  0.89580  1.0000
  Ni  Ni2       1.0  0.55230  0.89580  0.38841  1.0000
  H   H1        1.0  0.30976  0.19918  0.84894  1.0000
  H   H2        1.0  0.80977  0.84894  0.19918  1.0000
  H   H3        1.0  0.12333  0.12703  0.77867  1.0000
  H   H4        1.0  0.62333  0.77867  0.12703  1.0000
  H   H5        1.0  0.79107  0.59046  0.95657  1.0000
  H   H6        1.0  0.29107  0.95657  0.59045  1.0000
  H   H7        1.0  0.86760  0.59530  0.79782  1.0000
  H   H8        1.0  0.36760  0.79781  0.59531  1.0000
  H   H9        1.0  0.49166  0.22467  0.46502  1.0000
  H   H10       1.0  0.99166  0.46502  0.22467  1.0000
  H   H11       1.0  0.51595  0.30643  0.62521  1.0000
  H   H12       1.0  0.01595  0.62521  0.30643  1.0000
  H   H13       1.0  0.58425  0.11794  0.00977  1.0000
  H   H14       1.0  0.08425  0.00977  0.11793  1.0000
  H   H15       1.0  0.82389  0.09252  0.95916  1.0000
  H   H16       1.0  0.32390  0.95916  0.09251  1.0000
  H   H17       1.0  0.44699  0.72870  0.83243  1.0000
  H   H18       1.0  0.94699  0.83243  0.72870  1.0000
  H   H19       1.0  0.21250  0.71506  0.89589  1.0000
  H   H20       1.0  0.71250  0.89589  0.71507  1.0000
  C   C1        1.0  0.68002  0.24082  0.83953  1.0000
  C   C2        1.0  0.18003  0.83953  0.24082  1.0000
  C   C3        1.0  0.71152  0.17276  0.97877  1.0000
  C   C4        1.0  0.21152  0.97877  0.17275  1.0000
  C   C5        1.0  0.78022  0.28408  0.10392  1.0000
  C   C6        1.0  0.28023  0.10392  0.28407  1.0000
  C   C7        1.0  0.26837  0.56582  0.71052  1.0000
  C   C8        1.0  0.76837  0.71052  0.56582  1.0000
  C   C9        1.0  0.33536  0.65227  0.85416  1.0000
  C   C10       1.0  0.83536  0.85416  0.65227  1.0000
  C   C11       1.0  0.39580  0.56617  0.97549  1.0000
  C   C12       1.0  0.89580  0.97548  0.56617  1.0000
  O   O1        1.0  0.82161  0.29523  0.77979  1.0000
  O   O2        1.0  0.32161  0.77979  0.29523  1.0000
  O   O3        1.0  0.51577  0.24146  0.78654  1.0000
  O   O4        1.0  0.01577  0.78654  0.24146  1.0000
  O   O5        1.0  0.92396  0.36242  0.08215  1.0000
  O   O6        1.0  0.42395  0.08215  0.36242  1.0000
  O   O7        1.0  0.69684  0.29507  0.22428  1.0000
  O   O8        1.0  0.19684  0.22428  0.29506  1.0000
  O   O9        1.0  0.17399  0.44697  0.71108  1.0000
  O   O10       1.0  0.67399  0.71107  0.44697  1.0000
  O   O11       1.0  0.30606  0.61890  0.59494  1.0000
  O   O12       1.0  0.80606  0.59494  0.61891  1.0000
  O   O13       1.0  0.28422  0.46947  0.01453  1.0000
  O   O14       1.0  0.78422  0.01453  0.46947  1.0000
  O   O15       1.0  0.55228  0.59737  0.04190  1.0000
  O   O16       1.0  0.05228  0.04190  0.59738  1.0000
  O   O17       1.0  0.17377  0.18218  0.86991  1.0000
  O   O18       1.0  0.67378  0.86991  0.18218  1.0000
  O   O19       1.0  0.90856  0.59072  0.90116  1.0000
  O   O20       1.0  0.40856  0.90117  0.59071  1.0000
  O   O21       1.0  0.53510  0.32008  0.52089  1.0000
  O   O22       1.0  0.03510  0.52089  0.32008  1.0000
