data_image0
_chemical_formula_structural       U2H14C14N2O10
_chemical_formula_sum              "U2 H14 C14 N2 O10"
_cell_length_a       6.38034
_cell_length_b       8.26201
_cell_length_c       9.024
_cell_angle_alpha    91.8485
_cell_angle_beta     96.2872
_cell_angle_gamma    110.129

_space_group_name_H-M_alt    "P 1"
_space_group_IT_number       1

loop_
  _space_group_symop_operation_xyz
  'x, y, z'

loop_
  _atom_site_type_symbol
  _atom_site_label
  _atom_site_symmetry_multiplicity
  _atom_site_fract_x
  _atom_site_fract_y
  _atom_site_fract_z
  _atom_site_occupancy
  U   U1        1.0  0.31445  0.28985  0.38496  1.0000
  U   U2        1.0  0.68555  0.71017  0.61500  1.0000
  H   H1        1.0  0.21035  0.58642  0.53011  1.0000
  H   H2        1.0  0.78963  0.41357  0.46989  1.0000
  H   H3        1.0  0.31497  0.88624  0.35065  1.0000
  H   H4        1.0  0.68504  0.11376  0.64935  1.0000
  H   H5        1.0  0.10581  0.58324  0.24895  1.0000
  H   H6        1.0  0.89420  0.41676  0.75104  1.0000
  H   H7        1.0  0.72744  0.51479  0.09295  1.0000
  H   H8        1.0  0.27256  0.48521  0.90704  1.0000
  H   H9        1.0  0.59105  0.75787  0.03537  1.0000
  H   H10       1.0  0.40894  0.24213  0.96464  1.0000
  H   H11       1.0  0.65933  0.05717  0.04233  1.0000
  H   H12       1.0  0.34067  0.94283  0.95768  1.0000
  H   H13       1.0  0.94386  0.19952  0.08337  1.0000
  H   H14       1.0  0.05614  0.80048  0.91664  1.0000
  C   C1        1.0  0.15391  0.85294  0.28013  1.0000
  C   C2        1.0  0.84610  0.14705  0.71987  1.0000
  C   C3        1.0  0.03455  0.68316  0.22473  1.0000
  C   C4        1.0  0.96545  0.31684  0.77527  1.0000
  C   C5        1.0  0.82728  0.64623  0.13736  1.0000
  C   C6        1.0  0.17273  0.35377  0.86264  1.0000
  C   C7        1.0  0.74970  0.78102  0.10592  1.0000
  C   C8        1.0  0.25030  0.21899  0.89409  1.0000
  C   C9        1.0  0.88120  0.94891  0.16228  1.0000
  C   C10       1.0  0.11880  0.05109  0.83772  1.0000
  C   C11       1.0  0.80684  0.09842  0.12729  1.0000
  C   C12       1.0  0.19316  0.90157  0.87272  1.0000
  C   C13       1.0  0.75483  0.18038  0.26507  1.0000
  C   C14       1.0  0.24518  0.81961  0.73493  1.0000
  N   N1        1.0  0.07962  0.98415  0.24979  1.0000
  N   N2        1.0  0.92039  0.01584  0.75022  1.0000
  O   O1        1.0  0.33055  0.16328  0.54328  1.0000
  O   O2        1.0  0.66946  0.83672  0.45671  1.0000
  O   O3        1.0  0.29362  0.40243  0.21731  1.0000
  O   O4        1.0  0.70638  0.59757  0.78268  1.0000
  O   O5        1.0  0.91067  0.24522  0.37411  1.0000
  O   O6        1.0  0.08932  0.75478  0.62589  1.0000
  O   O7        1.0  0.55723  0.18322  0.26275  1.0000
  O   O8        1.0  0.44278  0.81678  0.73726  1.0000
  O   O9        1.0  0.31598  0.52322  0.53439  1.0000
  O   O10       1.0  0.68402  0.47679  0.46559  1.0000
