data_image0
_chemical_formula_structural       Li4H36C20I4N4O8
_chemical_formula_sum              "Li4 H36 C20 I4 N4 O8"
_cell_length_a       5.0723
_cell_length_b       9.90913
_cell_length_c       15.9757
_cell_angle_alpha    90.0001
_cell_angle_beta     89.9998
_cell_angle_gamma    89.9997

_space_group_name_H-M_alt    "P 1"
_space_group_IT_number       1

loop_
  _space_group_symop_operation_xyz
  'x, y, z'

loop_
  _atom_site_type_symbol
  _atom_site_label
  _atom_site_symmetry_multiplicity
  _atom_site_fract_x
  _atom_site_fract_y
  _atom_site_fract_z
  _atom_site_occupancy
  Li  Li1       1.0  0.81533  0.49231  0.44383  1.0000
  Li  Li2       1.0  0.31533  0.50769  0.55617  1.0000
  Li  Li3       1.0  0.31532  0.00769  0.94383  1.0000
  Li  Li4       1.0  0.81532  0.99231  0.05617  1.0000
  H   H1        1.0  0.64403  0.30396  0.32693  1.0000
  H   H2        1.0  0.14404  0.69604  0.67306  1.0000
  H   H3        1.0  0.14403  0.19604  0.82693  1.0000
  H   H4        1.0  0.64403  0.80396  0.17307  1.0000
  H   H5        1.0  0.07400  0.01375  0.28978  1.0000
  H   H6        1.0  0.57399  0.98625  0.71022  1.0000
  H   H7        1.0  0.57400  0.48626  0.78979  1.0000
  H   H8        1.0  0.07400  0.51374  0.21021  1.0000
  H   H9        1.0  0.42173  0.98929  0.27704  1.0000
  H   H10       1.0  0.92173  0.01071  0.72296  1.0000
  H   H11       1.0  0.92173  0.51071  0.77704  1.0000
  H   H12       1.0  0.42173  0.48929  0.22296  1.0000
  H   H13       1.0  0.12801  0.24215  0.28328  1.0000
  H   H14       1.0  0.62801  0.75785  0.71672  1.0000
  H   H15       1.0  0.62801  0.25785  0.78327  1.0000
  H   H16       1.0  0.12801  0.74215  0.21672  1.0000
  H   H17       1.0  0.40848  0.20345  0.23136  1.0000
  H   H18       1.0  0.90848  0.79655  0.76864  1.0000
  H   H19       1.0  0.90849  0.29655  0.73136  1.0000
  H   H20       1.0  0.40848  0.70345  0.26864  1.0000
  H   H21       1.0  0.37443  0.93862  0.42363  1.0000
  H   H22       1.0  0.87442  0.06138  0.57637  1.0000
  H   H23       1.0  0.87443  0.56138  0.92364  1.0000
  H   H24       1.0  0.37444  0.43862  0.07636  1.0000
  H   H25       1.0  0.14354  0.07189  0.43996  1.0000
  H   H26       1.0  0.64354  0.92812  0.56004  1.0000
  H   H27       1.0  0.64354  0.42811  0.93996  1.0000
  H   H28       1.0  0.14355  0.57189  0.06004  1.0000
  H   H29       1.0  0.73067  0.09750  0.39663  1.0000
  H   H30       1.0  0.23067  0.90250  0.60336  1.0000
  H   H31       1.0  0.23067  0.40249  0.89664  1.0000
  H   H32       1.0  0.73068  0.59750  0.10336  1.0000
  H   H33       1.0  0.56285  0.17885  0.48074  1.0000
  H   H34       1.0  0.06285  0.82115  0.51926  1.0000
  H   H35       1.0  0.06285  0.32115  0.98074  1.0000
  H   H36       1.0  0.56286  0.67885  0.01926  1.0000
  C   C1        1.0  0.46946  0.25870  0.35632  1.0000
  C   C2        1.0  0.96947  0.74130  0.64368  1.0000
  C   C3        1.0  0.96946  0.24130  0.85632  1.0000
  C   C4        1.0  0.46946  0.75870  0.14368  1.0000
  C   C5        1.0  0.26940  0.04663  0.31067  1.0000
  C   C6        1.0  0.76940  0.95337  0.68933  1.0000
  C   C7        1.0  0.76940  0.45337  0.81068  1.0000
  C   C8        1.0  0.26940  0.54663  0.18933  1.0000
  C   C9        1.0  0.31904  0.04099  0.40451  1.0000
  C   C10       1.0  0.81904  0.95901  0.59549  1.0000
  C   C11       1.0  0.81904  0.45901  0.90451  1.0000
  C   C12       1.0  0.31905  0.54099  0.09549  1.0000
  C   C13       1.0  0.54277  0.14276  0.41617  1.0000
  C   C14       1.0  0.04277  0.85724  0.58383  1.0000
  C   C15       1.0  0.04277  0.35724  0.91617  1.0000
  C   C16       1.0  0.54278  0.64276  0.08383  1.0000
  C   C17       1.0  0.30985  0.36833  0.40065  1.0000
  C   C18       1.0  0.80986  0.63167  0.59935  1.0000
  C   C19       1.0  0.80987  0.13167  0.90065  1.0000
  C   C20       1.0  0.30987  0.86833  0.09935  1.0000
  I   I1        1.0  0.79329  0.74305  0.35460  1.0000
  I   I2        1.0  0.29330  0.25696  0.64540  1.0000
  I   I3        1.0  0.29330  0.75695  0.85460  1.0000
  I   I4        1.0  0.79331  0.24304  0.14540  1.0000
  N   N1        1.0  0.30823  0.19311  0.28868  1.0000
  N   N2        1.0  0.80824  0.80689  0.71132  1.0000
  N   N3        1.0  0.80824  0.30689  0.78868  1.0000
  N   N4        1.0  0.30824  0.69311  0.21132  1.0000
  O   O1        1.0  0.44330  0.44403  0.44918  1.0000
  O   O2        1.0  0.94331  0.55597  0.55082  1.0000
  O   O3        1.0  0.94328  0.05597  0.94918  1.0000
  O   O4        1.0  0.44329  0.94403  0.05082  1.0000
  O   O5        1.0  0.06422  0.37374  0.38831  1.0000
  O   O6        1.0  0.56423  0.62626  0.61169  1.0000
  O   O7        1.0  0.56420  0.12626  0.88830  1.0000
  O   O8        1.0  0.06420  0.87374  0.11170  1.0000
