data_image0
_chemical_formula_structural       Li4H36C20Br4N4O8
_chemical_formula_sum              "Li4 H36 C20 Br4 N4 O8"
_cell_length_a       5.00881
_cell_length_b       9.64423
_cell_length_c       15.4502
_cell_angle_alpha    90.0002
_cell_angle_beta     90.0008
_cell_angle_gamma    90.0002

_space_group_name_H-M_alt    "P 1"
_space_group_IT_number       1

loop_
  _space_group_symop_operation_xyz
  'x, y, z'

loop_
  _atom_site_type_symbol
  _atom_site_label
  _atom_site_symmetry_multiplicity
  _atom_site_fract_x
  _atom_site_fract_y
  _atom_site_fract_z
  _atom_site_occupancy
  Li  Li1       1.0  0.97918  0.24697  0.06136  1.0000
  Li  Li2       1.0  0.47918  0.25301  0.93865  1.0000
  Li  Li3       1.0  0.52082  0.75305  0.56135  1.0000
  Li  Li4       1.0  0.02084  0.74699  0.43865  1.0000
  H   H1        1.0  0.65237  0.51115  0.23348  1.0000
  H   H2        1.0  0.15234  0.98885  0.76652  1.0000
  H   H3        1.0  0.84765  0.48886  0.73348  1.0000
  H   H4        1.0  0.34764  0.01115  0.26652  1.0000
  H   H5        1.0  0.13670  0.45660  0.17211  1.0000
  H   H6        1.0  0.63670  0.04338  0.82789  1.0000
  H   H7        1.0  0.36329  0.54339  0.67210  1.0000
  H   H8        1.0  0.86329  0.95662  0.32790  1.0000
  H   H9        1.0  0.35330  0.55351  0.27742  1.0000
  H   H10       1.0  0.85329  0.94648  0.72259  1.0000
  H   H11       1.0  0.14670  0.44649  0.77741  1.0000
  H   H12       1.0  0.64670  0.05351  0.22258  1.0000
  H   H13       1.0  0.72407  0.74106  0.22734  1.0000
  H   H14       1.0  0.22405  0.75893  0.77266  1.0000
  H   H15       1.0  0.77594  0.25894  0.72734  1.0000
  H   H16       1.0  0.27595  0.24107  0.27265  1.0000
  H   H17       1.0  0.37127  0.77363  0.23232  1.0000
  H   H18       1.0  0.87128  0.72635  0.76768  1.0000
  H   H19       1.0  0.12873  0.22637  0.73232  1.0000
  H   H20       1.0  0.62873  0.27364  0.26767  1.0000
  H   H21       1.0  0.68814  0.68750  0.07098  1.0000
  H   H22       1.0  0.18816  0.81249  0.92902  1.0000
  H   H23       1.0  0.81182  0.31250  0.57098  1.0000
  H   H24       1.0  0.31184  0.18751  0.42901  1.0000
  H   H25       1.0  0.45827  0.82716  0.08247  1.0000
  H   H26       1.0  0.95826  0.67282  0.91753  1.0000
  H   H27       1.0  0.04173  0.17284  0.58247  1.0000
  H   H28       1.0  0.54173  0.32718  0.41753  1.0000
  H   H29       1.0  0.27273  0.58314  0.01668  1.0000
  H   H30       1.0  0.77274  0.91685  0.98332  1.0000
  H   H31       1.0  0.22724  0.41686  0.51668  1.0000
  H   H32       1.0  0.72726  0.08315  0.48331  1.0000
  H   H33       1.0  0.08400  0.66956  0.09834  1.0000
  H   H34       1.0  0.58400  0.83043  0.90166  1.0000
  H   H35       1.0  0.41599  0.33044  0.59833  1.0000
  H   H36       1.0  0.91600  0.16957  0.40166  1.0000
  C   C1        1.0  0.48490  0.38332  0.10384  1.0000
  C   C2        1.0  0.98487  0.11666  0.89616  1.0000
  C   C3        1.0  0.01512  0.61667  0.60383  1.0000
  C   C4        1.0  0.51513  0.88334  0.39617  1.0000
  C   C5        1.0  0.32468  0.49901  0.14712  1.0000
  C   C6        1.0  0.82467  0.00098  0.85288  1.0000
  C   C7        1.0  0.17530  0.50099  0.64712  1.0000
  C   C8        1.0  0.67535  0.99903  0.35288  1.0000
  C   C9        1.0  0.52869  0.71269  0.20080  1.0000
  C   C10       1.0  0.02868  0.78729  0.79919  1.0000
  C   C11       1.0  0.97130  0.28731  0.70080  1.0000
  C   C12       1.0  0.47132  0.21271  0.29920  1.0000
  C   C13       1.0  0.50341  0.72098  0.10292  1.0000
  C   C14       1.0  0.00339  0.77900  0.89707  1.0000
  C   C15       1.0  0.99658  0.27901  0.60293  1.0000
  C   C16       1.0  0.49661  0.22100  0.39708  1.0000
  C   C17       1.0  0.27606  0.61986  0.08380  1.0000
  C   C18       1.0  0.77604  0.88012  0.91620  1.0000
  C   C19       1.0  0.22393  0.38014  0.58380  1.0000
  C   C20       1.0  0.72396  0.11988  0.41620  1.0000
  Br  Br1       1.0  0.00939  0.01259  0.14612  1.0000
  Br  Br2       1.0  0.50940  0.48736  0.85388  1.0000
  Br  Br3       1.0  0.49062  0.98745  0.64612  1.0000
  Br  Br4       1.0  0.99062  0.51261  0.35388  1.0000
  N   N1        1.0  0.47379  0.56279  0.22173  1.0000
  N   N2        1.0  0.97378  0.93720  0.77827  1.0000
  N   N3        1.0  0.02621  0.43721  0.72173  1.0000
  N   N4        1.0  0.52622  0.06279  0.27827  1.0000
  O   O1        1.0  0.73201  0.37385  0.11909  1.0000
  O   O2        1.0  0.23199  0.12615  0.88091  1.0000
  O   O3        1.0  0.76802  0.62616  0.61908  1.0000
  O   O4        1.0  0.26802  0.87384  0.38092  1.0000
  O   O5        1.0  0.35071  0.30713  0.05246  1.0000
  O   O6        1.0  0.85071  0.19285  0.94755  1.0000
  O   O7        1.0  0.14930  0.69287  0.55245  1.0000
  O   O8        1.0  0.64933  0.80716  0.44756  1.0000
