data_image0
_chemical_formula_structural       Li4H36C20N4Cl4O8
_chemical_formula_sum              "Li4 H36 C20 N4 Cl4 O8"
_cell_length_a       5.04408
_cell_length_b       11.1741
_cell_length_c       13.0167
_cell_angle_alpha    90.0001
_cell_angle_beta     90.0003
_cell_angle_gamma    90.0002

_space_group_name_H-M_alt    "P 1"
_space_group_IT_number       1

loop_
  _space_group_symop_operation_xyz
  'x, y, z'

loop_
  _atom_site_type_symbol
  _atom_site_label
  _atom_site_symmetry_multiplicity
  _atom_site_fract_x
  _atom_site_fract_y
  _atom_site_fract_z
  _atom_site_occupancy
  Li  Li1       1.0  0.48298  0.41735  0.75746  1.0000
  Li  Li2       1.0  0.98299  0.58266  0.74255  1.0000
  Li  Li3       1.0  0.01702  0.91734  0.24254  1.0000
  Li  Li4       1.0  0.51702  0.08265  0.25746  1.0000
  H   H1        1.0  0.29787  0.73883  0.49186  1.0000
  H   H2        1.0  0.79787  0.26117  0.00814  1.0000
  H   H3        1.0  0.20214  0.23883  0.50814  1.0000
  H   H4        1.0  0.70213  0.76117  0.99186  1.0000
  H   H5        1.0  0.81404  0.71690  0.57433  1.0000
  H   H6        1.0  0.31403  0.28310  0.92567  1.0000
  H   H7        1.0  0.68598  0.21690  0.42567  1.0000
  H   H8        1.0  0.18597  0.78310  0.07433  1.0000
  H   H9        1.0  0.59872  0.77553  0.43940  1.0000
  H   H10       1.0  0.09872  0.22446  0.06060  1.0000
  H   H11       1.0  0.90128  0.27554  0.56060  1.0000
  H   H12       1.0  0.40128  0.72446  0.93940  1.0000
  H   H13       1.0  0.21629  0.93463  0.47517  1.0000
  H   H14       1.0  0.71628  0.06536  0.02482  1.0000
  H   H15       1.0  0.28370  0.43464  0.52483  1.0000
  H   H16       1.0  0.78370  0.56536  0.97517  1.0000
  H   H17       1.0  0.55958  0.97037  0.48121  1.0000
  H   H18       1.0  0.05958  0.02962  0.01879  1.0000
  H   H19       1.0  0.94040  0.47038  0.51879  1.0000
  H   H20       1.0  0.44041  0.52963  0.98121  1.0000
  H   H21       1.0  0.20462  0.89990  0.66427  1.0000
  H   H22       1.0  0.70462  0.10010  0.83572  1.0000
  H   H23       1.0  0.29538  0.39990  0.33572  1.0000
  H   H24       1.0  0.79538  0.60010  0.16427  1.0000
  H   H25       1.0  0.41564  0.02799  0.65380  1.0000
  H   H26       1.0  0.91564  0.97202  0.84620  1.0000
  H   H27       1.0  0.08435  0.52798  0.34620  1.0000
  H   H28       1.0  0.58435  0.47201  0.15380  1.0000
  H   H29       1.0  0.60583  0.82887  0.75024  1.0000
  H   H30       1.0  0.10583  0.17114  0.74976  1.0000
  H   H31       1.0  0.89417  0.32886  0.24976  1.0000
  H   H32       1.0  0.39418  0.67113  0.25024  1.0000
  H   H33       1.0  0.81088  0.90245  0.65989  1.0000
  H   H34       1.0  0.31087  0.09755  0.84011  1.0000
  H   H35       1.0  0.68912  0.40245  0.34011  1.0000
  H   H36       1.0  0.18912  0.59755  0.15989  1.0000
  C   C1        1.0  0.46872  0.64043  0.64700  1.0000
  C   C2        1.0  0.96869  0.35957  0.85301  1.0000
  C   C3        1.0  0.03132  0.14044  0.35301  1.0000
  C   C4        1.0  0.53131  0.85956  0.14700  1.0000
  C   C5        1.0  0.61486  0.74530  0.59759  1.0000
  C   C6        1.0  0.11486  0.25470  0.90242  1.0000
  C   C7        1.0  0.88514  0.24530  0.40242  1.0000
  C   C8        1.0  0.38514  0.75469  0.09758  1.0000
  C   C9        1.0  0.40089  0.91735  0.51655  1.0000
  C   C10       1.0  0.90089  0.08264  0.98344  1.0000
  C   C11       1.0  0.09910  0.41736  0.48344  1.0000
  C   C12       1.0  0.59910  0.58264  0.01656  1.0000
  C   C13       1.0  0.39202  0.93361  0.63243  1.0000
  C   C14       1.0  0.89202  0.06639  0.86757  1.0000
  C   C15       1.0  0.10797  0.43361  0.36757  1.0000
  C   C16       1.0  0.60798  0.56639  0.13243  1.0000
  C   C17       1.0  0.62140  0.85543  0.66951  1.0000
  C   C18       1.0  0.12140  0.14457  0.83049  1.0000
  C   C19       1.0  0.87860  0.35543  0.33048  1.0000
  C   C20       1.0  0.37860  0.64457  0.16951  1.0000
  N   N1        1.0  0.47084  0.78754  0.50294  1.0000
  N   N2        1.0  0.97083  0.21245  0.99706  1.0000
  N   N3        1.0  0.02917  0.28755  0.49706  1.0000
  N   N4        1.0  0.52916  0.71245  0.00294  1.0000
  Cl  Cl1       1.0  0.55512  0.25741  0.63712  1.0000
  Cl  Cl2       1.0  0.05512  0.74260  0.86289  1.0000
  Cl  Cl3       1.0  0.94487  0.75740  0.36288  1.0000
  Cl  Cl4       1.0  0.44487  0.24259  0.13712  1.0000
  O   O1        1.0  0.22300  0.63036  0.63055  1.0000
  O   O2        1.0  0.72301  0.36964  0.86946  1.0000
  O   O3        1.0  0.27700  0.13036  0.36946  1.0000
  O   O4        1.0  0.77699  0.86964  0.13054  1.0000
  O   O5        1.0  0.60823  0.57202  0.70387  1.0000
  O   O6        1.0  0.10823  0.42798  0.79613  1.0000
  O   O7        1.0  0.89178  0.07202  0.29612  1.0000
  O   O8        1.0  0.39178  0.92797  0.20388  1.0000
