data_image0
_chemical_formula_structural       Li4H36C20I4N4O8
_chemical_formula_sum              "Li4 H36 C20 I4 N4 O8"
_cell_length_a       5.05595
_cell_length_b       9.94577
_cell_length_c       15.9392
_cell_angle_alpha    89.9998
_cell_angle_beta     90.0002
_cell_angle_gamma    89.9995

_space_group_name_H-M_alt    "P 1"
_space_group_IT_number       1

loop_
  _space_group_symop_operation_xyz
  'x, y, z'

loop_
  _atom_site_type_symbol
  _atom_site_label
  _atom_site_symmetry_multiplicity
  _atom_site_fract_x
  _atom_site_fract_y
  _atom_site_fract_z
  _atom_site_occupancy
  Li  Li1       1.0  0.52579  0.75593  0.94356  1.0000
  Li  Li2       1.0  0.97422  0.24407  0.44356  1.0000
  Li  Li3       1.0  0.02577  0.74407  0.05644  1.0000
  Li  Li4       1.0  0.47423  0.25593  0.55644  1.0000
  H   H1        1.0  0.77726  0.23241  0.79494  1.0000
  H   H2        1.0  0.72274  0.76759  0.29494  1.0000
  H   H3        1.0  0.27726  0.26759  0.20506  1.0000
  H   H4        1.0  0.22274  0.73241  0.70506  1.0000
  H   H5        1.0  0.12292  0.25988  0.77728  1.0000
  H   H6        1.0  0.37707  0.74012  0.27728  1.0000
  H   H7        1.0  0.62292  0.24012  0.22272  1.0000
  H   H8        1.0  0.87707  0.75988  0.72272  1.0000
  H   H9        1.0  0.09544  0.30506  0.92556  1.0000
  H   H10       1.0  0.40456  0.69493  0.42556  1.0000
  H   H11       1.0  0.59544  0.19494  0.07444  1.0000
  H   H12       1.0  0.90455  0.80507  0.57444  1.0000
  H   H13       1.0  0.86577  0.17212  0.94327  1.0000
  H   H14       1.0  0.63424  0.82787  0.44327  1.0000
  H   H15       1.0  0.36576  0.32788  0.05673  1.0000
  H   H16       1.0  0.13424  0.67212  0.55673  1.0000
  H   H17       1.0  0.35218  0.94125  0.82334  1.0000
  H   H18       1.0  0.14783  0.05876  0.32335  1.0000
  H   H19       1.0  0.85217  0.55876  0.17665  1.0000
  H   H20       1.0  0.64783  0.44124  0.67665  1.0000
  H   H21       1.0  0.11525  0.04706  0.73034  1.0000
  H   H22       1.0  0.38475  0.95294  0.23034  1.0000
  H   H23       1.0  0.61524  0.45294  0.26966  1.0000
  H   H24       1.0  0.88475  0.54706  0.76966  1.0000
  H   H25       1.0  0.83600  0.00637  0.78289  1.0000
  H   H26       1.0  0.66400  0.99363  0.28289  1.0000
  H   H27       1.0  0.33599  0.49363  0.21711  1.0000
  H   H28       1.0  0.16400  0.50637  0.71712  1.0000
  H   H29       1.0  0.29014  0.06461  0.97842  1.0000
  H   H30       1.0  0.20987  0.93539  0.47842  1.0000
  H   H31       1.0  0.79013  0.43539  0.02158  1.0000
  H   H32       1.0  0.70987  0.56461  0.52158  1.0000
  H   H33       1.0  0.44956  0.14678  0.89298  1.0000
  H   H34       1.0  0.05044  0.85322  0.39298  1.0000
  H   H35       1.0  0.94956  0.35322  0.10702  1.0000
  H   H36       1.0  0.55043  0.64678  0.60702  1.0000
  C   C1        1.0  0.97713  0.20056  0.81252  1.0000
  C   C2        1.0  0.52286  0.79944  0.31252  1.0000
  C   C3        1.0  0.47713  0.29945  0.18748  1.0000
  C   C4        1.0  0.02286  0.70055  0.68748  1.0000
  C   C5        1.0  0.03769  0.20364  0.90598  1.0000
  C   C6        1.0  0.46231  0.79635  0.40598  1.0000
  C   C7        1.0  0.53768  0.29636  0.09402  1.0000
  C   C8        1.0  0.96231  0.70364  0.59402  1.0000
  C   C9        1.0  0.18114  0.98768  0.85444  1.0000
  C   C10       1.0  0.31886  0.01232  0.35444  1.0000
  C   C11       1.0  0.68114  0.51232  0.14556  1.0000
  C   C12       1.0  0.81886  0.48769  0.64556  1.0000
  C   C13       1.0  0.02040  0.87918  0.89935  1.0000
  C   C14       1.0  0.47962  0.12082  0.39934  1.0000
  C   C15       1.0  0.52037  0.62082  0.10066  1.0000
  C   C16       1.0  0.97963  0.37918  0.60066  1.0000
  C   C17       1.0  0.26281  0.10178  0.91428  1.0000
  C   C18       1.0  0.23719  0.89822  0.41428  1.0000
  C   C19       1.0  0.76281  0.39822  0.08572  1.0000
  C   C20       1.0  0.73718  0.60178  0.58572  1.0000
  I   I1        1.0  0.49756  0.50517  0.85649  1.0000
  I   I2        1.0  0.00243  0.49484  0.35649  1.0000
  I   I3        1.0  0.99757  0.99484  0.14351  1.0000
  I   I4        1.0  0.50242  0.00516  0.64350  1.0000
  N   N1        1.0  0.01658  0.05543  0.78819  1.0000
  N   N2        1.0  0.48342  0.94456  0.28820  1.0000
  N   N3        1.0  0.51658  0.44456  0.21180  1.0000
  N   N4        1.0  0.98342  0.55544  0.71181  1.0000
  O   O1        1.0  0.77418  0.87309  0.88632  1.0000
  O   O2        1.0  0.72584  0.12690  0.38632  1.0000
  O   O3        1.0  0.27418  0.62690  0.11368  1.0000
  O   O4        1.0  0.22582  0.37309  0.61368  1.0000
  O   O5        1.0  0.15332  0.80472  0.94876  1.0000
  O   O6        1.0  0.34671  0.19529  0.44876  1.0000
  O   O7        1.0  0.65330  0.69529  0.05124  1.0000
  O   O8        1.0  0.84670  0.30471  0.55124  1.0000
