data_image0
_chemical_formula_structural       Zn4H32C48S8N8O16
_chemical_formula_sum              "Zn4 H32 C48 S8 N8 O16"
_cell_length_a       6.36964
_cell_length_b       13.38
_cell_length_c       16.0287
_cell_angle_alpha    105.636
_cell_angle_beta     90.0001
_cell_angle_gamma    90.0002

_space_group_name_H-M_alt    "P 1"
_space_group_IT_number       1

loop_
  _space_group_symop_operation_xyz
  'x, y, z'

loop_
  _atom_site_type_symbol
  _atom_site_label
  _atom_site_symmetry_multiplicity
  _atom_site_fract_x
  _atom_site_fract_y
  _atom_site_fract_z
  _atom_site_occupancy
  Zn  Zn1       1.0  0.37450  0.50000  0.25000  1.0000
  Zn  Zn2       1.0  0.62550  0.50000  0.75000  1.0000
  Zn  Zn3       1.0  0.19568  0.00000  0.25000  1.0000
  Zn  Zn4       1.0  0.80431  1.00000  0.75000  1.0000
  H   H1        1.0  0.12805  0.53681  0.40781  1.0000
  H   H2        1.0  0.12806  0.46319  0.09219  1.0000
  H   H3        1.0  0.87196  0.46318  0.59220  1.0000
  H   H4        1.0  0.87196  0.53682  0.90781  1.0000
  H   H5        1.0  0.40866  0.20532  0.29255  1.0000
  H   H6        1.0  0.40866  0.79467  0.20744  1.0000
  H   H7        1.0  0.59135  0.79468  0.70745  1.0000
  H   H8        1.0  0.59135  0.20533  0.79256  1.0000
  H   H9        1.0  0.33772  0.88093  0.58198  1.0000
  H   H10       1.0  0.33772  0.11907  0.91802  1.0000
  H   H11       1.0  0.66225  0.11907  0.41803  1.0000
  H   H12       1.0  0.66225  0.88093  0.08197  1.0000
  H   H13       1.0  0.59245  0.77072  0.48028  1.0000
  H   H14       1.0  0.59244  0.22929  0.01972  1.0000
  H   H15       1.0  0.40754  0.22930  0.51973  1.0000
  H   H16       1.0  0.40756  0.77070  0.98028  1.0000
  H   H17       1.0  0.88668  0.63154  0.50422  1.0000
  H   H18       1.0  0.88669  0.36845  0.99578  1.0000
  H   H19       1.0  0.11331  0.36845  0.49579  1.0000
  H   H20       1.0  0.11333  0.63155  0.00422  1.0000
  H   H21       1.0  0.06074  0.21325  0.13512  1.0000
  H   H22       1.0  0.06075  0.78677  0.36487  1.0000
  H   H23       1.0  0.93926  0.78675  0.86487  1.0000
  H   H24       1.0  0.93925  0.21326  0.63513  1.0000
  H   H25       1.0  0.79686  0.07342  0.07692  1.0000
  H   H26       1.0  0.79686  0.92658  0.42307  1.0000
  H   H27       1.0  0.20313  0.92658  0.92308  1.0000
  H   H28       1.0  0.20313  0.07343  0.57693  1.0000
  H   H29       1.0  0.63994  0.34059  0.34790  1.0000
  H   H30       1.0  0.63993  0.65939  0.15210  1.0000
  H   H31       1.0  0.36007  0.65939  0.65211  1.0000
  H   H32       1.0  0.36009  0.34062  0.84790  1.0000
  C   C1        1.0  0.94147  0.82224  0.62144  1.0000
  C   C2        1.0  0.94147  0.17777  0.87856  1.0000
  C   C3        1.0  0.05852  0.17777  0.37856  1.0000
  C   C4        1.0  0.05853  0.82223  0.12143  1.0000
  C   C5        1.0  0.09126  0.76479  0.55360  1.0000
  C   C6        1.0  0.09127  0.23522  0.94640  1.0000
  C   C7        1.0  0.90874  0.23522  0.44640  1.0000
  C   C8        1.0  0.90874  0.76478  0.05360  1.0000
  C   C9        1.0  0.29251  0.80354  0.54352  1.0000
  C   C10       1.0  0.29251  0.19646  0.95648  1.0000
  C   C11       1.0  0.70749  0.19646  0.45649  1.0000
  C   C12       1.0  0.70749  0.80354  0.04351  1.0000
  C   C13       1.0  0.43538  0.74257  0.48730  1.0000
  C   C14       1.0  0.43537  0.25743  0.01270  1.0000
  C   C15       1.0  0.56462  0.25743  0.51270  1.0000
  C   C16       1.0  0.56462  0.74256  0.98730  1.0000
  C   C17       1.0  0.38194  0.64147  0.43889  1.0000
  C   C18       1.0  0.38193  0.35853  0.06110  1.0000
  C   C19       1.0  0.61807  0.35853  0.56111  1.0000
  C   C20       1.0  0.61806  0.64147  0.93889  1.0000
  C   C21       1.0  0.04000  0.66666  0.50239  1.0000
  C   C22       1.0  0.04000  0.33334  0.99761  1.0000
  C   C23       1.0  0.96001  0.33333  0.49762  1.0000
  C   C24       1.0  0.96001  0.66666  0.00237  1.0000
  C   C25       1.0  0.02457  0.37522  0.28250  1.0000
  C   C26       1.0  0.02458  0.62478  0.21750  1.0000
  C   C27       1.0  0.97543  0.62477  0.71750  1.0000
  C   C28       1.0  0.97543  0.37523  0.78250  1.0000
  C   C29       1.0  0.87152  0.28965  0.24572  1.0000
  C   C30       1.0  0.87152  0.71035  0.25428  1.0000
  C   C31       1.0  0.12848  0.71035  0.75429  1.0000
  C   C32       1.0  0.12849  0.28966  0.74572  1.0000
  C   C33       1.0  0.91188  0.21201  0.16834  1.0000
  C   C34       1.0  0.91189  0.78799  0.33165  1.0000
  C   C35       1.0  0.08812  0.78799  0.83166  1.0000
  C   C36       1.0  0.08811  0.21202  0.66835  1.0000
  C   C37       1.0  0.76687  0.13442  0.13612  1.0000
  C   C38       1.0  0.76688  0.86558  0.36387  1.0000
  C   C39       1.0  0.23313  0.86558  0.86387  1.0000
  C   C40       1.0  0.23312  0.13443  0.63613  1.0000
  C   C41       1.0  0.57611  0.13147  0.18042  1.0000
  C   C42       1.0  0.57611  0.86852  0.31957  1.0000
  C   C43       1.0  0.42390  0.86852  0.81957  1.0000
  C   C44       1.0  0.42389  0.13149  0.68043  1.0000
  C   C45       1.0  0.68450  0.28384  0.28804  1.0000
  C   C46       1.0  0.68448  0.71615  0.21196  1.0000
  C   C47       1.0  0.31551  0.71615  0.71196  1.0000
  C   C48       1.0  0.31553  0.28386  0.78804  1.0000
  S   S1        1.0  0.56462  0.55983  0.37620  1.0000
  S   S2        1.0  0.56462  0.44017  0.12379  1.0000
  S   S3        1.0  0.43538  0.44018  0.62379  1.0000
  S   S4        1.0  0.43538  0.55982  0.87621  1.0000
  S   S5        1.0  0.38633  0.04082  0.13942  1.0000
  S   S6        1.0  0.38634  0.95918  0.36056  1.0000
  S   S7        1.0  0.61367  0.95918  0.86057  1.0000
  S   S8        1.0  0.61365  0.04082  0.63943  1.0000
  N   N1        1.0  0.18112  0.60940  0.44749  1.0000
  N   N2        1.0  0.18111  0.39060  0.05252  1.0000
  N   N3        1.0  0.81889  0.39060  0.55252  1.0000
  N   N4        1.0  0.81888  0.60940  0.94748  1.0000
  N   N5        1.0  0.54570  0.20713  0.25586  1.0000
  N   N6        1.0  0.54570  0.79287  0.24414  1.0000
  N   N7        1.0  0.45431  0.79287  0.74414  1.0000
  N   N8        1.0  0.45432  0.20714  0.75586  1.0000
  O   O1        1.0  0.00677  0.91060  0.66836  1.0000
  O   O2        1.0  0.00674  0.08940  0.83164  1.0000
  O   O3        1.0  0.99322  0.08940  0.33163  1.0000
  O   O4        1.0  0.99325  0.91060  0.16836  1.0000
  O   O5        1.0  0.76799  0.78053  0.62954  1.0000
  O   O6        1.0  0.76800  0.21947  0.87045  1.0000
  O   O7        1.0  0.23199  0.21948  0.37046  1.0000
  O   O8        1.0  0.23200  0.78052  0.12954  1.0000
  O   O9        1.0  0.18568  0.37724  0.23470  1.0000
  O   O10       1.0  0.18568  0.62277  0.26531  1.0000
  O   O11       1.0  0.81432  0.62277  0.76530  1.0000
  O   O12       1.0  0.81432  0.37724  0.73470  1.0000
  O   O13       1.0  0.98619  0.43742  0.35511  1.0000
  O   O14       1.0  0.98623  0.56258  0.14489  1.0000
  O   O15       1.0  0.01380  0.56257  0.64490  1.0000
  O   O16       1.0  0.01379  0.43743  0.85510  1.0000
