data_image0
_chemical_formula_structural       Li4H36C20Br4N4O8
_chemical_formula_sum              "Li4 H36 C20 Br4 N4 O8"
_cell_length_a       5.01553
_cell_length_b       9.63696
_cell_length_c       15.4377
_cell_angle_alpha    90
_cell_angle_beta     90.0008
_cell_angle_gamma    89.9997

_space_group_name_H-M_alt    "P 1"
_space_group_IT_number       1

loop_
  _space_group_symop_operation_xyz
  'x, y, z'

loop_
  _atom_site_type_symbol
  _atom_site_label
  _atom_site_symmetry_multiplicity
  _atom_site_fract_x
  _atom_site_fract_y
  _atom_site_fract_z
  _atom_site_occupancy
  Li  Li1       1.0  0.97465  0.49894  0.93916  1.0000
  Li  Li2       1.0  0.47467  0.00107  0.43916  1.0000
  Li  Li3       1.0  0.47466  0.50104  0.06082  1.0000
  Li  Li4       1.0  0.97469  0.99894  0.56083  1.0000
  H   H1        1.0  0.29964  0.76624  0.76837  1.0000
  H   H2        1.0  0.79961  0.73377  0.26837  1.0000
  H   H3        1.0  0.79962  0.23378  0.23163  1.0000
  H   H4        1.0  0.29963  0.26623  0.73163  1.0000
  H   H5        1.0  0.81684  0.70816  0.82916  1.0000
  H   H6        1.0  0.31684  0.79181  0.32915  1.0000
  H   H7        1.0  0.31684  0.29183  0.17085  1.0000
  H   H8        1.0  0.81687  0.20818  0.67085  1.0000
  H   H9        1.0  0.59947  0.80214  0.72266  1.0000
  H   H10       1.0  0.09943  0.69786  0.22265  1.0000
  H   H11       1.0  0.09945  0.19785  0.27734  1.0000
  H   H12       1.0  0.59945  0.30214  0.77734  1.0000
  H   H13       1.0  0.25044  0.99978  0.76934  1.0000
  H   H14       1.0  0.75038  0.50023  0.26934  1.0000
  H   H15       1.0  0.75037  0.00024  0.23065  1.0000
  H   H16       1.0  0.25039  0.49976  0.73066  1.0000
  H   H17       1.0  0.60574  0.02264  0.76794  1.0000
  H   H18       1.0  0.10567  0.47734  0.26793  1.0000
  H   H19       1.0  0.10566  0.97735  0.23206  1.0000
  H   H20       1.0  0.60569  0.52265  0.73207  1.0000
  H   H21       1.0  0.26944  0.94502  0.92633  1.0000
  H   H22       1.0  0.76940  0.55497  0.42633  1.0000
  H   H23       1.0  0.76940  0.05500  0.07366  1.0000
  H   H24       1.0  0.26943  0.44503  0.57367  1.0000
  H   H25       1.0  0.50745  0.08154  0.91659  1.0000
  H   H26       1.0  0.00739  0.41845  0.41659  1.0000
  H   H27       1.0  0.00738  0.91846  0.08340  1.0000
  H   H28       1.0  0.50743  0.58155  0.58341  1.0000
  H   H29       1.0  0.67355  0.83524  0.98469  1.0000
  H   H30       1.0  0.17354  0.66474  0.48468  1.0000
  H   H31       1.0  0.17357  0.16475  0.01532  1.0000
  H   H32       1.0  0.67358  0.33525  0.51533  1.0000
  H   H33       1.0  0.87449  0.91774  0.90467  1.0000
  H   H34       1.0  0.37445  0.58223  0.40466  1.0000
  H   H35       1.0  0.37446  0.08223  0.09535  1.0000
  H   H36       1.0  0.87450  0.41777  0.59536  1.0000
  C   C1        1.0  0.46684  0.63549  0.89686  1.0000
  C   C2        1.0  0.96685  0.86450  0.39688  1.0000
  C   C3        1.0  0.96685  0.36451  0.10312  1.0000
  C   C4        1.0  0.46690  0.13552  0.60312  1.0000
  C   C5        1.0  0.62875  0.75065  0.85380  1.0000
  C   C6        1.0  0.12875  0.74934  0.35380  1.0000
  C   C7        1.0  0.12875  0.24935  0.14620  1.0000
  C   C8        1.0  0.62878  0.25065  0.64621  1.0000
  C   C9        1.0  0.43940  0.96635  0.79805  1.0000
  C   C10       1.0  0.93934  0.53365  0.29805  1.0000
  C   C11       1.0  0.93933  0.03366  0.20194  1.0000
  C   C12       1.0  0.43935  0.46635  0.70195  1.0000
  C   C13       1.0  0.45848  0.97573  0.89605  1.0000
  C   C14       1.0  0.95844  0.52426  0.39604  1.0000
  C   C15       1.0  0.95843  0.02427  0.10396  1.0000
  C   C16       1.0  0.45847  0.47574  0.60396  1.0000
  C   C17       1.0  0.67835  0.87136  0.91738  1.0000
  C   C18       1.0  0.17832  0.62863  0.41736  1.0000
  C   C19       1.0  0.17833  0.12863  0.08263  1.0000
  C   C20       1.0  0.67836  0.37138  0.58264  1.0000
  Br  Br1       1.0  0.96373  0.26547  0.85260  1.0000
  Br  Br2       1.0  0.46367  0.23456  0.35262  1.0000
  Br  Br3       1.0  0.46370  0.73449  0.14742  1.0000
  Br  Br4       1.0  0.96379  0.76547  0.64741  1.0000
  N   N1        1.0  0.48192  0.81488  0.77882  1.0000
  N   N2        1.0  0.98191  0.68513  0.27882  1.0000
  N   N3        1.0  0.98190  0.18513  0.22118  1.0000
  N   N4        1.0  0.48192  0.31488  0.72118  1.0000
  O   O1        1.0  0.21890  0.62961  0.88329  1.0000
  O   O2        1.0  0.71891  0.87040  0.38331  1.0000
  O   O3        1.0  0.71889  0.37038  0.11668  1.0000
  O   O4        1.0  0.21892  0.12961  0.61669  1.0000
  O   O5        1.0  0.60053  0.55602  0.94654  1.0000
  O   O6        1.0  0.10055  0.94398  0.44654  1.0000
  O   O7        1.0  0.10055  0.44398  0.05346  1.0000
  O   O8        1.0  0.60059  0.05604  0.55344  1.0000
