data_image0
_chemical_formula_structural       Zn6H64C38N4O34
_chemical_formula_sum              "Zn6 H64 C38 N4 O34"
_cell_length_a       9.05861
_cell_length_b       12.0419
_cell_length_c       13.8071
_cell_angle_alpha    90.5642
_cell_angle_beta     100.971
_cell_angle_gamma    102.911

_space_group_name_H-M_alt    "P 1"
_space_group_IT_number       1

loop_
  _space_group_symop_operation_xyz
  'x, y, z'

loop_
  _atom_site_type_symbol
  _atom_site_label
  _atom_site_symmetry_multiplicity
  _atom_site_fract_x
  _atom_site_fract_y
  _atom_site_fract_z
  _atom_site_occupancy
  Zn  Zn1       1.0  0.62016  0.20210  0.36910  1.0000
  Zn  Zn2       1.0  0.37985  0.79789  0.63091  1.0000
  Zn  Zn3       1.0  0.74025  0.23773  0.63724  1.0000
  Zn  Zn4       1.0  0.25975  0.76226  0.36277  1.0000
  Zn  Zn5       1.0  0.49999  0.00001  1.00000  1.0000
  Zn  Zn6       1.0  1.00000  0.49999  0.00000  1.0000
  H   H1        1.0  0.90685  0.63908  0.38802  1.0000
  H   H2        1.0  0.09315  0.36092  0.61197  1.0000
  H   H3        1.0  0.66321  0.63796  0.62687  1.0000
  H   H4        1.0  0.33679  0.36203  0.37313  1.0000
  H   H5        1.0  0.75864  0.81643  0.55518  1.0000
  H   H6        1.0  0.24137  0.18356  0.44482  1.0000
  H   H7        1.0  0.83933  0.81764  0.44624  1.0000
  H   H8        1.0  0.16067  0.18235  0.55376  1.0000
  H   H9        1.0  0.95506  0.81299  0.56258  1.0000
  H   H10       1.0  0.04494  0.18701  0.43741  1.0000
  H   H11       1.0  0.94722  0.47251  0.32494  1.0000
  H   H12       1.0  0.05278  0.52749  0.67505  1.0000
  H   H13       1.0  0.94676  0.35860  0.40552  1.0000
  H   H14       1.0  0.05323  0.64140  0.59448  1.0000
  H   H15       1.0  0.69259  0.41586  0.16024  1.0000
  H   H16       1.0  0.30744  0.58415  0.83977  1.0000
  H   H17       1.0  0.64234  0.46512  0.26802  1.0000
  H   H18       1.0  0.35768  0.53490  0.73199  1.0000
  H   H19       1.0  0.91521  0.23152  0.28148  1.0000
  H   H20       1.0  0.08478  0.76847  0.71852  1.0000
  H   H21       1.0  0.88373  0.31869  0.17920  1.0000
  H   H22       1.0  0.11628  0.68131  0.82080  1.0000
  H   H23       1.0  0.49414  0.46382  0.65492  1.0000
  H   H24       1.0  0.50585  0.53618  0.34507  1.0000
  H   H25       1.0  0.46973  0.34333  0.57425  1.0000
  H   H26       1.0  0.53026  0.65667  0.42575  1.0000
  H   H27       1.0  0.40275  0.30288  0.75096  1.0000
  H   H28       1.0  0.59724  0.69710  0.24904  1.0000
  H   H29       1.0  0.54299  0.23233  0.81459  1.0000
  H   H30       1.0  0.45699  0.76767  0.18541  1.0000
  H   H31       1.0  0.70410  0.39520  0.85733  1.0000
  H   H32       1.0  0.29588  0.60481  0.14266  1.0000
  H   H33       1.0  0.72698  0.50642  0.77502  1.0000
  H   H34       1.0  0.27303  0.49358  0.22495  1.0000
  H   H35       1.0  0.90322  0.92280  0.78842  1.0000
  H   H36       1.0  0.09677  0.07720  0.21158  1.0000
  H   H37       1.0  0.07379  0.02200  0.76868  1.0000
  H   H38       1.0  0.92621  0.97799  0.23130  1.0000
  H   H39       1.0  0.95246  0.93459  0.66814  1.0000
  H   H40       1.0  0.04753  0.06539  0.33186  1.0000
  H   H41       1.0  0.75748  0.02427  0.38587  1.0000
  H   H42       1.0  0.24252  0.97572  0.61413  1.0000
  H   H43       1.0  0.81734  0.09329  0.49258  1.0000
  H   H44       1.0  0.18268  0.90670  0.50742  1.0000
  H   H45       1.0  0.45612  0.09837  0.48763  1.0000
  H   H46       1.0  0.54390  0.90163  0.51239  1.0000
  H   H47       1.0  0.45757  0.00930  0.40137  1.0000
  H   H48       1.0  0.54245  0.99071  0.59865  1.0000
  H   H49       1.0  0.37784  0.19604  0.03427  1.0000
  H   H50       1.0  0.62215  0.80396  0.96573  1.0000
  H   H51       1.0  0.25932  0.10668  0.95586  1.0000
  H   H52       1.0  0.74066  0.89333  0.04413  1.0000
  H   H53       1.0  0.48899  0.00490  0.17371  1.0000
  H   H54       1.0  0.51099  0.99511  0.82629  1.0000
  H   H55       1.0  0.31534  0.93114  0.13878  1.0000
  H   H56       1.0  0.68463  0.06886  0.86122  1.0000
  H   H57       1.0  0.27309  0.38715  0.05593  1.0000
  H   H58       1.0  0.72690  0.61285  0.94408  1.0000
  H   H59       1.0  0.19021  0.39815  0.94434  1.0000
  H   H60       1.0  0.80979  0.60186  0.05567  1.0000
  H   H61       1.0  0.21053  0.74136  0.97326  1.0000
  H   H62       1.0  0.78946  0.25865  0.02673  1.0000
  H   H63       1.0  0.27364  0.63051  0.98605  1.0000
  H   H64       1.0  0.72636  0.36950  0.01395  1.0000
  C   C1        1.0  0.80980  0.47353  0.43424  1.0000
  C   C2        1.0  0.19020  0.52646  0.56576  1.0000
  C   C3        1.0  0.84111  0.59291  0.43960  1.0000
  C   C4        1.0  0.15889  0.40709  0.56040  1.0000
  C   C5        1.0  0.79452  0.65390  0.51068  1.0000
  C   C6        1.0  0.20549  0.34609  0.48933  1.0000
  C   C7        1.0  0.70720  0.59197  0.57414  1.0000
  C   C8        1.0  0.29282  0.40803  0.42586  1.0000
  C   C9        1.0  0.66887  0.47278  0.56839  1.0000
  C   C10       1.0  0.33114  0.52721  0.43162  1.0000
  C   C11       1.0  0.72536  0.41274  0.50061  1.0000
  C   C12       1.0  0.27466  0.58726  0.49940  1.0000
  C   C13       1.0  0.83760  0.78184  0.51882  1.0000
  C   C14       1.0  0.16240  0.21816  0.48118  1.0000
  C   C15       1.0  0.87424  0.41085  0.36398  1.0000
  C   C16       1.0  0.12576  0.58915  0.63601  1.0000
  C   C17       1.0  0.64810  0.38790  0.22685  1.0000
  C   C18       1.0  0.35192  0.61211  0.77316  1.0000
  C   C19       1.0  0.48160  0.31529  0.20069  1.0000
  C   C20       1.0  0.51842  0.68473  0.79932  1.0000
  C   C21       1.0  0.82702  0.26450  0.23135  1.0000
  C   C22       1.0  0.17299  0.73550  0.76865  1.0000
  C   C23       1.0  0.70746  0.16091  0.17857  1.0000
  C   C24       1.0  0.29254  0.83910  0.82142  1.0000
  C   C25       1.0  0.55617  0.40651  0.62522  1.0000
  C   C26       1.0  0.44383  0.59349  0.37477  1.0000
  C   C27       1.0  0.49750  0.26222  0.74239  1.0000
  C   C28       1.0  0.50249  0.73778  0.25761  1.0000
  C   C29       1.0  0.42899  0.15394  0.67534  1.0000
  C   C30       1.0  0.57103  0.84606  0.32467  1.0000
  C   C31       1.0  0.73219  0.41670  0.78530  1.0000
  C   C32       1.0  0.26779  0.58330  0.21469  1.0000
  C   C33       1.0  0.89924  0.41011  0.78929  1.0000
  C   C34       1.0  0.10074  0.58988  0.21072  1.0000
  C   C35       1.0  0.86542  0.07360  0.71574  1.0000
  C   C36       1.0  0.13461  0.92640  0.28425  1.0000
  C   C37       1.0  0.95274  0.98124  0.73647  1.0000
  C   C38       1.0  0.04726  0.01875  0.26353  1.0000
  N   N1        1.0  0.75380  0.33013  0.29148  1.0000
  N   N2        1.0  0.24621  0.66987  0.70852  1.0000
  N   N3        1.0  0.62263  0.34121  0.70680  1.0000
  N   N4        1.0  0.37736  0.65879  0.29320  1.0000
  O   O1        1.0  0.69764  0.29756  0.50028  1.0000
  O   O2        1.0  0.30237  0.70243  0.49973  1.0000
  O   O3        1.0  0.43009  0.25999  0.26898  1.0000
  O   O4        1.0  0.56991  0.74003  0.73103  1.0000
  O   O5        1.0  0.40670  0.31892  0.11259  1.0000
  O   O6        1.0  0.59331  0.68109  0.88741  1.0000
  O   O7        1.0  0.61432  0.10801  0.22984  1.0000
  O   O8        1.0  0.38568  0.89199  0.77017  1.0000
  O   O9        1.0  0.70579  0.13288  0.08893  1.0000
  O   O10       1.0  0.29419  0.86713  0.91107  1.0000
  O   O11       1.0  0.51414  0.12604  0.61740  1.0000
  O   O12       1.0  0.48587  0.87395  0.38261  1.0000
  O   O13       1.0  0.29859  0.09719  0.68202  1.0000
  O   O14       1.0  0.70142  0.90281  0.31801  1.0000
  O   O15       1.0  0.93271  0.35301  0.72339  1.0000
  O   O16       1.0  0.06727  0.64698  0.27661  1.0000
  O   O17       1.0  0.00303  0.46834  0.85915  1.0000
  O   O18       1.0  0.99695  0.53166  0.14085  1.0000
  O   O19       1.0  0.78663  0.10211  0.42108  1.0000
  O   O20       1.0  0.21338  0.89788  0.57891  1.0000
  O   O21       1.0  0.44572  0.08784  0.41508  1.0000
  O   O22       1.0  0.55429  0.91216  0.58493  1.0000
  O   O23       1.0  0.85379  0.11434  0.62846  1.0000
  O   O24       1.0  0.14625  0.88566  0.37153  1.0000
  O   O25       1.0  0.80906  0.11310  0.78171  1.0000
  O   O26       1.0  0.19091  0.88689  0.21826  1.0000
  O   O27       1.0  0.36904  0.13648  0.98124  1.0000
  O   O28       1.0  0.63095  0.86352  0.01875  1.0000
  O   O29       1.0  0.42005  0.94618  0.12207  1.0000
  O   O30       1.0  0.57993  0.05382  0.87793  1.0000
  O   O31       1.0  0.20753  0.43065  0.01165  1.0000
  O   O32       1.0  0.79247  0.56936  0.98836  1.0000
  O   O33       1.0  0.19075  0.66396  0.99989  1.0000
  O   O34       1.0  0.80924  0.33604  0.00011  1.0000
