data_image0
_chemical_formula_structural       Nd4H32C24O28
_chemical_formula_sum              "Nd4 H32 C24 O28"
_cell_length_a       7.87059
_cell_length_b       10.7592
_cell_length_c       12.9567
_cell_angle_alpha    95.3887
_cell_angle_beta     107.696
_cell_angle_gamma    111.442

_space_group_name_H-M_alt    "P 1"
_space_group_IT_number       1

loop_
  _space_group_symop_operation_xyz
  'x, y, z'

loop_
  _atom_site_type_symbol
  _atom_site_label
  _atom_site_symmetry_multiplicity
  _atom_site_fract_x
  _atom_site_fract_y
  _atom_site_fract_z
  _atom_site_occupancy
  Nd  Nd1       1.0  0.82596  0.31092  0.77057  1.0000
  Nd  Nd2       1.0  0.24445  0.18908  0.72945  1.0000
  Nd  Nd3       1.0  0.17404  0.68908  0.22943  1.0000
  Nd  Nd4       1.0  0.75555  0.81092  0.27055  1.0000
  H   H1        1.0  0.90609  0.58537  0.91352  1.0000
  H   H2        1.0  0.90729  0.91463  0.58647  1.0000
  H   H3        1.0  0.09391  0.41463  0.08648  1.0000
  H   H4        1.0  0.09271  0.08537  0.41353  1.0000
  H   H5        1.0  0.66684  0.50513  0.85703  1.0000
  H   H6        1.0  0.80486  0.99489  0.64303  1.0000
  H   H7        1.0  0.33316  0.49487  0.14297  1.0000
  H   H8        1.0  0.19514  0.00511  0.35697  1.0000
  H   H9        1.0  0.47564  0.78901  0.64268  1.0000
  H   H10       1.0  0.54386  0.71109  0.85738  1.0000
  H   H11       1.0  0.52435  0.21098  0.35732  1.0000
  H   H12       1.0  0.45614  0.28891  0.14262  1.0000
  H   H13       1.0  0.41762  0.82685  0.51099  1.0000
  H   H14       1.0  0.57972  0.67316  0.98903  1.0000
  H   H15       1.0  0.58238  0.17316  0.48901  1.0000
  H   H16       1.0  0.42028  0.32684  0.01096  1.0000
  H   H17       1.0  0.13942  0.63215  0.53863  1.0000
  H   H18       1.0  0.46861  0.86798  0.96151  1.0000
  H   H19       1.0  0.86058  0.36785  0.46137  1.0000
  H   H20       1.0  0.53138  0.13202  0.03849  1.0000
  H   H21       1.0  0.12824  0.75652  0.63517  1.0000
  H   H22       1.0  0.23649  0.74365  0.86490  1.0000
  H   H23       1.0  0.87176  0.24348  0.36483  1.0000
  H   H24       1.0  0.76351  0.25634  0.13510  1.0000
  H   H25       1.0  0.39354  0.50292  0.58217  1.0000
  H   H26       1.0  0.80851  0.99721  0.91785  1.0000
  H   H27       1.0  0.60646  0.49707  0.41783  1.0000
  H   H28       1.0  0.19149  0.00279  0.08215  1.0000
  H   H29       1.0  0.31706  0.36380  0.47278  1.0000
  H   H30       1.0  0.98062  0.13627  0.02727  1.0000
  H   H31       1.0  0.68294  0.63620  0.52722  1.0000
  H   H32       1.0  0.01938  0.86373  0.97273  1.0000
  C   C1        1.0  0.44993  0.97953  0.64150  1.0000
  C   C2        1.0  0.32870  0.52061  0.85847  1.0000
  C   C3        1.0  0.55007  0.02047  0.35850  1.0000
  C   C4        1.0  0.67131  0.47939  0.14153  1.0000
  C   C5        1.0  0.38317  0.82965  0.58706  1.0000
  C   C6        1.0  0.46638  0.67045  0.91298  1.0000
  C   C7        1.0  0.61683  0.17035  0.41294  1.0000
  C   C8        1.0  0.53361  0.32955  0.08702  1.0000
  C   C9        1.0  0.16586  0.74042  0.56170  1.0000
  C   C10       1.0  0.36369  0.75973  0.93838  1.0000
  C   C11       1.0  0.83414  0.25958  0.43830  1.0000
  C   C12       1.0  0.63631  0.24027  0.06162  1.0000
  C   C13       1.0  0.02840  0.76643  0.46473  1.0000
  C   C14       1.0  0.29723  0.73357  0.03530  1.0000
  C   C15       1.0  0.97160  0.23357  0.53527  1.0000
  C   C16       1.0  0.70277  0.26643  0.96470  1.0000
  C   C17       1.0  0.57760  0.39769  0.60560  1.0000
  C   C18       1.0  0.07436  0.10230  0.89444  1.0000
  C   C19       1.0  0.42240  0.60231  0.39440  1.0000
  C   C20       1.0  0.92564  0.89770  0.10556  1.0000
  C   C21       1.0  0.44834  0.45179  0.53063  1.0000
  C   C22       1.0  0.96599  0.04826  0.96940  1.0000
  C   C23       1.0  0.55165  0.54820  0.46937  1.0000
  C   C24       1.0  0.03401  0.95174  0.03060  1.0000
  O   O1        1.0  0.63054  0.06033  0.66702  1.0000
  O   O2        1.0  0.40289  0.43973  0.83296  1.0000
  O   O3        1.0  0.36947  0.93967  0.33298  1.0000
  O   O4        1.0  0.59711  0.56027  0.16704  1.0000
  O   O5        1.0  0.32272  0.01537  0.65815  1.0000
  O   O6        1.0  0.14899  0.48484  0.84177  1.0000
  O   O7        1.0  0.67728  0.98463  0.34185  1.0000
  O   O8        1.0  0.85101  0.51516  0.15823  1.0000
  O   O9        1.0  0.02580  0.73415  0.36582  1.0000
  O   O10       1.0  0.42591  0.76578  0.13419  1.0000
  O   O11       1.0  0.97420  0.26585  0.63418  1.0000
  O   O12       1.0  0.57409  0.23422  0.86581  1.0000
  O   O13       1.0  0.91033  0.81617  0.47731  1.0000
  O   O14       1.0  0.11686  0.68379  0.02272  1.0000
  O   O15       1.0  0.08966  0.18383  0.52269  1.0000
  O   O16       1.0  0.88314  0.31620  0.97728  1.0000
  O   O17       1.0  0.75533  0.43541  0.61704  1.0000
  O   O18       1.0  0.20299  0.06459  0.88307  1.0000
  O   O19       1.0  0.24467  0.56460  0.38297  1.0000
  O   O20       1.0  0.79701  0.93541  0.11693  1.0000
  O   O21       1.0  0.50212  0.30947  0.65854  1.0000
  O   O22       1.0  0.03406  0.19049  0.84146  1.0000
  O   O23       1.0  0.49788  0.69053  0.34146  1.0000
  O   O24       1.0  0.96594  0.80951  0.15854  1.0000
  O   O25       1.0  0.79238  0.51949  0.84768  1.0000
  O   O26       1.0  0.92541  0.98053  0.65232  1.0000
  O   O27       1.0  0.20762  0.48050  0.15232  1.0000
  O   O28       1.0  0.07459  0.01947  0.34768  1.0000
