data_image0
_chemical_formula_structural       Cu2H16C12N4O14
_chemical_formula_sum              "Cu2 H16 C12 N4 O14"
_cell_length_a       7.31091
_cell_length_b       8.15988
_cell_length_c       9.64365
_cell_angle_alpha    64.9679
_cell_angle_beta     79.8266
_cell_angle_gamma    65.3189

_space_group_name_H-M_alt    "P 1"
_space_group_IT_number       1

loop_
  _space_group_symop_operation_xyz
  'x, y, z'

loop_
  _atom_site_type_symbol
  _atom_site_label
  _atom_site_symmetry_multiplicity
  _atom_site_fract_x
  _atom_site_fract_y
  _atom_site_fract_z
  _atom_site_occupancy
  Cu  Cu1       1.0  0.44721  0.96490  0.25658  1.0000
  Cu  Cu2       1.0  0.94715  0.22158  0.74337  1.0000
  H   H1        1.0  0.35356  0.26253  0.97811  1.0000
  H   H2        1.0  0.85357  0.24076  0.02186  1.0000
  H   H3        1.0  0.16867  0.21811  0.09443  1.0000
  H   H4        1.0  0.66870  0.31258  0.90554  1.0000
  H   H5        1.0  0.49602  0.82999  0.05955  1.0000
  H   H6        1.0  0.99592  0.88963  0.94044  1.0000
  H   H7        1.0  0.29518  0.80528  0.14655  1.0000
  H   H8        1.0  0.79508  0.95187  0.85339  1.0000
  H   H9        1.0  0.96352  0.06537  0.27497  1.0000
  H   H10       1.0  0.46350  0.34022  0.72510  1.0000
  H   H11       1.0  0.91532  0.29243  0.22273  1.0000
  H   H12       1.0  0.41532  0.51507  0.77728  1.0000
  H   H13       1.0  0.48895  0.50850  0.37680  1.0000
  H   H14       1.0  0.98901  0.88525  0.62328  1.0000
  H   H15       1.0  0.46643  0.36542  0.19509  1.0000
  H   H16       1.0  0.96618  0.56054  0.80497  1.0000
  C   C1        1.0  0.42595  0.82363  0.57568  1.0000
  C   C2        1.0  0.92596  0.39948  0.42430  1.0000
  C   C3        1.0  0.44252  0.01748  0.52640  1.0000
  C   C4        1.0  0.94239  0.54409  0.47357  1.0000
  C   C5        1.0  0.44668  0.09994  0.62629  1.0000
  C   C6        1.0  0.94665  0.72640  0.37371  1.0000
  C   C7        1.0  0.47547  0.36708  0.41981  1.0000
  C   C8        1.0  0.97552  0.78685  0.58028  1.0000
  C   C9        1.0  0.46626  0.28826  0.31871  1.0000
  C   C10       1.0  0.96613  0.60700  0.68134  1.0000
  C   C11       1.0  0.42200  0.01068  0.79838  1.0000
  C   C12       1.0  0.92194  0.80924  0.20163  1.0000
  N   N1        1.0  0.45259  0.11317  0.37428  1.0000
  N   N2        1.0  0.95244  0.48757  0.62570  1.0000
  N   N3        1.0  0.46550  0.27359  0.57158  1.0000
  N   N4        1.0  0.96555  0.84526  0.42848  1.0000
  O   O1        1.0  0.39517  0.73643  0.71402  1.0000
  O   O2        1.0  0.89520  0.45062  0.28589  1.0000
  O   O3        1.0  0.44516  0.76306  0.46802  1.0000
  O   O4        1.0  0.94529  0.23119  0.53194  1.0000
  O   O5        1.0  0.24527  0.06612  0.84854  1.0000
  O   O6        1.0  0.74524  0.91485  0.15145  1.0000
  O   O7        1.0  0.58051  0.90065  0.87887  1.0000
  O   O8        1.0  0.08047  0.77964  0.12113  1.0000
  O   O9        1.0  0.30477  0.22177  0.08713  1.0000
  O   O10       1.0  0.80478  0.30907  0.91281  1.0000
  O   O11       1.0  0.43077  0.79563  0.16409  1.0000
  O   O12       1.0  0.93066  0.95985  0.83588  1.0000
  O   O13       1.0  0.95275  0.18703  0.18186  1.0000
  O   O14       1.0  0.45279  0.36879  0.81818  1.0000
