data_image0
_chemical_formula_structural       Ca4H40C28N4O30
_chemical_formula_sum              "Ca4 H40 C28 N4 O30"
_cell_length_a       7.57357
_cell_length_b       10.6062
_cell_length_c       13.1585
_cell_angle_alpha    93.7329
_cell_angle_beta     90.0002
_cell_angle_gamma    89.9999

_space_group_name_H-M_alt    "P 1"
_space_group_IT_number       1

loop_
  _space_group_symop_operation_xyz
  'x, y, z'

loop_
  _atom_site_type_symbol
  _atom_site_label
  _atom_site_symmetry_multiplicity
  _atom_site_fract_x
  _atom_site_fract_y
  _atom_site_fract_z
  _atom_site_occupancy
  Ca  Ca1       1.0  0.87452  0.07769  0.13056  1.0000
  Ca  Ca2       1.0  0.87446  0.92232  0.36942  1.0000
  Ca  Ca3       1.0  0.12556  0.92232  0.86942  1.0000
  Ca  Ca4       1.0  0.12550  0.07769  0.63056  1.0000
  H   H1        1.0  0.58799  0.51914  0.89204  1.0000
  H   H2        1.0  0.58799  0.48087  0.60796  1.0000
  H   H3        1.0  0.41201  0.48087  0.10796  1.0000
  H   H4        1.0  0.41201  0.51913  0.39204  1.0000
  H   H5        1.0  0.83824  0.67164  0.88304  1.0000
  H   H6        1.0  0.83824  0.32836  0.61696  1.0000
  H   H7        1.0  0.16176  0.32836  0.11696  1.0000
  H   H8        1.0  0.16176  0.67164  0.38304  1.0000
  H   H9        1.0  0.20740  0.38195  0.86684  1.0000
  H   H10       1.0  0.20740  0.61804  0.63316  1.0000
  H   H11       1.0  0.79259  0.61804  0.13316  1.0000
  H   H12       1.0  0.79259  0.38195  0.36684  1.0000
  H   H13       1.0  0.61389  0.85329  0.04284  1.0000
  H   H14       1.0  0.61393  0.14667  0.45710  1.0000
  H   H15       1.0  0.38606  0.14667  0.95709  1.0000
  H   H16       1.0  0.38610  0.85330  0.54285  1.0000
  H   H17       1.0  0.54969  0.99169  0.05896  1.0000
  H   H18       1.0  0.54956  0.00827  0.44139  1.0000
  H   H19       1.0  0.45046  0.00826  0.94144  1.0000
  H   H20       1.0  0.45033  0.99170  0.55890  1.0000
  H   H21       1.0  0.80561  0.35040  0.12874  1.0000
  H   H22       1.0  0.80561  0.64960  0.37125  1.0000
  H   H23       1.0  0.19439  0.64959  0.87125  1.0000
  H   H24       1.0  0.19439  0.35041  0.62874  1.0000
  H   H25       1.0  0.63610  0.28780  0.07402  1.0000
  H   H26       1.0  0.63609  0.71220  0.42596  1.0000
  H   H27       1.0  0.36391  0.71219  0.92596  1.0000
  H   H28       1.0  0.36390  0.28780  0.57403  1.0000
  H   H29       1.0  0.54561  0.93122  0.22237  1.0000
  H   H30       1.0  0.54562  0.06878  0.27763  1.0000
  H   H31       1.0  0.45437  0.06878  0.77764  1.0000
  H   H32       1.0  0.45438  0.93122  0.72237  1.0000
  H   H33       1.0  0.24940  0.14463  0.20951  1.0000
  H   H34       1.0  0.24937  0.85537  0.29046  1.0000
  H   H35       1.0  0.75063  0.85537  0.79046  1.0000
  H   H36       1.0  0.75060  0.14463  0.70951  1.0000
  H   H37       1.0  0.25278  0.09030  0.09259  1.0000
  H   H38       1.0  0.25277  0.90976  0.40736  1.0000
  H   H39       1.0  0.74724  0.90978  0.90735  1.0000
  H   H40       1.0  0.74723  0.09028  0.59259  1.0000
  C   C1        1.0  0.06855  0.40961  0.87218  1.0000
  C   C2        1.0  0.06856  0.59039  0.62783  1.0000
  C   C3        1.0  0.93144  0.59039  0.12782  1.0000
  C   C4        1.0  0.93145  0.40961  0.37218  1.0000
  C   C5        1.0  0.93749  0.31754  0.87782  1.0000
  C   C6        1.0  0.93749  0.68246  0.62218  1.0000
  C   C7        1.0  0.06251  0.68246  0.12218  1.0000
  C   C8        1.0  0.06251  0.31754  0.37782  1.0000
  C   C9        1.0  0.76042  0.35599  0.88400  1.0000
  C   C10       1.0  0.76042  0.64401  0.61599  1.0000
  C   C11       1.0  0.23957  0.64401  0.11599  1.0000
  C   C12       1.0  0.23958  0.35599  0.38401  1.0000
  C   C13       1.0  0.72353  0.48498  0.88656  1.0000
  C   C14       1.0  0.72353  0.51502  0.61344  1.0000
  C   C15       1.0  0.27647  0.51502  0.11344  1.0000
  C   C16       1.0  0.27647  0.48498  0.38656  1.0000
  C   C17       1.0  0.86288  0.57013  0.88170  1.0000
  C   C18       1.0  0.86288  0.42987  0.61830  1.0000
  C   C19       1.0  0.13712  0.42987  0.11830  1.0000
  C   C20       1.0  0.13712  0.57013  0.38170  1.0000
  C   C21       1.0  0.98844  0.18151  0.88114  1.0000
  C   C22       1.0  0.98845  0.81849  0.61884  1.0000
  C   C23       1.0  0.01154  0.81849  0.11884  1.0000
  C   C24       1.0  0.01156  0.18151  0.38114  1.0000
  C   C25       1.0  0.61372  0.26021  0.88350  1.0000
  C   C26       1.0  0.61372  0.73979  0.61649  1.0000
  C   C27       1.0  0.38627  0.73979  0.11648  1.0000
  C   C28       1.0  0.38628  0.26021  0.38351  1.0000
  N   N1        1.0  0.03277  0.53361  0.87434  1.0000
  N   N2        1.0  0.03277  0.46639  0.62566  1.0000
  N   N3        1.0  0.96723  0.46639  0.12566  1.0000
  N   N4        1.0  0.96722  0.53361  0.37434  1.0000
  O   O1        1.0  0.49694  0.27435  0.95327  1.0000
  O   O2        1.0  0.49694  0.72564  0.54672  1.0000
  O   O3        1.0  0.50306  0.72564  0.04672  1.0000
  O   O4        1.0  0.50306  0.27435  0.45327  1.0000
  O   O5        1.0  0.61650  0.17168  0.81385  1.0000
  O   O6        1.0  0.61650  0.82832  0.68613  1.0000
  O   O7        1.0  0.38350  0.82832  0.18613  1.0000
  O   O8        1.0  0.38350  0.17168  0.31386  1.0000
  O   O9        1.0  0.94710  0.12203  0.95817  1.0000
  O   O10       1.0  0.94711  0.87796  0.54181  1.0000
  O   O11       1.0  0.05288  0.87796  0.04181  1.0000
  O   O12       1.0  0.05288  0.12203  0.45817  1.0000
  O   O13       1.0  0.07645  0.13154  0.80666  1.0000
  O   O14       1.0  0.07647  0.86847  0.69332  1.0000
  O   O15       1.0  0.92353  0.86846  0.19333  1.0000
  O   O16       1.0  0.92355  0.13154  0.30665  1.0000
  O   O17       1.0  0.65205  0.94418  0.03189  1.0000
  O   O18       1.0  0.65216  0.05582  0.46809  1.0000
  O   O19       1.0  0.34783  0.05582  0.96809  1.0000
  O   O20       1.0  0.34794  0.94417  0.53189  1.0000
  O   O21       1.0  0.62558  0.00002  0.24996  1.0000
  O   O22       1.0  0.37441  0.00002  0.74996  1.0000
  O   O23       1.0  0.72061  0.27648  0.12963  1.0000
  O   O24       1.0  0.72060  0.72351  0.37036  1.0000
  O   O25       1.0  0.27940  0.72351  0.87035  1.0000
  O   O26       1.0  0.27939  0.27649  0.62964  1.0000
  O   O27       1.0  0.17715  0.12905  0.14683  1.0000
  O   O28       1.0  0.17713  0.87095  0.35315  1.0000
  O   O29       1.0  0.82288  0.87095  0.85315  1.0000
  O   O30       1.0  0.82286  0.12904  0.64683  1.0000
