data_image0
_chemical_formula_structural       Cu2H34C26S2N4O14
_chemical_formula_sum              "Cu2 H34 C26 S2 N4 O14"
_cell_length_a       8.90404
_cell_length_b       9.35269
_cell_length_c       12.4526
_cell_angle_alpha    98.3287
_cell_angle_beta     91.6163
_cell_angle_gamma    102.254

_space_group_name_H-M_alt    "P 1"
_space_group_IT_number       1

loop_
  _space_group_symop_operation_xyz
  'x, y, z'

loop_
  _atom_site_type_symbol
  _atom_site_label
  _atom_site_symmetry_multiplicity
  _atom_site_fract_x
  _atom_site_fract_y
  _atom_site_fract_z
  _atom_site_occupancy
  Cu  Cu1       1.0  1.00000  0.00000  0.00000  1.0000
  Cu  Cu2       1.0  0.50000  0.00000  0.00000  1.0000
  H   H1        1.0  0.71410  0.29895  0.07934  1.0000
  H   H2        1.0  0.28590  0.70106  0.92065  1.0000
  H   H3        1.0  0.68056  0.46367  0.80569  1.0000
  H   H4        1.0  0.31944  0.53634  0.19430  1.0000
  H   H5        1.0  0.58354  0.57790  0.88935  1.0000
  H   H6        1.0  0.41647  0.42211  0.11065  1.0000
  H   H7        1.0  0.49761  0.38339  0.85376  1.0000
  H   H8        1.0  0.50239  0.61663  0.14624  1.0000
  H   H9        1.0  0.84479  0.51966  0.10171  1.0000
  H   H10       1.0  0.15521  0.48034  0.89829  1.0000
  H   H11       1.0  0.75108  0.65492  0.05516  1.0000
  H   H12       1.0  0.24892  0.34509  0.94484  1.0000
  H   H13       1.0  0.89399  0.59077  0.97823  1.0000
  H   H14       1.0  0.10601  0.40924  0.02177  1.0000
  H   H15       1.0  0.75032  0.00695  0.84535  1.0000
  H   H16       1.0  0.24968  0.99305  0.15465  1.0000
  H   H17       1.0  0.59393  0.03644  0.71914  1.0000
  H   H18       1.0  0.40607  0.96355  0.28086  1.0000
  H   H19       1.0  0.69445  0.07635  0.59994  1.0000
  H   H20       1.0  0.30555  0.92364  0.40006  1.0000
  H   H21       1.0  0.62126  0.21666  0.68054  1.0000
  H   H22       1.0  0.37874  0.78334  0.31946  1.0000
  H   H23       1.0  0.89536  0.39269  0.73224  1.0000
  H   H24       1.0  0.10464  0.60730  0.26776  1.0000
  H   H25       1.0  0.94758  0.26242  0.62968  1.0000
  H   H26       1.0  0.05242  0.73757  0.37032  1.0000
  H   H27       1.0  0.04177  0.29663  0.76252  1.0000
  H   H28       1.0  0.95823  0.70336  0.23747  1.0000
  H   H29       1.0  0.64335  0.85514  0.27681  1.0000
  H   H30       1.0  0.35665  0.14486  0.72320  1.0000
  H   H31       1.0  0.76497  0.82478  0.44877  1.0000
  H   H32       1.0  0.23503  0.17521  0.55123  1.0000
  H   H33       1.0  0.13182  0.20142  0.41825  1.0000
  H   H34       1.0  0.86818  0.79857  0.58176  1.0000
  C   C1        1.0  0.64758  0.30730  0.00579  1.0000
  C   C2        1.0  0.35243  0.69271  0.99421  1.0000
  C   C3        1.0  0.60548  0.46596  0.87411  1.0000
  C   C4        1.0  0.39453  0.53405  0.12589  1.0000
  C   C5        1.0  0.80011  0.55766  0.03072  1.0000
  C   C6        1.0  0.19990  0.44234  0.96928  1.0000
  C   C7        1.0  0.84434  0.09828  0.83171  1.0000
  C   C8        1.0  0.15565  0.90172  0.16829  1.0000
  C   C9        1.0  0.67341  0.12074  0.68356  1.0000
  C   C10       1.0  0.32659  0.87925  0.31644  1.0000
  C   C11       1.0  0.93252  0.28730  0.71713  1.0000
  C   C12       1.0  0.06748  0.71270  0.28287  1.0000
  C   C13       1.0  0.73826  0.04266  0.14286  1.0000
  C   C14       1.0  0.26173  0.95734  0.85714  1.0000
  C   C15       1.0  0.81964  0.03936  0.24863  1.0000
  C   C16       1.0  0.18036  0.96064  0.75137  1.0000
  C   C17       1.0  0.75142  0.92990  0.30882  1.0000
  C   C18       1.0  0.24857  0.07009  0.69118  1.0000
  C   C19       1.0  0.82089  0.91373  0.40631  1.0000
  C   C20       1.0  0.17911  0.08626  0.59369  1.0000
  C   C21       1.0  0.96126  0.00855  0.44866  1.0000
  C   C22       1.0  0.03874  0.99144  0.55134  1.0000
  C   C23       1.0  0.02600  0.12094  0.38936  1.0000
  C   C24       1.0  0.97400  0.87906  0.61064  1.0000
  C   C25       1.0  0.95789  0.13600  0.29088  1.0000
  C   C26       1.0  0.04211  0.86400  0.70912  1.0000
  S   S1        1.0  0.05411  0.27991  0.22017  1.0000
  S   S2        1.0  0.94589  0.72009  0.77983  1.0000
  N   N1        1.0  0.68170  0.43735  0.97146  1.0000
  N   N2        1.0  0.31831  0.56266  0.02853  1.0000
  N   N3        1.0  0.81818  0.16714  0.74903  1.0000
  N   N4        1.0  0.18181  0.83285  0.25097  1.0000
  O   O1        1.0  0.79408  0.01506  0.05127  1.0000
  O   O2        1.0  0.20592  0.98494  0.94874  1.0000
  O   O3        1.0  0.60071  0.06316  0.14798  1.0000
  O   O4        1.0  0.39929  0.93684  0.85202  1.0000
  O   O5        1.0  0.54565  0.19895  0.95673  1.0000
  O   O6        1.0  0.45436  0.80106  0.04327  1.0000
  O   O7        1.0  0.96825  0.13208  0.89091  1.0000
  O   O8        1.0  0.03174  0.86792  0.10909  1.0000
  O   O9        1.0  0.13360  0.20280  0.13495  1.0000
  O   O10       1.0  0.86640  0.79720  0.86505  1.0000
  O   O11       1.0  0.16063  0.38428  0.30110  1.0000
  O   O12       1.0  0.83937  0.61571  0.69891  1.0000
  O   O13       1.0  0.93084  0.34091  0.17599  1.0000
  O   O14       1.0  0.06916  0.65910  0.82402  1.0000
