data_image0
_chemical_formula_structural       Nd4H32C36N4O28
_chemical_formula_sum              "Nd4 H32 C36 N4 O28"
_cell_length_a       8.31627
_cell_length_b       9.43558
_cell_length_c       16.9311
_cell_angle_alpha    107.851
_cell_angle_beta     90.0002
_cell_angle_gamma    90

_space_group_name_H-M_alt    "P 1"
_space_group_IT_number       1

loop_
  _space_group_symop_operation_xyz
  'x, y, z'

loop_
  _atom_site_type_symbol
  _atom_site_label
  _atom_site_symmetry_multiplicity
  _atom_site_fract_x
  _atom_site_fract_y
  _atom_site_fract_z
  _atom_site_occupancy
  Nd  Nd1       1.0  0.92601  0.83353  0.90166  1.0000
  Nd  Nd2       1.0  0.42601  0.66647  0.59834  1.0000
  Nd  Nd3       1.0  0.07399  0.16647  0.09834  1.0000
  Nd  Nd4       1.0  0.57400  0.33353  0.40166  1.0000
  H   H1        1.0  0.95428  0.49525  0.94897  1.0000
  H   H2        1.0  0.45428  0.00474  0.55103  1.0000
  H   H3        1.0  0.04572  0.50474  0.05103  1.0000
  H   H4        1.0  0.54572  0.99526  0.44897  1.0000
  H   H5        1.0  0.62860  0.15920  0.80585  1.0000
  H   H6        1.0  0.12861  0.34080  0.69415  1.0000
  H   H7        1.0  0.37139  0.84081  0.19415  1.0000
  H   H8        1.0  0.87140  0.65920  0.30585  1.0000
  H   H9        1.0  0.52252  0.35282  0.74208  1.0000
  H   H10       1.0  0.02253  0.14717  0.75792  1.0000
  H   H11       1.0  0.47747  0.64717  0.25793  1.0000
  H   H12       1.0  0.97747  0.85283  0.24208  1.0000
  H   H13       1.0  0.47224  0.96426  0.09969  1.0000
  H   H14       1.0  0.97224  0.53574  0.40031  1.0000
  H   H15       1.0  0.52775  0.03575  0.90031  1.0000
  H   H16       1.0  0.02776  0.46426  0.59969  1.0000
  H   H17       1.0  0.60912  0.11098  0.14973  1.0000
  H   H18       1.0  0.10913  0.38902  0.35027  1.0000
  H   H19       1.0  0.39087  0.88902  0.85027  1.0000
  H   H20       1.0  0.89087  0.61099  0.64973  1.0000
  H   H21       1.0  0.63039  0.93367  0.16386  1.0000
  H   H22       1.0  0.13039  0.56632  0.33614  1.0000
  H   H23       1.0  0.36960  0.06633  0.83614  1.0000
  H   H24       1.0  0.86961  0.43368  0.66386  1.0000
  H   H25       1.0  0.18577  0.66552  0.78069  1.0000
  H   H26       1.0  0.68577  0.83448  0.71931  1.0000
  H   H27       1.0  0.81423  0.33448  0.21932  1.0000
  H   H28       1.0  0.31423  0.16552  0.28069  1.0000
  H   H29       1.0  0.23046  0.62985  0.86468  1.0000
  H   H30       1.0  0.73047  0.87015  0.63533  1.0000
  H   H31       1.0  0.76953  0.37015  0.13533  1.0000
  H   H32       1.0  0.26953  0.12985  0.36468  1.0000
  C   C1        1.0  0.85728  0.45875  0.90432  1.0000
  C   C2        1.0  0.35728  0.04124  0.59568  1.0000
  C   C3        1.0  0.14272  0.54124  0.09568  1.0000
  C   C4        1.0  0.64272  0.95876  0.40432  1.0000
  C   C5        1.0  0.79406  0.31478  0.88545  1.0000
  C   C6        1.0  0.29406  0.18522  0.61454  1.0000
  C   C7        1.0  0.20594  0.68522  0.11455  1.0000
  C   C8        1.0  0.70594  0.81479  0.38546  1.0000
  C   C9        1.0  0.67445  0.27282  0.82448  1.0000
  C   C10       1.0  0.17445  0.22716  0.67552  1.0000
  C   C11       1.0  0.32554  0.72717  0.17552  1.0000
  C   C12       1.0  0.82555  0.77283  0.32448  1.0000
  C   C13       1.0  0.61726  0.37793  0.78876  1.0000
  C   C14       1.0  0.11727  0.12207  0.71123  1.0000
  C   C15       1.0  0.38274  0.62207  0.21124  1.0000
  C   C16       1.0  0.88273  0.87793  0.28876  1.0000
  C   C17       1.0  0.68568  0.52001  0.81301  1.0000
  C   C18       1.0  0.18568  0.97998  0.68699  1.0000
  C   C19       1.0  0.31433  0.47998  0.18699  1.0000
  C   C20       1.0  0.81433  0.02001  0.31301  1.0000
  C   C21       1.0  0.63404  0.63735  0.77478  1.0000
  C   C22       1.0  0.13406  0.86263  0.72521  1.0000
  C   C23       1.0  0.36595  0.36263  0.22521  1.0000
  C   C24       1.0  0.86595  0.13736  0.27479  1.0000
  C   C25       1.0  0.85568  0.20888  0.92962  1.0000
  C   C26       1.0  0.35567  0.29112  0.57038  1.0000
  C   C27       1.0  0.14433  0.79113  0.07039  1.0000
  C   C28       1.0  0.64432  0.70888  0.42962  1.0000
  C   C29       1.0  0.70919  0.93993  0.04599  1.0000
  C   C30       1.0  0.20919  0.56008  0.45401  1.0000
  C   C31       1.0  0.29081  0.06008  0.95401  1.0000
  C   C32       1.0  0.79081  0.43993  0.54599  1.0000
  C   C33       1.0  0.59709  0.99123  0.11867  1.0000
  C   C34       1.0  0.09708  0.50877  0.38133  1.0000
  C   C35       1.0  0.40291  0.00878  0.88133  1.0000
  C   C36       1.0  0.90292  0.49123  0.61867  1.0000
  N   N1        1.0  0.80625  0.55865  0.86855  1.0000
  N   N2        1.0  0.30625  0.94135  0.63145  1.0000
  N   N3        1.0  0.19376  0.44135  0.13145  1.0000
  N   N4        1.0  0.69375  0.05865  0.36855  1.0000
  O   O1        1.0  0.71867  0.75664  0.79294  1.0000
  O   O2        1.0  0.21867  0.74335  0.70706  1.0000
  O   O3        1.0  0.28133  0.24336  0.20706  1.0000
  O   O4        1.0  0.78133  0.25664  0.29294  1.0000
  O   O5        1.0  0.51534  0.61043  0.72647  1.0000
  O   O6        1.0  0.01534  0.88957  0.77353  1.0000
  O   O7        1.0  0.48467  0.38956  0.27353  1.0000
  O   O8        1.0  0.98466  0.11044  0.22647  1.0000
  O   O9        1.0  0.94147  0.26477  0.99417  1.0000
  O   O10       1.0  0.44148  0.23522  0.50583  1.0000
  O   O11       1.0  0.05852  0.73523  0.00584  1.0000
  O   O12       1.0  0.55852  0.76478  0.49417  1.0000
  O   O13       1.0  0.81587  0.07364  0.89892  1.0000
  O   O14       1.0  0.31587  0.42635  0.60108  1.0000
  O   O15       1.0  0.18413  0.92635  0.10108  1.0000
  O   O16       1.0  0.68413  0.57365  0.39892  1.0000
  O   O17       1.0  0.85020  0.99989  0.05086  1.0000
  O   O18       1.0  0.35020  0.50011  0.44915  1.0000
  O   O19       1.0  0.14980  0.00011  0.94915  1.0000
  O   O20       1.0  0.64981  0.49989  0.55086  1.0000
  O   O21       1.0  0.66876  0.83756  0.98118  1.0000
  O   O22       1.0  0.16876  0.66245  0.51882  1.0000
  O   O23       1.0  0.33124  0.16245  0.01882  1.0000
  O   O24       1.0  0.83124  0.33755  0.48118  1.0000
  O   O25       1.0  0.14086  0.64330  0.83086  1.0000
  O   O26       1.0  0.64087  0.85671  0.66914  1.0000
  O   O27       1.0  0.85913  0.35671  0.16914  1.0000
  O   O28       1.0  0.35913  0.14330  0.33086  1.0000
