data_image0
_chemical_formula_structural       CdH32C18N6O8
_chemical_formula_sum              "Cd1 H32 C18 N6 O8"
_cell_length_a       5.41519
_cell_length_b       9.18494
_cell_length_c       13.0413
_cell_angle_alpha    107.272
_cell_angle_beta     101.958
_cell_angle_gamma    90.0182

_space_group_name_H-M_alt    "P 1"
_space_group_IT_number       1

loop_
  _space_group_symop_operation_xyz
  'x, y, z'

loop_
  _atom_site_type_symbol
  _atom_site_label
  _atom_site_symmetry_multiplicity
  _atom_site_fract_x
  _atom_site_fract_y
  _atom_site_fract_z
  _atom_site_occupancy
  Cd  Cd1       1.0  0.15746  0.99988  0.99998  1.0000
  H   H1        1.0  0.33248  0.54642  0.25626  1.0000
  H   H2        1.0  0.07783  0.45330  0.74386  1.0000
  H   H3        1.0  0.13350  0.77492  0.33534  1.0000
  H   H4        1.0  0.79978  0.22507  0.66483  1.0000
  H   H5        1.0  0.79405  0.02789  0.12856  1.0000
  H   H6        1.0  0.66560  0.97220  0.87158  1.0000
  H   H7        1.0  0.71816  0.87324  0.02570  1.0000
  H   H8        1.0  0.69316  0.12692  0.97445  1.0000
  H   H9        1.0  0.78853  0.40758  0.20648  1.0000
  H   H10       1.0  0.58317  0.59293  0.79338  1.0000
  H   H11       1.0  0.85663  0.40050  0.39917  1.0000
  H   H12       1.0  0.45767  0.59954  0.60059  1.0000
  H   H13       1.0  0.78186  0.21401  0.30312  1.0000
  H   H14       1.0  0.47847  0.78608  0.69647  1.0000
  H   H15       1.0  0.54738  0.30958  0.37144  1.0000
  H   H16       1.0  0.17585  0.68985  0.62842  1.0000
  H   H17       1.0  0.64621  0.90598  0.35081  1.0000
  H   H18       1.0  0.29655  0.09389  0.64910  1.0000
  H   H19       1.0  0.51323  0.99393  0.52271  1.0000
  H   H20       1.0  0.99052  0.00650  0.47740  1.0000
  H   H21       1.0  0.72673  0.85147  0.53941  1.0000
  H   H22       1.0  0.18839  0.14854  0.46061  1.0000
  H   H23       1.0  0.39448  0.80711  0.51139  1.0000
  H   H24       1.0  0.88490  0.19379  0.48908  1.0000
  H   H25       1.0  0.82614  0.86000  0.22500  1.0000
  H   H26       1.0  0.60230  0.13960  0.77487  1.0000
  H   H27       1.0  0.67497  0.64244  0.06065  1.0000
  H   H28       1.0  0.61422  0.35724  0.93903  1.0000
  H   H29       1.0  0.94317  0.58855  0.14266  1.0000
  H   H30       1.0  0.80084  0.41132  0.85716  1.0000
  H   H31       1.0  0.97431  0.63899  0.02370  1.0000
  H   H32       1.0  0.95050  0.36116  0.97631  1.0000
  C   C1        1.0  0.41618  0.29024  0.15212  1.0000
  C   C2        1.0  0.26455  0.70966  0.84780  1.0000
  C   C3        1.0  0.62422  0.39586  0.24145  1.0000
  C   C4        1.0  0.38372  0.60421  0.75850  1.0000
  C   C5        1.0  0.70744  0.32553  0.33512  1.0000
  C   C6        1.0  0.37247  0.67438  0.66469  1.0000
  C   C7        1.0  0.66754  0.67231  0.33860  1.0000
  C   C8        1.0  0.33051  0.32764  0.66145  1.0000
  C   C9        1.0  0.53436  0.82182  0.37025  1.0000
  C   C10       1.0  0.16549  0.17819  0.62984  1.0000
  C   C11       1.0  0.54254  0.87174  0.49387  1.0000
  C   C12       1.0  0.04972  0.12854  0.50627  1.0000
  C   C13       1.0  0.21835  0.86033  0.21659  1.0000
  C   C14       1.0  0.00291  0.13969  0.78359  1.0000
  C   C15       1.0  0.93692  0.83298  0.16075  1.0000
  C   C16       1.0  0.77696  0.16691  0.83926  1.0000
  C   C17       1.0  0.87988  0.66483  0.09322  1.0000
  C   C18       1.0  0.78689  0.33507  0.90664  1.0000
  N   N1        1.0  0.52427  0.54494  0.27955  1.0000
  N   N2        1.0  0.24635  0.45498  0.72059  1.0000
  N   N3        1.0  0.27782  0.81604  0.30828  1.0000
  N   N4        1.0  0.97107  0.18401  0.69193  1.0000
  N   N5        1.0  0.86614  0.92885  0.08892  1.0000
  N   N6        1.0  0.77769  0.07114  0.91116  1.0000
  O   O1        1.0  0.49420  0.16952  0.09080  1.0000
  O   O2        1.0  0.40362  0.83043  0.90921  1.0000
  O   O3        1.0  0.18950  0.32163  0.14660  1.0000
  O   O4        1.0  0.04326  0.67814  0.85313  1.0000
  O   O5        1.0  0.90313  0.67468  0.37046  1.0000
  O   O6        1.0  0.53428  0.32519  0.62958  1.0000
  O   O7        1.0  0.37723  0.91425  0.17862  1.0000
  O   O8        1.0  0.19955  0.08588  0.82168  1.0000
