data_image0
_chemical_formula_structural       CdH26C14N4O8
_chemical_formula_sum              "Cd1 H26 C14 N4 O8"
_cell_length_a       7.90224
_cell_length_b       9.21511
_cell_length_c       9.21513
_cell_angle_alpha    69.3894
_cell_angle_beta     84.3065
_cell_angle_gamma    84.3083

_space_group_name_H-M_alt    "P 1"
_space_group_IT_number       1

loop_
  _space_group_symop_operation_xyz
  'x, y, z'

loop_
  _atom_site_type_symbol
  _atom_site_label
  _atom_site_symmetry_multiplicity
  _atom_site_fract_x
  _atom_site_fract_y
  _atom_site_fract_z
  _atom_site_occupancy
  Cd  Cd1       1.0  0.99999  0.30409  0.69591  1.0000
  H   H1        1.0  0.63679  0.67283  0.40977  1.0000
  H   H2        1.0  0.36321  0.59023  0.32716  1.0000
  H   H3        1.0  0.72211  0.63661  0.23995  1.0000
  H   H4        1.0  0.27789  0.76005  0.36339  1.0000
  H   H5        1.0  0.85895  0.62659  0.38642  1.0000
  H   H6        1.0  0.14106  0.61357  0.37341  1.0000
  H   H7        1.0  0.58323  0.40177  0.42090  1.0000
  H   H8        1.0  0.41678  0.57910  0.59821  1.0000
  H   H9        1.0  0.04912  0.19574  0.23126  1.0000
  H   H10       1.0  0.95088  0.76873  0.80427  1.0000
  H   H11       1.0  0.96441  0.95528  0.20308  1.0000
  H   H12       1.0  0.03558  0.79692  0.04472  1.0000
  H   H13       1.0  0.81279  0.00377  0.50529  1.0000
  H   H14       1.0  0.18722  0.49472  0.99623  1.0000
  H   H15       1.0  0.02858  0.94935  0.46293  1.0000
  H   H16       1.0  0.97142  0.53706  0.05066  1.0000
  H   H17       1.0  0.86704  0.82074  0.48308  1.0000
  H   H18       1.0  0.13297  0.51692  0.17927  1.0000
  H   H19       1.0  0.66072  0.28604  0.67851  1.0000
  H   H20       1.0  0.33925  0.32149  0.71396  1.0000
  H   H21       1.0  0.68218  0.46984  0.65606  1.0000
  H   H22       1.0  0.31781  0.34394  0.53016  1.0000
  H   H23       1.0  0.68064  0.29487  0.24575  1.0000
  H   H24       1.0  0.31936  0.75425  0.70513  1.0000
  H   H25       1.0  0.68352  0.07460  0.13353  1.0000
  H   H26       1.0  0.31648  0.86648  0.92539  1.0000
  C   C1        1.0  0.73269  0.60115  0.36564  1.0000
  C   C2        1.0  0.26731  0.63436  0.39884  1.0000
  C   C3        1.0  0.70821  0.42789  0.44604  1.0000
  C   C4        1.0  0.29178  0.55395  0.57211  1.0000
  C   C5        1.0  0.84911  0.33550  0.38032  1.0000
  C   C6        1.0  0.15091  0.61969  0.66451  1.0000
  C   C7        1.0  0.91977  0.18819  0.20284  1.0000
  C   C8        1.0  0.08023  0.79716  0.81181  1.0000
  C   C9        1.0  0.87457  0.01574  0.26694  1.0000
  C   C10       1.0  0.12542  0.73306  0.98426  1.0000
  C   C11       1.0  0.89646  0.94296  0.43961  1.0000
  C   C12       1.0  0.10354  0.56039  0.05704  1.0000
  C   C13       1.0  0.90988  0.24615  0.02603  1.0000
  C   C14       1.0  0.09013  0.97397  0.75385  1.0000
  N   N1        1.0  0.72283  0.38261  0.61429  1.0000
  N   N2        1.0  0.27715  0.38571  0.61738  1.0000
  N   N3        1.0  0.80376  0.28042  0.27423  1.0000
  N   N4        1.0  0.19624  0.72577  0.71958  1.0000
  O   O1        1.0  0.99782  0.31966  0.42158  1.0000
  O   O2        1.0  0.00218  0.57841  0.68036  1.0000
  O   O3        1.0  0.70247  0.00263  0.23961  1.0000
  O   O4        1.0  0.29752  0.76040  0.99737  1.0000
  O   O5        1.0  0.05289  0.25240  0.94733  1.0000
  O   O6        1.0  0.94711  0.05267  0.74759  1.0000
  O   O7        1.0  0.76352  0.27222  0.97365  1.0000
  O   O8        1.0  0.23648  0.02635  0.72778  1.0000
