data_image0
_chemical_formula_structural       Cd2H40C24N12O16
_chemical_formula_sum              "Cd2 H40 C24 N12 O16"
_cell_length_a       4.80401
_cell_length_b       11.7927
_cell_length_c       15.362
_cell_angle_alpha    94.8196
_cell_angle_beta     90.0155
_cell_angle_gamma    101.762

_space_group_name_H-M_alt    "P 1"
_space_group_IT_number       1

loop_
  _space_group_symop_operation_xyz
  'x, y, z'

loop_
  _atom_site_type_symbol
  _atom_site_label
  _atom_site_symmetry_multiplicity
  _atom_site_fract_x
  _atom_site_fract_y
  _atom_site_fract_z
  _atom_site_occupancy
  Cd  Cd1       1.0  1.00000  1.00000  0.50000  1.0000
  Cd  Cd2       1.0  0.00001  0.00000  1.00000  1.0000
  H   H1        1.0  0.65274  0.74706  0.51442  1.0000
  H   H2        1.0  0.90689  0.25334  0.98593  1.0000
  H   H3        1.0  0.34726  0.25294  0.48558  1.0000
  H   H4        1.0  0.09311  0.74666  0.01407  1.0000
  H   H5        1.0  0.67561  0.81847  0.61981  1.0000
  H   H6        1.0  0.85707  0.18186  0.88059  1.0000
  H   H7        1.0  0.32440  0.18154  0.38019  1.0000
  H   H8        1.0  0.14293  0.81814  0.11941  1.0000
  H   H9        1.0  0.23845  0.42338  0.62021  1.0000
  H   H10       1.0  0.81504  0.57637  0.87916  1.0000
  H   H11       1.0  0.76156  0.57662  0.37979  1.0000
  H   H12       1.0  0.18494  0.42363  0.12084  1.0000
  H   H13       1.0  0.45058  0.48967  0.71226  1.0000
  H   H14       1.0  0.96252  0.51007  0.78751  1.0000
  H   H15       1.0  0.54943  0.51033  0.28773  1.0000
  H   H16       1.0  0.03746  0.48993  0.21249  1.0000
  H   H17       1.0  0.78216  0.17083  0.74260  1.0000
  H   H18       1.0  0.61122  0.82959  0.75750  1.0000
  H   H19       1.0  0.21784  0.82917  0.25739  1.0000
  H   H20       1.0  0.38878  0.17040  0.24250  1.0000
  H   H21       1.0  0.96136  0.21381  0.64757  1.0000
  H   H22       1.0  0.74742  0.78657  0.85256  1.0000
  H   H23       1.0  0.03864  0.78619  0.35243  1.0000
  H   H24       1.0  0.25258  0.21342  0.14744  1.0000
  H   H25       1.0  0.16158  0.77840  0.51372  1.0000
  H   H26       1.0  0.38380  0.22160  0.98639  1.0000
  H   H27       1.0  0.83842  0.22159  0.48628  1.0000
  H   H28       1.0  0.61620  0.77840  0.01361  1.0000
  H   H29       1.0  0.18856  0.85379  0.61039  1.0000
  H   H30       1.0  0.33475  0.14633  0.88970  1.0000
  H   H31       1.0  0.81145  0.14621  0.38961  1.0000
  H   H32       1.0  0.66525  0.85368  0.11030  1.0000
  H   H33       1.0  0.39888  0.58351  0.54750  1.0000
  H   H34       1.0  0.81569  0.41661  0.95230  1.0000
  H   H35       1.0  0.60113  0.41649  0.45250  1.0000
  H   H36       1.0  0.18430  0.58339  0.04770  1.0000
  H   H37       1.0  0.52991  0.32164  0.74394  1.0000
  H   H38       1.0  0.20778  0.67880  0.75619  1.0000
  H   H39       1.0  0.47010  0.67836  0.25606  1.0000
  H   H40       1.0  0.79222  0.32120  0.24380  1.0000
  C   C1        1.0  0.78008  0.76310  0.57500  1.0000
  C   C2        1.0  0.01757  0.23715  0.92529  1.0000
  C   C3        1.0  0.21993  0.23690  0.42501  1.0000
  C   C4        1.0  0.98242  0.76285  0.07472  1.0000
  C   C5        1.0  0.76983  0.64992  0.61616  1.0000
  C   C6        1.0  0.12072  0.35022  0.88404  1.0000
  C   C7        1.0  0.23018  0.35008  0.38384  1.0000
  C   C8        1.0  0.87927  0.64978  0.11596  1.0000
  C   C9        1.0  0.45606  0.46599  0.64165  1.0000
  C   C10       1.0  0.99065  0.53395  0.85813  1.0000
  C   C11       1.0  0.54395  0.53401  0.35835  1.0000
  C   C12       1.0  0.00933  0.46605  0.14187  1.0000
  C   C13       1.0  0.64249  0.37638  0.62456  1.0000
  C   C14       1.0  0.26626  0.62384  0.87545  1.0000
  C   C15       1.0  0.35752  0.62362  0.37544  1.0000
  C   C16       1.0  0.73373  0.37617  0.12455  1.0000
  C   C17       1.0  0.75226  0.20125  0.67835  1.0000
  C   C18       1.0  0.55093  0.79920  0.82176  1.0000
  C   C19       1.0  0.24773  0.79875  0.32165  1.0000
  C   C20       1.0  0.44907  0.20079  0.17824  1.0000
  C   C21       1.0  0.54899  0.10249  0.62410  1.0000
  C   C22       1.0  0.44639  0.89791  0.87595  1.0000
  C   C23       1.0  0.45102  0.89751  0.37590  1.0000
  C   C24       1.0  0.55362  0.10208  0.12405  1.0000
  N   N1        1.0  0.06174  0.82921  0.55587  1.0000
  N   N2        1.0  0.23283  0.17085  0.94428  1.0000
  N   N3        1.0  0.93826  0.17079  0.44413  1.0000
  N   N4        1.0  0.76717  0.82916  0.05572  1.0000
  N   N5        1.0  0.53524  0.56853  0.59491  1.0000
  N   N6        1.0  0.96739  0.43161  0.90505  1.0000
  N   N7        1.0  0.46476  0.43147  0.40509  1.0000
  N   N8        1.0  0.03260  0.56839  0.09495  1.0000
  N   N9        1.0  0.65110  0.30884  0.69009  1.0000
  N   N10       1.0  0.34183  0.69163  0.81005  1.0000
  N   N11       1.0  0.34890  0.69116  0.30991  1.0000
  N   N12       1.0  0.65816  0.30836  0.18995  1.0000
  O   O1        1.0  0.95505  0.63593  0.66909  1.0000
  O   O2        1.0  0.32020  0.36411  0.83122  1.0000
  O   O3        1.0  0.04495  0.36407  0.33091  1.0000
  O   O4        1.0  0.67978  0.63589  0.16878  1.0000
  O   O5        1.0  0.76535  0.36438  0.55309  1.0000
  O   O6        1.0  0.40109  0.63576  0.94692  1.0000
  O   O7        1.0  0.23466  0.63562  0.44691  1.0000
  O   O8        1.0  0.59888  0.36425  0.05308  1.0000
  O   O9        1.0  0.31507  0.12381  0.59871  1.0000
  O   O10       1.0  0.19105  0.87653  0.90120  1.0000
  O   O11       1.0  0.68494  0.87619  0.40128  1.0000
  O   O12       1.0  0.80896  0.12347  0.09880  1.0000
  O   O13       1.0  0.63163  0.00720  0.60900  1.0000
  O   O14       1.0  0.62422  0.99323  0.89115  1.0000
  O   O15       1.0  0.36839  0.99280  0.39100  1.0000
  O   O16       1.0  0.37579  0.00676  0.10885  1.0000
