data_image0
_chemical_formula_structural       La4H36C28S4O36
_chemical_formula_sum              "La4 H36 C28 S4 O36"
_cell_length_a       8.39385
_cell_length_b       7.9893
_cell_length_c       19.2873
_cell_angle_alpha    90.0001
_cell_angle_beta     89.9995
_cell_angle_gamma    75.4985

_space_group_name_H-M_alt    "P 1"
_space_group_IT_number       1

loop_
  _space_group_symop_operation_xyz
  'x, y, z'

loop_
  _atom_site_type_symbol
  _atom_site_label
  _atom_site_symmetry_multiplicity
  _atom_site_fract_x
  _atom_site_fract_y
  _atom_site_fract_z
  _atom_site_occupancy
  La  La1       1.0  0.34130  0.33942  0.51131  1.0000
  La  La2       1.0  0.15871  0.66058  0.01131  1.0000
  La  La3       1.0  0.65870  0.66057  0.48870  1.0000
  La  La4       1.0  0.84130  0.33943  0.98870  1.0000
  H   H1        1.0  0.11546  0.08376  0.57126  1.0000
  H   H2        1.0  0.38453  0.91625  0.07126  1.0000
  H   H3        1.0  0.88455  0.91624  0.42874  1.0000
  H   H4        1.0  0.61547  0.08376  0.92874  1.0000
  H   H5        1.0  0.23302  0.97683  0.51196  1.0000
  H   H6        1.0  0.26698  0.02317  0.01196  1.0000
  H   H7        1.0  0.76698  0.02317  0.48804  1.0000
  H   H8        1.0  0.73302  0.97683  0.98804  1.0000
  H   H9        1.0  0.11022  0.17177  0.41353  1.0000
  H   H10       1.0  0.38978  0.82823  0.91353  1.0000
  H   H11       1.0  0.88978  0.82823  0.58647  1.0000
  H   H12       1.0  0.61022  0.17177  0.08647  1.0000
  H   H13       1.0  0.02816  0.37458  0.41164  1.0000
  H   H14       1.0  0.47184  0.62543  0.91164  1.0000
  H   H15       1.0  0.97184  0.62542  0.58836  1.0000
  H   H16       1.0  0.52816  0.37458  0.08836  1.0000
  H   H17       1.0  0.41263  0.00971  0.41472  1.0000
  H   H18       1.0  0.08738  0.99028  0.91472  1.0000
  H   H19       1.0  0.58737  0.99029  0.58528  1.0000
  H   H20       1.0  0.91262  0.00972  0.08528  1.0000
  H   H21       1.0  0.58509  0.05044  0.41876  1.0000
  H   H22       1.0  0.91492  0.94955  0.91876  1.0000
  H   H23       1.0  0.41491  0.94955  0.58124  1.0000
  H   H24       1.0  0.08508  0.05045  0.08124  1.0000
  H   H25       1.0  0.63511  0.27795  0.31952  1.0000
  H   H26       1.0  0.86487  0.72205  0.81952  1.0000
  H   H27       1.0  0.36489  0.72204  0.68049  1.0000
  H   H28       1.0  0.13512  0.27795  0.18048  1.0000
  H   H29       1.0  0.54615  0.34710  0.19811  1.0000
  H   H30       1.0  0.95384  0.65289  0.69811  1.0000
  H   H31       1.0  0.45386  0.65290  0.80189  1.0000
  H   H32       1.0  0.04615  0.34709  0.30189  1.0000
  H   H33       1.0  0.15714  0.77513  0.26787  1.0000
  H   H34       1.0  0.34286  0.22489  0.76787  1.0000
  H   H35       1.0  0.84287  0.22486  0.73213  1.0000
  H   H36       1.0  0.65713  0.77512  0.23214  1.0000
  C   C1        1.0  0.31490  0.62843  0.34659  1.0000
  C   C2        1.0  0.18511  0.37157  0.84659  1.0000
  C   C3        1.0  0.68510  0.37157  0.65341  1.0000
  C   C4        1.0  0.81490  0.62843  0.15341  1.0000
  C   C5        1.0  0.45269  0.48975  0.36312  1.0000
  C   C6        1.0  0.04731  0.51025  0.86312  1.0000
  C   C7        1.0  0.54731  0.51025  0.63688  1.0000
  C   C8        1.0  0.95269  0.48976  0.13688  1.0000
  C   C9        1.0  0.53100  0.38634  0.30784  1.0000
  C   C10       1.0  0.96900  0.61366  0.80784  1.0000
  C   C11       1.0  0.46900  0.61366  0.69216  1.0000
  C   C12       1.0  0.03100  0.38634  0.19216  1.0000
  C   C13       1.0  0.47983  0.42574  0.24012  1.0000
  C   C14       1.0  0.02016  0.57426  0.74012  1.0000
  C   C15       1.0  0.52017  0.57426  0.75988  1.0000
  C   C16       1.0  0.97983  0.42574  0.25988  1.0000
  C   C17       1.0  0.34630  0.56664  0.22466  1.0000
  C   C18       1.0  0.15370  0.43336  0.72466  1.0000
  C   C19       1.0  0.65370  0.43336  0.77534  1.0000
  C   C20       1.0  0.84630  0.56665  0.27534  1.0000
  C   C21       1.0  0.26254  0.66776  0.27902  1.0000
  C   C22       1.0  0.23747  0.33224  0.77902  1.0000
  C   C23       1.0  0.73746  0.33224  0.72098  1.0000
  C   C24       1.0  0.76253  0.66776  0.22098  1.0000
  C   C25       1.0  0.28830  0.60828  0.15290  1.0000
  C   C26       1.0  0.21169  0.39173  0.65290  1.0000
  C   C27       1.0  0.71170  0.39172  0.84710  1.0000
  C   C28       1.0  0.78830  0.60827  0.34710  1.0000
  S   S1        1.0  0.21778  0.75012  0.41714  1.0000
  S   S2        1.0  0.28222  0.24987  0.91714  1.0000
  S   S3        1.0  0.78222  0.24988  0.58286  1.0000
  S   S4        1.0  0.71778  0.75013  0.08286  1.0000
  O   O1        1.0  0.16673  0.63034  0.46543  1.0000
  O   O2        1.0  0.33326  0.36967  0.96542  1.0000
  O   O3        1.0  0.83327  0.36966  0.53458  1.0000
  O   O4        1.0  0.66673  0.63034  0.03458  1.0000
  O   O5        1.0  0.22451  0.06534  0.54840  1.0000
  O   O6        1.0  0.27548  0.93465  0.04840  1.0000
  O   O7        1.0  0.77549  0.93466  0.45160  1.0000
  O   O8        1.0  0.72452  0.06534  0.95160  1.0000
  O   O9        1.0  0.34583  0.82577  0.45057  1.0000
  O   O10       1.0  0.15417  0.17422  0.95056  1.0000
  O   O11       1.0  0.65417  0.17423  0.54943  1.0000
  O   O12       1.0  0.84583  0.82578  0.04944  1.0000
  O   O13       1.0  0.13271  0.28373  0.42266  1.0000
  O   O14       1.0  0.36729  0.71628  0.92266  1.0000
  O   O15       1.0  0.86728  0.71627  0.57734  1.0000
  O   O16       1.0  0.63271  0.28372  0.07734  1.0000
  O   O17       1.0  0.08017  0.89002  0.39265  1.0000
  O   O18       1.0  0.41984  0.10999  0.89264  1.0000
  O   O19       1.0  0.91984  0.10999  0.60735  1.0000
  O   O20       1.0  0.58016  0.89002  0.10735  1.0000
  O   O21       1.0  0.46545  0.10515  0.42170  1.0000
  O   O22       1.0  0.03457  0.89484  0.92170  1.0000
  O   O23       1.0  0.53456  0.89484  0.57830  1.0000
  O   O24       1.0  0.96543  0.10516  0.07830  1.0000
  O   O25       1.0  0.50526  0.46293  0.42842  1.0000
  O   O26       1.0  0.99475  0.53707  0.92842  1.0000
  O   O27       1.0  0.49475  0.53706  0.57158  1.0000
  O   O28       1.0  0.00525  0.46294  0.07158  1.0000
  O   O29       1.0  0.36620  0.52046  0.10121  1.0000
  O   O30       1.0  0.13379  0.47955  0.60121  1.0000
  O   O31       1.0  0.63381  0.47954  0.89879  1.0000
  O   O32       1.0  0.86622  0.52047  0.39879  1.0000
  O   O33       1.0  0.15923  0.72789  0.14088  1.0000
  O   O34       1.0  0.34076  0.27211  0.64087  1.0000
  O   O35       1.0  0.84076  0.27211  0.85913  1.0000
  O   O36       1.0  0.65924  0.72789  0.35913  1.0000
