data_image0
_chemical_formula_structural       Cu4H36C36S4I4N8
_chemical_formula_sum              "Cu4 H36 C36 S4 I4 N8"
_cell_length_a       8.56463
_cell_length_b       9.93579
_cell_length_c       12.1483
_cell_angle_alpha    91.6931
_cell_angle_beta     89.9995
_cell_angle_gamma    89.9994

_space_group_name_H-M_alt    "P 1"
_space_group_IT_number       1

loop_
  _space_group_symop_operation_xyz
  'x, y, z'

loop_
  _atom_site_type_symbol
  _atom_site_label
  _atom_site_symmetry_multiplicity
  _atom_site_fract_x
  _atom_site_fract_y
  _atom_site_fract_z
  _atom_site_occupancy
  Cu  Cu1       1.0  0.11631  0.40598  0.03065  1.0000
  Cu  Cu2       1.0  0.38369  0.90599  0.53066  1.0000
  Cu  Cu3       1.0  0.88369  0.59401  0.96935  1.0000
  Cu  Cu4       1.0  0.61630  0.09402  0.46934  1.0000
  H   H1        1.0  0.85540  0.21962  0.98933  1.0000
  H   H2        1.0  0.64460  0.71963  0.48933  1.0000
  H   H3        1.0  0.14459  0.78037  0.01067  1.0000
  H   H4        1.0  0.35540  0.28038  0.51066  1.0000
  H   H5        1.0  0.74114  0.01360  0.06743  1.0000
  H   H6        1.0  0.75887  0.51361  0.56742  1.0000
  H   H7        1.0  0.25885  0.98640  0.93258  1.0000
  H   H8        1.0  0.24115  0.48641  0.43257  1.0000
  H   H9        1.0  0.89385  0.89206  0.21262  1.0000
  H   H10       1.0  0.60617  0.39207  0.71261  1.0000
  H   H11       1.0  0.10614  0.10793  0.78739  1.0000
  H   H12       1.0  0.39386  0.60795  0.28739  1.0000
  H   H13       1.0  0.15740  0.98460  0.26706  1.0000
  H   H14       1.0  0.34262  0.48459  0.76706  1.0000
  H   H15       1.0  0.84260  0.01540  0.73294  1.0000
  H   H16       1.0  0.65741  0.51541  0.23294  1.0000
  H   H17       1.0  0.69824  0.68381  0.81208  1.0000
  H   H18       1.0  0.80176  0.18382  0.31208  1.0000
  H   H19       1.0  0.30176  0.31618  0.18792  1.0000
  H   H20       1.0  0.19825  0.81618  0.68793  1.0000
  H   H21       1.0  0.66498  0.82737  0.73008  1.0000
  H   H22       1.0  0.83502  0.32738  0.23008  1.0000
  H   H23       1.0  0.33501  0.17262  0.26992  1.0000
  H   H24       1.0  0.16499  0.67262  0.76992  1.0000
  H   H25       1.0  0.28759  0.21635  0.94506  1.0000
  H   H26       1.0  0.21242  0.71636  0.44507  1.0000
  H   H27       1.0  0.71241  0.78364  0.05494  1.0000
  H   H28       1.0  0.78758  0.28365  0.55493  1.0000
  H   H29       1.0  0.48324  0.17263  0.90768  1.0000
  H   H30       1.0  0.01677  0.67264  0.40769  1.0000
  H   H31       1.0  0.51675  0.82736  0.09232  1.0000
  H   H32       1.0  0.98322  0.32736  0.59232  1.0000
  H   H33       1.0  0.69555  0.34273  0.93144  1.0000
  H   H34       1.0  0.80446  0.84274  0.43144  1.0000
  H   H35       1.0  0.30445  0.65725  0.06856  1.0000
  H   H36       1.0  0.19554  0.15727  0.56856  1.0000
  C   C1        1.0  0.91598  0.16596  0.05348  1.0000
  C   C2        1.0  0.58402  0.66596  0.55348  1.0000
  C   C3        1.0  0.08401  0.83404  0.94652  1.0000
  C   C4        1.0  0.41599  0.33405  0.44652  1.0000
  C   C5        1.0  0.85402  0.04989  0.09663  1.0000
  C   C6        1.0  0.64599  0.54990  0.59662  1.0000
  C   C7        1.0  0.14597  0.95010  0.90338  1.0000
  C   C8        1.0  0.35402  0.45011  0.40338  1.0000
  C   C9        1.0  0.93880  0.98350  0.17668  1.0000
  C   C10       1.0  0.56122  0.48350  0.67667  1.0000
  C   C11       1.0  0.06120  0.01649  0.82333  1.0000
  C   C12       1.0  0.43880  0.51650  0.32332  1.0000
  C   C13       1.0  0.08369  0.03508  0.20782  1.0000
  C   C14       1.0  0.41632  0.53508  0.70782  1.0000
  C   C15       1.0  0.91630  0.96492  0.79218  1.0000
  C   C16       1.0  0.58370  0.46493  0.29218  1.0000
  C   C17       1.0  0.13893  0.15302  0.16093  1.0000
  C   C18       1.0  0.36108  0.65303  0.66093  1.0000
  C   C19       1.0  0.86107  0.84697  0.83907  1.0000
  C   C20       1.0  0.63893  0.34698  0.33907  1.0000
  C   C21       1.0  0.29780  0.20585  0.18879  1.0000
  C   C22       1.0  0.20220  0.70585  0.68879  1.0000
  C   C23       1.0  0.70219  0.79414  0.81121  1.0000
  C   C24       1.0  0.79781  0.29415  0.31121  1.0000
  C   C25       1.0  0.41069  0.22554  0.96976  1.0000
  C   C26       1.0  0.08932  0.72555  0.46976  1.0000
  C   C27       1.0  0.58931  0.77444  0.03024  1.0000
  C   C28       1.0  0.91068  0.27445  0.53024  1.0000
  C   C29       1.0  0.45543  0.36992  0.98288  1.0000
  C   C30       1.0  0.04457  0.86993  0.48288  1.0000
  C   C31       1.0  0.54457  0.63007  0.01712  1.0000
  C   C32       1.0  0.95543  0.13008  0.51712  1.0000
  C   C33       1.0  0.39240  0.58706  0.03650  1.0000
  C   C34       1.0  0.10759  0.08707  0.53651  1.0000
  C   C35       1.0  0.60759  0.41293  0.96349  1.0000
  C   C36       1.0  0.89241  0.91294  0.46349  1.0000
  S   S1        1.0  0.44610  0.13464  0.09601  1.0000
  S   S2        1.0  0.05390  0.63465  0.59601  1.0000
  S   S3        1.0  0.55389  0.86535  0.90399  1.0000
  S   S4        1.0  0.94610  0.36535  0.40400  1.0000
  I   I1        1.0  0.00111  0.59159  0.17080  1.0000
  I   I2        1.0  0.49889  0.09159  0.67080  1.0000
  I   I3        1.0  0.99889  0.40840  0.82919  1.0000
  I   I4        1.0  0.50110  0.90841  0.32920  1.0000
  N   N1        1.0  0.05394  0.22001  0.08577  1.0000
  N   N2        1.0  0.44607  0.72001  0.58577  1.0000
  N   N3        1.0  0.94606  0.77999  0.91423  1.0000
  N   N4        1.0  0.55394  0.27999  0.41423  1.0000
  N   N5        1.0  0.34485  0.45903  0.01916  1.0000
  N   N6        1.0  0.15514  0.95904  0.51916  1.0000
  N   N7        1.0  0.65514  0.54096  0.98084  1.0000
  N   N8        1.0  0.84485  0.04097  0.48084  1.0000
