data_image0
_chemical_formula_structural       Zn4H28C40N44O2
_chemical_formula_sum              "Zn4 H28 C40 N44 O2"
_cell_length_a       8.38961
_cell_length_b       8.84236
_cell_length_c       20.0748
_cell_angle_alpha    83.7111
_cell_angle_beta     77.927
_cell_angle_gamma    61.6696

_space_group_name_H-M_alt    "P 1"
_space_group_IT_number       1

loop_
  _space_group_symop_operation_xyz
  'x, y, z'

loop_
  _atom_site_type_symbol
  _atom_site_label
  _atom_site_symmetry_multiplicity
  _atom_site_fract_x
  _atom_site_fract_y
  _atom_site_fract_z
  _atom_site_occupancy
  Zn  Zn1       1.0  0.08999  0.03065  0.77465  1.0000
  Zn  Zn2       1.0  0.89537  0.46924  0.72540  1.0000
  Zn  Zn3       1.0  0.91001  0.96935  0.22535  1.0000
  Zn  Zn4       1.0  0.10463  0.53076  0.27460  1.0000
  H   H1        1.0  0.96231  0.94597  0.95431  1.0000
  H   H2        1.0  0.86269  0.55383  0.54571  1.0000
  H   H3        1.0  0.03769  0.05403  0.04569  1.0000
  H   H4        1.0  0.13732  0.44616  0.45429  1.0000
  H   H5        1.0  0.96966  0.65899  0.98373  1.0000
  H   H6        1.0  0.61243  0.84094  0.51633  1.0000
  H   H7        1.0  0.03035  0.34100  0.01627  1.0000
  H   H8        1.0  0.38757  0.15905  0.48367  1.0000
  H   H9        1.0  0.78455  0.22908  0.70909  1.0000
  H   H10       1.0  0.72268  0.27082  0.79094  1.0000
  H   H11       1.0  0.21545  0.77092  0.29090  1.0000
  H   H12       1.0  0.27732  0.72918  0.20906  1.0000
  H   H13       1.0  0.44020  0.40075  0.70135  1.0000
  H   H14       1.0  0.54229  0.09928  0.79865  1.0000
  H   H15       1.0  0.55979  0.59926  0.29864  1.0000
  H   H16       1.0  0.45771  0.90072  0.20135  1.0000
  H   H17       1.0  0.29415  0.57214  0.60546  1.0000
  H   H18       1.0  0.47194  0.92775  0.89453  1.0000
  H   H19       1.0  0.70586  0.42786  0.39453  1.0000
  H   H20       1.0  0.52806  0.07225  0.10548  1.0000
  H   H21       1.0  0.80787  0.27305  0.47092  1.0000
  H   H22       1.0  0.55164  0.22697  0.02907  1.0000
  H   H23       1.0  0.19210  0.72698  0.52908  1.0000
  H   H24       1.0  0.44836  0.77303  0.97093  1.0000
  H   H25       1.0  0.92729  0.10666  0.57277  1.0000
  H   H26       1.0  0.60666  0.39327  0.92721  1.0000
  H   H27       1.0  0.07272  0.89334  0.42722  1.0000
  H   H28       1.0  0.39334  0.60673  0.07279  1.0000
  C   C1        1.0  0.96911  0.86182  0.91733  1.0000
  C   C2        1.0  0.74838  0.63803  0.58272  1.0000
  C   C3        1.0  0.03089  0.13818  0.08268  1.0000
  C   C4        1.0  0.25162  0.36196  0.41728  1.0000
  C   C5        1.0  0.98416  0.63384  0.87443  1.0000
  C   C6        1.0  0.49263  0.86612  0.62564  1.0000
  C   C7        1.0  0.01585  0.36615  0.12557  1.0000
  C   C8        1.0  0.50737  0.13388  0.37436  1.0000
  C   C9        1.0  0.98526  0.75248  0.82295  1.0000
  C   C10       1.0  0.56085  0.74747  0.67712  1.0000
  C   C11       1.0  0.01474  0.24751  0.17705  1.0000
  C   C12       1.0  0.43915  0.25253  0.32288  1.0000
  C   C13       1.0  0.00955  0.46126  0.87296  1.0000
  C   C14       1.0  0.34391  0.03870  0.62711  1.0000
  C   C15       1.0  0.99045  0.53874  0.12705  1.0000
  C   C16       1.0  0.65609  0.96130  0.37288  1.0000
  C   C17       1.0  0.00427  0.75549  0.74991  1.0000
  C   C18       1.0  0.50975  0.74441  0.75015  1.0000
  C   C19       1.0  0.99573  0.24450  0.25009  1.0000
  C   C20       1.0  0.49025  0.25559  0.24985  1.0000
  C   C21       1.0  0.51697  0.37490  0.64915  1.0000
  C   C22       1.0  0.54098  0.12511  0.85085  1.0000
  C   C23       1.0  0.48304  0.62509  0.35085  1.0000
  C   C24       1.0  0.45902  0.87488  0.14915  1.0000
  C   C25       1.0  0.43628  0.47338  0.59527  1.0000
  C   C26       1.0  0.50499  0.02657  0.90472  1.0000
  C   C27       1.0  0.56371  0.52662  0.40473  1.0000
  C   C28       1.0  0.49501  0.97343  0.09528  1.0000
  C   C29       1.0  0.53924  0.44466  0.52894  1.0000
  C   C30       1.0  0.51281  0.05532  0.97105  1.0000
  C   C31       1.0  0.46077  0.55533  0.47106  1.0000
  C   C32       1.0  0.48717  0.94469  0.02895  1.0000
  C   C33       1.0  0.71905  0.30718  0.52068  1.0000
  C   C34       1.0  0.54671  0.19285  0.97932  1.0000
  C   C35       1.0  0.28095  0.69282  0.47932  1.0000
  C   C36       1.0  0.45329  0.80715  0.02068  1.0000
  C   C37       1.0  0.78808  0.21342  0.57753  1.0000
  C   C38       1.0  0.57890  0.28657  0.92245  1.0000
  C   C39       1.0  0.21192  0.78659  0.42246  1.0000
  C   C40       1.0  0.42110  0.71343  0.07755  1.0000
  N   N1        1.0  0.02099  0.37952  0.81778  1.0000
  N   N2        1.0  0.21840  0.12046  0.68228  1.0000
  N   N3        1.0  0.97893  0.62051  0.18223  1.0000
  N   N4        1.0  0.78159  0.87954  0.31771  1.0000
  N   N5        1.0  0.05481  0.21989  0.84060  1.0000
  N   N6        1.0  0.11534  0.28006  0.65944  1.0000
  N   N7        1.0  0.94513  0.78014  0.15940  1.0000
  N   N8        1.0  0.88467  0.71994  0.34055  1.0000
  N   N9        1.0  0.06217  0.20424  0.90590  1.0000
  N   N10       1.0  0.17233  0.29565  0.59414  1.0000
  N   N11       1.0  0.93789  0.79574  0.09410  1.0000
  N   N12       1.0  0.82770  0.70436  0.40586  1.0000
  N   N13       1.0  0.03451  0.35418  0.92763  1.0000
  N   N14       1.0  0.31642  0.14572  0.57240  1.0000
  N   N15       1.0  0.96553  0.64581  0.07237  1.0000
  N   N16       1.0  0.68360  0.85428  0.42759  1.0000
  N   N17       1.0  0.97235  0.70815  0.93362  1.0000
  N   N18       1.0  0.61426  0.79175  0.56644  1.0000
  N   N19       1.0  0.02768  0.29184  0.06638  1.0000
  N   N20       1.0  0.38575  0.20824  0.43356  1.0000
  N   N21       1.0  0.97601  0.89344  0.85090  1.0000
  N   N22       1.0  0.72048  0.60644  0.64915  1.0000
  N   N23       1.0  0.02398  0.10656  0.14910  1.0000
  N   N24       1.0  0.27952  0.39356  0.35085  1.0000
  N   N25       1.0  0.04764  0.87290  0.71394  1.0000
  N   N26       1.0  0.63453  0.62696  0.78612  1.0000
  N   N27       1.0  0.95237  0.12708  0.28606  1.0000
  N   N28       1.0  0.36545  0.37304  0.21390  1.0000
  N   N29       1.0  0.04590  0.85533  0.64862  1.0000
  N   N30       1.0  0.54986  0.64456  0.85145  1.0000
  N   N31       1.0  0.95410  0.14466  0.35138  1.0000
  N   N32       1.0  0.45012  0.35543  0.14856  1.0000
  N   N33       1.0  0.00377  0.73176  0.64444  1.0000
  N   N34       1.0  0.37998  0.76818  0.85563  1.0000
  N   N35       1.0  0.99624  0.26823  0.35555  1.0000
  N   N36       1.0  0.62001  0.23183  0.14438  1.0000
  N   N37       1.0  0.97834  0.66501  0.70757  1.0000
  N   N38       1.0  0.35094  0.83492  0.79250  1.0000
  N   N39       1.0  0.02167  0.33498  0.29242  1.0000
  N   N40       1.0  0.64906  0.16507  0.20751  1.0000
  N   N41       1.0  0.69097  0.24790  0.64133  1.0000
  N   N42       1.0  0.58010  0.25212  0.85866  1.0000
  N   N43       1.0  0.30904  0.75210  0.35867  1.0000
  N   N44       1.0  0.41989  0.74788  0.14134  1.0000
  O   O1        1.0  0.82666  0.24995  0.75002  1.0000
  O   O2        1.0  0.17333  0.75008  0.24998  1.0000
