data_image0
_chemical_formula_structural       Lu4H28C32N4O32
_chemical_formula_sum              "Lu4 H28 C32 N4 O32"
_cell_length_a       6.44699
_cell_length_b       12.9738
_cell_length_c       13.1357
_cell_angle_alpha    90.0006
_cell_angle_beta     103.185
_cell_angle_gamma    89.9993

_space_group_name_H-M_alt    "P 1"
_space_group_IT_number       1

loop_
  _space_group_symop_operation_xyz
  'x, y, z'

loop_
  _atom_site_type_symbol
  _atom_site_label
  _atom_site_symmetry_multiplicity
  _atom_site_fract_x
  _atom_site_fract_y
  _atom_site_fract_z
  _atom_site_occupancy
  Lu  Lu1       1.0  0.26245  0.07308  0.70732  1.0000
  Lu  Lu2       1.0  0.23755  0.57308  0.29268  1.0000
  Lu  Lu3       1.0  0.73756  0.92692  0.29268  1.0000
  Lu  Lu4       1.0  0.76245  0.42692  0.70732  1.0000
  H   H1        1.0  0.33401  0.28941  0.66614  1.0000
  H   H2        1.0  0.16597  0.78941  0.33386  1.0000
  H   H3        1.0  0.66596  0.71060  0.33386  1.0000
  H   H4        1.0  0.83401  0.21058  0.66614  1.0000
  H   H5        1.0  0.15121  0.26294  0.56614  1.0000
  H   H6        1.0  0.34874  0.76294  0.43387  1.0000
  H   H7        1.0  0.84874  0.73706  0.43387  1.0000
  H   H8        1.0  0.65122  0.23705  0.56613  1.0000
  H   H9        1.0  0.69882  0.02790  0.67245  1.0000
  H   H10       1.0  0.80118  0.52790  0.32755  1.0000
  H   H11       1.0  0.30119  0.97210  0.32755  1.0000
  H   H12       1.0  0.19882  0.47210  0.67245  1.0000
  H   H13       1.0  0.68631  0.98996  0.78779  1.0000
  H   H14       1.0  0.81369  0.48996  0.21221  1.0000
  H   H15       1.0  0.31369  0.01003  0.21221  1.0000
  H   H16       1.0  0.18631  0.51004  0.78779  1.0000
  H   H17       1.0  0.13376  0.04510  0.96953  1.0000
  H   H18       1.0  0.36624  0.54509  0.03047  1.0000
  H   H19       1.0  0.86623  0.95491  0.03047  1.0000
  H   H20       1.0  0.63377  0.45491  0.96953  1.0000
  H   H21       1.0  0.09908  0.37576  0.98797  1.0000
  H   H22       1.0  0.40094  0.87576  0.01204  1.0000
  H   H23       1.0  0.90096  0.62425  0.01204  1.0000
  H   H24       1.0  0.59905  0.12424  0.98796  1.0000
  H   H25       1.0  0.28128  0.18532  0.26209  1.0000
  H   H26       1.0  0.21872  0.68533  0.73792  1.0000
  H   H27       1.0  0.71872  0.81467  0.73791  1.0000
  H   H28       1.0  0.78127  0.31467  0.26208  1.0000
  C   C1        1.0  0.14560  0.11607  0.01489  1.0000
  C   C2        1.0  0.35441  0.61607  0.98511  1.0000
  C   C3        1.0  0.85440  0.88393  0.98512  1.0000
  C   C4        1.0  0.64560  0.38393  0.01488  1.0000
  C   C5        1.0  0.10205  0.21114  0.96415  1.0000
  C   C6        1.0  0.39795  0.71114  0.03585  1.0000
  C   C7        1.0  0.89795  0.78887  0.03586  1.0000
  C   C8        1.0  0.60204  0.28886  0.96414  1.0000
  C   C9        1.0  0.13119  0.30053  0.02494  1.0000
  C   C10       1.0  0.36884  0.80053  0.97507  1.0000
  C   C11       1.0  0.86885  0.69947  0.97508  1.0000
  C   C12       1.0  0.63116  0.19947  0.02493  1.0000
  C   C13       1.0  0.19936  0.29286  0.13289  1.0000
  C   C14       1.0  0.30066  0.79286  0.86712  1.0000
  C   C15       1.0  0.80066  0.70713  0.86712  1.0000
  C   C16       1.0  0.69934  0.20714  0.13288  1.0000
  C   C17       1.0  0.23160  0.19441  0.17733  1.0000
  C   C18       1.0  0.26841  0.69441  0.82268  1.0000
  C   C19       1.0  0.76841  0.80558  0.82268  1.0000
  C   C20       1.0  0.73159  0.30558  0.17732  1.0000
  C   C21       1.0  0.02149  0.22484  0.84854  1.0000
  C   C22       1.0  0.47853  0.72485  0.15146  1.0000
  C   C23       1.0  0.97853  0.77516  0.15147  1.0000
  C   C24       1.0  0.52147  0.27516  0.84853  1.0000
  C   C25       1.0  0.23008  0.38931  0.19619  1.0000
  C   C26       1.0  0.26995  0.88933  0.80381  1.0000
  C   C27       1.0  0.76996  0.61066  0.80382  1.0000
  C   C28       1.0  0.73004  0.11068  0.19617  1.0000
  C   C29       1.0  0.89575  0.00329  0.51949  1.0000
  C   C30       1.0  0.60421  0.50327  0.48050  1.0000
  C   C31       1.0  0.10422  0.99673  0.48050  1.0000
  C   C32       1.0  0.39576  0.49672  0.51950  1.0000
  N   N1        1.0  0.20627  0.10778  0.11988  1.0000
  N   N2        1.0  0.29372  0.60777  0.88012  1.0000
  N   N3        1.0  0.79372  0.89222  0.88012  1.0000
  N   N4        1.0  0.70627  0.39222  0.11988  1.0000
  O   O1        1.0  0.01947  0.15048  0.78451  1.0000
  O   O2        1.0  0.48053  0.65049  0.21550  1.0000
  O   O3        1.0  0.98056  0.84952  0.21550  1.0000
  O   O4        1.0  0.51947  0.34952  0.78450  1.0000
  O   O5        1.0  0.95428  0.31421  0.82007  1.0000
  O   O6        1.0  0.54576  0.81422  0.17992  1.0000
  O   O7        1.0  0.04573  0.68580  0.17993  1.0000
  O   O8        1.0  0.45427  0.18580  0.82007  1.0000
  O   O9        1.0  0.18774  0.47500  0.14662  1.0000
  O   O10       1.0  0.31232  0.97501  0.85340  1.0000
  O   O11       1.0  0.81232  0.52498  0.85341  1.0000
  O   O12       1.0  0.68769  0.02499  0.14660  1.0000
  O   O13       1.0  0.29211  0.38748  0.29511  1.0000
  O   O14       1.0  0.20790  0.88749  0.70490  1.0000
  O   O15       1.0  0.70793  0.61250  0.70490  1.0000
  O   O16       1.0  0.79209  0.11250  0.29510  1.0000
  O   O17       1.0  0.91245  0.04477  0.60904  1.0000
  O   O18       1.0  0.58754  0.54477  0.39096  1.0000
  O   O19       1.0  0.08753  0.95523  0.39096  1.0000
  O   O20       1.0  0.41245  0.45523  0.60904  1.0000
  O   O21       1.0  0.72895  0.96810  0.46115  1.0000
  O   O22       1.0  0.77101  0.46807  0.53882  1.0000
  O   O23       1.0  0.27102  0.03192  0.53882  1.0000
  O   O24       1.0  0.22896  0.53191  0.46117  1.0000
  O   O25       1.0  0.26448  0.23289  0.61976  1.0000
  O   O26       1.0  0.23549  0.73289  0.38025  1.0000
  O   O27       1.0  0.73550  0.76712  0.38024  1.0000
  O   O28       1.0  0.76449  0.26710  0.61975  1.0000
  O   O29       1.0  0.60216  0.02149  0.72103  1.0000
  O   O30       1.0  0.89784  0.52149  0.27897  1.0000
  O   O31       1.0  0.39784  0.97850  0.27897  1.0000
  O   O32       1.0  0.10216  0.47851  0.72103  1.0000
