data_image0
_chemical_formula_structural       Mo4H28C24S4N4O12
_chemical_formula_sum              "Mo4 H28 C24 S4 N4 O12"
_cell_length_a       5.48387
_cell_length_b       8.16395
_cell_length_c       18.1876
_cell_angle_alpha    90.0004
_cell_angle_beta     96.9101
_cell_angle_gamma    90

_space_group_name_H-M_alt    "P 1"
_space_group_IT_number       1

loop_
  _space_group_symop_operation_xyz
  'x, y, z'

loop_
  _atom_site_type_symbol
  _atom_site_label
  _atom_site_symmetry_multiplicity
  _atom_site_fract_x
  _atom_site_fract_y
  _atom_site_fract_z
  _atom_site_occupancy
  Mo  Mo1       1.0  0.33020  0.96130  0.47040  1.0000
  Mo  Mo2       1.0  0.16978  0.46130  0.02959  1.0000
  Mo  Mo3       1.0  0.66981  0.03869  0.52959  1.0000
  Mo  Mo4       1.0  0.83017  0.53868  0.97040  1.0000
  H   H1        1.0  0.09607  0.41701  0.61025  1.0000
  H   H2        1.0  0.40394  0.91699  0.88975  1.0000
  H   H3        1.0  0.90397  0.58300  0.38974  1.0000
  H   H4        1.0  0.59603  0.08300  0.11026  1.0000
  H   H5        1.0  0.23343  0.32653  0.69459  1.0000
  H   H6        1.0  0.26658  0.82652  0.80541  1.0000
  H   H7        1.0  0.76660  0.67349  0.30540  1.0000
  H   H8        1.0  0.73341  0.17350  0.19460  1.0000
  H   H9        1.0  0.94831  0.24857  0.64892  1.0000
  H   H10       1.0  0.55170  0.74855  0.85108  1.0000
  H   H11       1.0  0.05173  0.75144  0.35108  1.0000
  H   H12       1.0  0.44827  0.25144  0.14892  1.0000
  H   H13       1.0  0.51693  0.41625  0.29519  1.0000
  H   H14       1.0  0.98308  0.91624  0.20481  1.0000
  H   H15       1.0  0.48312  0.58375  0.70482  1.0000
  H   H16       1.0  0.01689  0.08374  0.79519  1.0000
  H   H17       1.0  0.35474  0.52840  0.35600  1.0000
  H   H18       1.0  0.14527  0.02838  0.14401  1.0000
  H   H19       1.0  0.64532  0.47161  0.64401  1.0000
  H   H20       1.0  0.85468  0.97161  0.85599  1.0000
  H   H21       1.0  0.97340  0.41376  0.29732  1.0000
  H   H22       1.0  0.52661  0.91373  0.20269  1.0000
  H   H23       1.0  0.02665  0.58627  0.70269  1.0000
  H   H24       1.0  0.47335  0.08626  0.79731  1.0000
  H   H25       1.0  0.13777  0.31763  0.23243  1.0000
  H   H26       1.0  0.36223  0.81760  0.26758  1.0000
  H   H27       1.0  0.86226  0.68241  0.76758  1.0000
  H   H28       1.0  0.63775  0.18240  0.73242  1.0000
  C   C1        1.0  0.26119  0.18861  0.59504  1.0000
  C   C2        1.0  0.23881  0.68860  0.90496  1.0000
  C   C3        1.0  0.73886  0.81137  0.40495  1.0000
  C   C4        1.0  0.76114  0.31137  0.09505  1.0000
  C   C5        1.0  0.44378  0.28225  0.39226  1.0000
  C   C6        1.0  0.05623  0.78224  0.10774  1.0000
  C   C7        1.0  0.55623  0.71775  0.60774  1.0000
  C   C8        1.0  0.94375  0.21775  0.89226  1.0000
  C   C9        1.0  0.09987  0.17433  0.33017  1.0000
  C   C10       1.0  0.40014  0.67431  0.16983  1.0000
  C   C11       1.0  0.90019  0.82572  0.66983  1.0000
  C   C12       1.0  0.59984  0.32568  0.83017  1.0000
  C   C13       1.0  0.12709  0.30087  0.64089  1.0000
  C   C14       1.0  0.37292  0.80085  0.85911  1.0000
  C   C15       1.0  0.87295  0.69914  0.35910  1.0000
  C   C16       1.0  0.62706  0.19914  0.14090  1.0000
  C   C17       1.0  0.37318  0.40604  0.33211  1.0000
  C   C18       1.0  0.12683  0.90602  0.16789  1.0000
  C   C19       1.0  0.62687  0.59397  0.66790  1.0000
  C   C20       1.0  0.87313  0.09396  0.83211  1.0000
  C   C21       1.0  0.13436  0.33660  0.29206  1.0000
  C   C22       1.0  0.36564  0.83657  0.20794  1.0000
  C   C23       1.0  0.86568  0.66344  0.70794  1.0000
  C   C24       1.0  0.63432  0.16342  0.79206  1.0000
  S   S1        1.0  0.30498  0.70933  0.54549  1.0000
  S   S2        1.0  0.19502  0.20932  0.95451  1.0000
  S   S3        1.0  0.69505  0.29067  0.45451  1.0000
  S   S4        1.0  0.80495  0.79067  0.04549  1.0000
  N   N1        1.0  0.28510  0.15554  0.39057  1.0000
  N   N2        1.0  0.21491  0.65552  0.10943  1.0000
  N   N3        1.0  0.71493  0.84447  0.60944  1.0000
  N   N4        1.0  0.78506  0.34446  0.89056  1.0000
  O   O1        1.0  0.13874  0.10614  0.54258  1.0000
  O   O2        1.0  0.36125  0.60613  0.95742  1.0000
  O   O3        1.0  0.86130  0.89386  0.45742  1.0000
  O   O4        1.0  0.63869  0.39386  0.04258  1.0000
  O   O5        1.0  0.50341  0.81968  0.39478  1.0000
  O   O6        1.0  0.99659  0.31968  0.10522  1.0000
  O   O7        1.0  0.49661  0.18031  0.60522  1.0000
  O   O8        1.0  0.00339  0.68031  0.89478  1.0000
  O   O9        1.0  0.93999  0.07175  0.31211  1.0000
  O   O10       1.0  0.56002  0.57173  0.18789  1.0000
  O   O11       1.0  0.06000  0.92827  0.68789  1.0000
  O   O12       1.0  0.43995  0.42826  0.81211  1.0000
