data_image0
_chemical_formula_structural       Cu2H4C12N4O8
_chemical_formula_sum              "Cu2 H4 C12 N4 O8"
_cell_length_a       6.86149
_cell_length_b       6.86148
_cell_length_c       7.42036
_cell_angle_alpha    86.6954
_cell_angle_beta     86.6952
_cell_angle_gamma    66.3848

_space_group_name_H-M_alt    "P 1"
_space_group_IT_number       1

loop_
  _space_group_symop_operation_xyz
  'x, y, z'

loop_
  _atom_site_type_symbol
  _atom_site_label
  _atom_site_symmetry_multiplicity
  _atom_site_fract_x
  _atom_site_fract_y
  _atom_site_fract_z
  _atom_site_occupancy
  Cu  Cu1       1.0  0.00000  0.50000  0.00000  1.0000
  Cu  Cu2       1.0  0.50000  0.00000  0.50000  1.0000
  H   H1        1.0  0.46049  0.34663  0.84585  1.0000
  H   H2        1.0  0.65337  0.53951  0.65415  1.0000
  H   H3        1.0  0.53952  0.65337  0.15415  1.0000
  H   H4        1.0  0.34663  0.46049  0.34585  1.0000
  C   C1        1.0  0.38077  0.51320  0.80195  1.0000
  C   C2        1.0  0.48680  0.61923  0.69806  1.0000
  C   C3        1.0  0.61923  0.48680  0.19805  1.0000
  C   C4        1.0  0.51320  0.38078  0.30194  1.0000
  C   C5        1.0  0.06584  0.82127  0.79279  1.0000
  C   C6        1.0  0.17873  0.93416  0.70721  1.0000
  C   C7        1.0  0.93416  0.17873  0.20721  1.0000
  C   C8        1.0  0.82127  0.06584  0.29279  1.0000
  C   C9        1.0  0.82583  0.89532  0.82302  1.0000
  C   C10       1.0  0.10468  0.17416  0.67698  1.0000
  C   C11       1.0  0.17416  0.10468  0.17698  1.0000
  C   C12       1.0  0.89532  0.82584  0.32302  1.0000
  N   N1        1.0  0.17390  0.61526  0.84424  1.0000
  N   N2        1.0  0.38474  0.82609  0.65577  1.0000
  N   N3        1.0  0.82609  0.38474  0.15576  1.0000
  N   N4        1.0  0.61526  0.17390  0.34423  1.0000
  O   O1        1.0  0.76768  0.77067  0.92904  1.0000
  O   O2        1.0  0.22933  0.23232  0.57096  1.0000
  O   O3        1.0  0.23232  0.22933  0.07096  1.0000
  O   O4        1.0  0.77066  0.76768  0.42904  1.0000
  O   O5        1.0  0.70252  0.05583  0.73970  1.0000
  O   O6        1.0  0.94417  0.29749  0.76029  1.0000
  O   O7        1.0  0.29749  0.94417  0.26030  1.0000
  O   O8        1.0  0.05583  0.70252  0.23970  1.0000
