data_image0
_chemical_formula_structural       Tm4H28C32N4O32
_chemical_formula_sum              "Tm4 H28 C32 N4 O32"
_cell_length_a       7.41799
_cell_length_b       9.80216
_cell_length_c       14.5797
_cell_angle_alpha    90
_cell_angle_beta     97.5806
_cell_angle_gamma    90.0001

_space_group_name_H-M_alt    "P 1"
_space_group_IT_number       1

loop_
  _space_group_symop_operation_xyz
  'x, y, z'

loop_
  _atom_site_type_symbol
  _atom_site_label
  _atom_site_symmetry_multiplicity
  _atom_site_fract_x
  _atom_site_fract_y
  _atom_site_fract_z
  _atom_site_occupancy
  Tm  Tm1       1.0  0.14810  0.54484  0.35775  1.0000
  Tm  Tm2       1.0  0.35190  0.04484  0.14225  1.0000
  Tm  Tm3       1.0  0.85190  0.45516  0.64225  1.0000
  Tm  Tm4       1.0  0.64810  0.95516  0.85775  1.0000
  H   H1        1.0  0.16616  0.11933  0.35272  1.0000
  H   H2        1.0  0.33385  0.61933  0.14728  1.0000
  H   H3        1.0  0.83385  0.88066  0.64728  1.0000
  H   H4        1.0  0.66615  0.38066  0.85272  1.0000
  H   H5        1.0  0.39284  0.78353  0.52008  1.0000
  H   H6        1.0  0.10717  0.28353  0.97992  1.0000
  H   H7        1.0  0.60716  0.21647  0.47993  1.0000
  H   H8        1.0  0.89284  0.71647  0.02007  1.0000
  H   H9        1.0  0.20930  0.12160  0.65097  1.0000
  H   H10       1.0  0.29069  0.62160  0.84903  1.0000
  H   H11       1.0  0.79069  0.87840  0.34903  1.0000
  H   H12       1.0  0.70931  0.37840  0.15097  1.0000
  H   H13       1.0  0.92455  0.63302  0.18077  1.0000
  H   H14       1.0  0.57545  0.13302  0.31923  1.0000
  H   H15       1.0  0.07545  0.36698  0.81923  1.0000
  H   H16       1.0  0.42455  0.86698  0.68077  1.0000
  H   H17       1.0  0.76407  0.55264  0.29330  1.0000
  H   H18       1.0  0.73593  0.05264  0.20670  1.0000
  H   H19       1.0  0.23592  0.44737  0.70670  1.0000
  H   H20       1.0  0.26408  0.94736  0.79330  1.0000
  H   H21       1.0  0.79479  0.44117  0.37013  1.0000
  H   H22       1.0  0.70521  0.94117  0.12987  1.0000
  H   H23       1.0  0.20520  0.55883  0.62987  1.0000
  H   H24       1.0  0.29481  0.05883  0.87013  1.0000
  H   H25       1.0  0.04159  0.76887  0.20913  1.0000
  H   H26       1.0  0.45841  0.26887  0.29087  1.0000
  H   H27       1.0  0.95841  0.23113  0.79087  1.0000
  H   H28       1.0  0.54159  0.73113  0.70913  1.0000
  C   C1        1.0  0.27894  0.93895  0.42533  1.0000
  C   C2        1.0  0.22106  0.43895  0.07467  1.0000
  C   C3        1.0  0.72106  0.06105  0.57467  1.0000
  C   C4        1.0  0.77894  0.56105  0.92533  1.0000
  C   C5        1.0  0.30807  0.85769  0.34129  1.0000
  C   C6        1.0  0.19193  0.35769  0.15871  1.0000
  C   C7        1.0  0.69193  0.14231  0.65871  1.0000
  C   C8        1.0  0.80807  0.64231  0.84129  1.0000
  C   C9        1.0  0.20347  0.06968  0.41948  1.0000
  C   C10       1.0  0.29654  0.56968  0.08052  1.0000
  C   C11       1.0  0.79653  0.93031  0.58052  1.0000
  C   C12       1.0  0.70347  0.43031  0.91948  1.0000
  C   C13       1.0  0.45494  0.53135  0.53980  1.0000
  C   C14       1.0  0.04507  0.03134  0.96020  1.0000
  C   C15       1.0  0.54505  0.46867  0.46021  1.0000
  C   C16       1.0  0.95495  0.96866  0.03979  1.0000
  C   C17       1.0  0.33009  0.88374  0.51315  1.0000
  C   C18       1.0  0.16991  0.38374  0.98685  1.0000
  C   C19       1.0  0.66991  0.11626  0.48685  1.0000
  C   C20       1.0  0.83009  0.61626  0.01315  1.0000
  C   C21       1.0  0.09139  0.27568  0.49893  1.0000
  C   C22       1.0  0.40861  0.77568  0.00107  1.0000
  C   C23       1.0  0.90859  0.72431  0.50107  1.0000
  C   C24       1.0  0.59141  0.22431  0.99893  1.0000
  C   C25       1.0  0.17465  0.13613  0.50110  1.0000
  C   C26       1.0  0.32536  0.63613  0.99890  1.0000
  C   C27       1.0  0.82535  0.86387  0.49889  1.0000
  C   C28       1.0  0.67466  0.36387  0.00111  1.0000
  C   C29       1.0  0.22806  0.07159  0.58602  1.0000
  C   C30       1.0  0.27194  0.57159  0.91399  1.0000
  C   C31       1.0  0.77193  0.92841  0.41398  1.0000
  C   C32       1.0  0.72806  0.42841  0.08602  1.0000
  N   N1        1.0  0.30774  0.94839  0.59183  1.0000
  N   N2        1.0  0.19226  0.44839  0.90817  1.0000
  N   N3        1.0  0.69225  0.05161  0.40817  1.0000
  N   N4        1.0  0.80774  0.55161  0.09183  1.0000
  O   O1        1.0  0.83902  0.47323  0.31212  1.0000
  O   O2        1.0  0.66098  0.97323  0.18788  1.0000
  O   O3        1.0  0.16098  0.52677  0.68788  1.0000
  O   O4        1.0  0.33902  0.02677  0.81212  1.0000
  O   O5        1.0  0.28853  0.56364  0.52108  1.0000
  O   O6        1.0  0.21147  0.06363  0.97892  1.0000
  O   O7        1.0  0.71146  0.43637  0.47893  1.0000
  O   O8        1.0  0.78854  0.93637  0.02107  1.0000
  O   O9        1.0  0.33053  0.72937  0.35077  1.0000
  O   O10       1.0  0.16947  0.22937  0.14923  1.0000
  O   O11       1.0  0.66947  0.27063  0.64923  1.0000
  O   O12       1.0  0.83053  0.77062  0.85077  1.0000
  O   O13       1.0  0.00287  0.68211  0.23329  1.0000
  O   O14       1.0  0.49713  0.18211  0.26671  1.0000
  O   O15       1.0  0.99713  0.31789  0.76671  1.0000
  O   O16       1.0  0.50286  0.81789  0.73329  1.0000
  O   O17       1.0  0.09536  0.34569  0.42631  1.0000
  O   O18       1.0  0.40465  0.84569  0.07369  1.0000
  O   O19       1.0  0.90463  0.65431  0.57368  1.0000
  O   O20       1.0  0.59537  0.15431  0.92632  1.0000
  O   O21       1.0  0.30709  0.92066  0.26567  1.0000
  O   O22       1.0  0.19291  0.42065  0.23433  1.0000
  O   O23       1.0  0.69291  0.07934  0.73432  1.0000
  O   O24       1.0  0.80709  0.57934  0.76568  1.0000
  O   O25       1.0  0.02469  0.31278  0.57056  1.0000
  O   O26       1.0  0.47530  0.81278  0.92944  1.0000
  O   O27       1.0  0.97529  0.68722  0.42943  1.0000
  O   O28       1.0  0.52470  0.18722  0.07057  1.0000
  O   O29       1.0  0.55231  0.54690  0.61705  1.0000
  O   O30       1.0  0.94769  0.04689  0.88294  1.0000
  O   O31       1.0  0.44768  0.45311  0.38296  1.0000
  O   O32       1.0  0.05232  0.95311  0.11704  1.0000
