data_image0
_chemical_formula_structural       Gd4H28C32N4O32
_chemical_formula_sum              "Gd4 H28 C32 N4 O32"
_cell_length_a       7.49181
_cell_length_b       9.87311
_cell_length_c       14.7603
_cell_angle_alpha    89.9999
_cell_angle_beta     97.8324
_cell_angle_gamma    90

_space_group_name_H-M_alt    "P 1"
_space_group_IT_number       1

loop_
  _space_group_symop_operation_xyz
  'x, y, z'

loop_
  _atom_site_type_symbol
  _atom_site_label
  _atom_site_symmetry_multiplicity
  _atom_site_fract_x
  _atom_site_fract_y
  _atom_site_fract_z
  _atom_site_occupancy
  Gd  Gd1       1.0  0.14509  0.95633  0.35728  1.0000
  Gd  Gd2       1.0  0.35491  0.45633  0.14273  1.0000
  Gd  Gd3       1.0  0.85491  0.04367  0.64272  1.0000
  Gd  Gd4       1.0  0.64509  0.54366  0.85728  1.0000
  H   H1        1.0  0.78789  0.05790  0.36943  1.0000
  H   H2        1.0  0.71211  0.55789  0.13056  1.0000
  H   H3        1.0  0.21211  0.94211  0.63057  1.0000
  H   H4        1.0  0.28789  0.44210  0.86943  1.0000
  H   H5        1.0  0.75572  0.94786  0.29311  1.0000
  H   H6        1.0  0.74428  0.44785  0.20689  1.0000
  H   H7        1.0  0.24428  0.05215  0.70689  1.0000
  H   H8        1.0  0.25571  0.55215  0.79311  1.0000
  H   H9        1.0  0.92177  0.86471  0.17972  1.0000
  H   H10       1.0  0.57822  0.36471  0.32028  1.0000
  H   H11       1.0  0.07822  0.13529  0.82028  1.0000
  H   H12       1.0  0.42177  0.63529  0.67972  1.0000
  H   H13       1.0  0.03537  0.72876  0.20757  1.0000
  H   H14       1.0  0.46463  0.22876  0.29243  1.0000
  H   H15       1.0  0.96463  0.27125  0.79243  1.0000
  H   H16       1.0  0.53537  0.77125  0.70757  1.0000
  H   H17       1.0  0.39204  0.71683  0.52066  1.0000
  H   H18       1.0  0.10795  0.21682  0.97934  1.0000
  H   H19       1.0  0.60796  0.28318  0.47934  1.0000
  H   H20       1.0  0.89204  0.78317  0.02066  1.0000
  H   H21       1.0  0.16905  0.38292  0.35471  1.0000
  H   H22       1.0  0.33096  0.88291  0.14529  1.0000
  H   H23       1.0  0.83096  0.61708  0.64529  1.0000
  H   H24       1.0  0.66904  0.11708  0.85471  1.0000
  H   H25       1.0  0.21010  0.38081  0.64930  1.0000
  H   H26       1.0  0.28990  0.88081  0.85070  1.0000
  H   H27       1.0  0.78990  0.61919  0.35070  1.0000
  H   H28       1.0  0.71010  0.11919  0.14930  1.0000
  C   C1        1.0  0.33027  0.61711  0.51359  1.0000
  C   C2        1.0  0.16973  0.11711  0.98641  1.0000
  C   C3        1.0  0.66974  0.38289  0.48641  1.0000
  C   C4        1.0  0.83027  0.88289  0.01359  1.0000
  C   C5        1.0  0.28051  0.56199  0.42671  1.0000
  C   C6        1.0  0.21949  0.06199  0.07329  1.0000
  C   C7        1.0  0.71949  0.43801  0.57329  1.0000
  C   C8        1.0  0.78051  0.93801  0.92670  1.0000
  C   C9        1.0  0.20562  0.43222  0.42074  1.0000
  C   C10       1.0  0.29438  0.93222  0.07926  1.0000
  C   C11       1.0  0.79438  0.56778  0.57926  1.0000
  C   C12       1.0  0.70562  0.06778  0.92074  1.0000
  C   C13       1.0  0.17625  0.36630  0.50117  1.0000
  C   C14       1.0  0.32375  0.86630  0.99883  1.0000
  C   C15       1.0  0.82375  0.63370  0.49883  1.0000
  C   C16       1.0  0.67625  0.13369  0.00117  1.0000
  C   C17       1.0  0.22902  0.43048  0.58521  1.0000
  C   C18       1.0  0.27099  0.93048  0.91479  1.0000
  C   C19       1.0  0.77098  0.56952  0.41479  1.0000
  C   C20       1.0  0.72901  0.06952  0.08521  1.0000
  C   C21       1.0  0.30966  0.64229  0.34366  1.0000
  C   C22       1.0  0.19034  0.14229  0.15634  1.0000
  C   C23       1.0  0.69034  0.35771  0.65634  1.0000
  C   C24       1.0  0.80966  0.85771  0.84365  1.0000
  C   C25       1.0  0.09185  0.22833  0.49869  1.0000
  C   C26       1.0  0.40815  0.72833  0.00132  1.0000
  C   C27       1.0  0.90814  0.77167  0.50132  1.0000
  C   C28       1.0  0.59185  0.27167  0.99869  1.0000
  C   C29       1.0  0.54502  0.03177  0.46087  1.0000
  C   C30       1.0  0.95500  0.53176  0.03914  1.0000
  C   C31       1.0  0.45501  0.96824  0.53914  1.0000
  C   C32       1.0  0.04500  0.46823  0.96087  1.0000
  N   N1        1.0  0.30772  0.55292  0.59125  1.0000
  N   N2        1.0  0.19228  0.05291  0.90875  1.0000
  N   N3        1.0  0.69228  0.44708  0.40875  1.0000
  N   N4        1.0  0.80772  0.94708  0.09125  1.0000
  O   O1        1.0  0.33422  0.76944  0.35296  1.0000
  O   O2        1.0  0.16578  0.26943  0.14704  1.0000
  O   O3        1.0  0.66578  0.23057  0.64704  1.0000
  O   O4        1.0  0.83422  0.73056  0.85296  1.0000
  O   O5        1.0  0.30636  0.57958  0.26885  1.0000
  O   O6        1.0  0.19364  0.07957  0.23115  1.0000
  O   O7        1.0  0.69364  0.42042  0.73115  1.0000
  O   O8        1.0  0.80637  0.92042  0.76885  1.0000
  O   O9        1.0  0.08896  0.16038  0.42575  1.0000
  O   O10       1.0  0.41104  0.66038  0.07424  1.0000
  O   O11       1.0  0.91104  0.83962  0.57424  1.0000
  O   O12       1.0  0.58896  0.33962  0.92576  1.0000
  O   O13       1.0  0.03021  0.19021  0.57031  1.0000
  O   O14       1.0  0.46980  0.69020  0.92969  1.0000
  O   O15       1.0  0.96980  0.80980  0.42968  1.0000
  O   O16       1.0  0.53021  0.30979  0.07032  1.0000
  O   O17       1.0  0.44781  0.05139  0.38498  1.0000
  O   O18       1.0  0.05218  0.55139  0.11502  1.0000
  O   O19       1.0  0.55218  0.94861  0.61501  1.0000
  O   O20       1.0  0.94782  0.44861  0.88499  1.0000
  O   O21       1.0  0.71109  0.06048  0.47904  1.0000
  O   O22       1.0  0.78890  0.56047  0.02096  1.0000
  O   O23       1.0  0.28889  0.93953  0.52096  1.0000
  O   O24       1.0  0.21110  0.43952  0.97905  1.0000
  O   O25       1.0  0.82977  0.02689  0.31158  1.0000
  O   O26       1.0  0.67023  0.52690  0.18842  1.0000
  O   O27       1.0  0.17023  0.97311  0.68842  1.0000
  O   O28       1.0  0.32977  0.47311  0.81158  1.0000
  O   O29       1.0  0.99912  0.81543  0.23153  1.0000
  O   O30       1.0  0.50088  0.31543  0.26847  1.0000
  O   O31       1.0  0.00088  0.18457  0.76847  1.0000
  O   O32       1.0  0.49912  0.68457  0.73153  1.0000
