data_image0
_chemical_formula_structural       Mn4H44C12N4Cl8O16
_chemical_formula_sum              "Mn4 H44 C12 N4 Cl8 O16"
_cell_length_a       5.71719
_cell_length_b       8.15264
_cell_length_c       18.5009
_cell_angle_alpha    96.5065
_cell_angle_beta     90.0001
_cell_angle_gamma    89.9997

_space_group_name_H-M_alt    "P 1"
_space_group_IT_number       1

loop_
  _space_group_symop_operation_xyz
  'x, y, z'

loop_
  _atom_site_type_symbol
  _atom_site_label
  _atom_site_symmetry_multiplicity
  _atom_site_fract_x
  _atom_site_fract_y
  _atom_site_fract_z
  _atom_site_occupancy
  Mn  Mn1       1.0  0.92398  0.26074  0.67342  1.0000
  Mn  Mn2       1.0  0.42398  0.73926  0.82658  1.0000
  Mn  Mn3       1.0  0.07601  0.73926  0.32658  1.0000
  Mn  Mn4       1.0  0.57602  0.26074  0.17342  1.0000
  H   H1        1.0  0.57711  0.46100  0.69271  1.0000
  H   H2        1.0  0.07711  0.53900  0.80728  1.0000
  H   H3        1.0  0.42289  0.53901  0.30728  1.0000
  H   H4        1.0  0.92289  0.46099  0.19272  1.0000
  H   H5        1.0  0.48163  0.35231  0.62154  1.0000
  H   H6        1.0  0.98163  0.64769  0.87846  1.0000
  H   H7        1.0  0.51838  0.64769  0.37846  1.0000
  H   H8        1.0  0.01838  0.35231  0.12154  1.0000
  H   H9        1.0  0.36475  0.10391  0.69506  1.0000
  H   H10       1.0  0.86475  0.89609  0.80494  1.0000
  H   H11       1.0  0.63525  0.89609  0.30494  1.0000
  H   H12       1.0  0.13525  0.10391  0.19506  1.0000
  H   H13       1.0  0.20812  0.08291  0.76530  1.0000
  H   H14       1.0  0.70812  0.91709  0.73471  1.0000
  H   H15       1.0  0.79188  0.91709  0.23470  1.0000
  H   H16       1.0  0.29188  0.08291  0.26529  1.0000
  H   H17       1.0  0.51784  0.45138  0.92270  1.0000
  H   H18       1.0  0.01785  0.54863  0.57730  1.0000
  H   H19       1.0  0.48216  0.54862  0.07730  1.0000
  H   H20       1.0  0.98215  0.45138  0.42270  1.0000
  H   H21       1.0  0.33494  0.29958  0.87393  1.0000
  H   H22       1.0  0.83494  0.70042  0.62607  1.0000
  H   H23       1.0  0.66506  0.70041  0.12607  1.0000
  H   H24       1.0  0.16506  0.29959  0.37393  1.0000
  H   H25       1.0  0.51956  0.15507  0.95324  1.0000
  H   H26       1.0  0.01956  0.84493  0.54676  1.0000
  H   H27       1.0  0.48043  0.84492  0.04676  1.0000
  H   H28       1.0  0.98044  0.15507  0.45324  1.0000
  H   H29       1.0  0.68843  0.11378  0.87875  1.0000
  H   H30       1.0  0.18843  0.88622  0.62125  1.0000
  H   H31       1.0  0.31157  0.88621  0.12125  1.0000
  H   H32       1.0  0.81158  0.11379  0.37875  1.0000
  H   H33       1.0  0.96768  0.32248  0.92830  1.0000
  H   H34       1.0  0.46768  0.67752  0.57170  1.0000
  H   H35       1.0  0.03232  0.67751  0.07170  1.0000
  H   H36       1.0  0.53231  0.32248  0.42830  1.0000
  H   H37       1.0  0.92687  0.16096  0.98542  1.0000
  H   H38       1.0  0.42687  0.83904  0.51458  1.0000
  H   H39       1.0  0.07312  0.83903  0.01458  1.0000
  H   H40       1.0  0.57313  0.16096  0.48542  1.0000
  H   H41       1.0  0.78347  0.35551  0.00745  1.0000
  H   H42       1.0  0.28347  0.64449  0.49255  1.0000
  H   H43       1.0  0.21653  0.64448  0.99255  1.0000
  H   H44       1.0  0.71653  0.35551  0.50745  1.0000
  C   C1        1.0  0.51672  0.33789  0.88478  1.0000
  C   C2        1.0  0.01674  0.66212  0.61523  1.0000
  C   C3        1.0  0.48327  0.66212  0.11522  1.0000
  C   C4        1.0  0.98326  0.33789  0.38478  1.0000
  C   C5        1.0  0.84490  0.26541  0.96325  1.0000
  C   C6        1.0  0.34491  0.73459  0.53675  1.0000
  C   C7        1.0  0.15510  0.73458  0.03675  1.0000
  C   C8        1.0  0.65510  0.26541  0.46325  1.0000
  C   C9        1.0  0.62876  0.36749  0.81299  1.0000
  C   C10       1.0  0.12877  0.63250  0.68701  1.0000
  C   C11       1.0  0.37123  0.63251  0.18701  1.0000
  C   C12       1.0  0.87123  0.36750  0.31299  1.0000
  N   N1        1.0  0.63799  0.20507  0.91916  1.0000
  N   N2        1.0  0.13798  0.79493  0.58084  1.0000
  N   N3        1.0  0.36202  0.79493  0.08084  1.0000
  N   N4        1.0  0.86202  0.20507  0.41916  1.0000
  Cl  Cl1       1.0  0.67551  0.01518  0.63640  1.0000
  Cl  Cl2       1.0  0.17550  0.98482  0.86360  1.0000
  Cl  Cl3       1.0  0.32449  0.98482  0.36360  1.0000
  Cl  Cl4       1.0  0.82449  0.01518  0.13640  1.0000
  Cl  Cl5       1.0  0.16365  0.23891  0.56186  1.0000
  Cl  Cl6       1.0  0.66364  0.76109  0.93814  1.0000
  Cl  Cl7       1.0  0.83635  0.76109  0.43814  1.0000
  Cl  Cl8       1.0  0.33636  0.23891  0.06186  1.0000
  O   O1        1.0  0.61885  0.41502  0.64188  1.0000
  O   O2        1.0  0.11885  0.58498  0.85812  1.0000
  O   O3        1.0  0.38115  0.58498  0.35812  1.0000
  O   O4        1.0  0.88115  0.41502  0.14188  1.0000
  O   O5        1.0  0.77078  0.26051  0.78427  1.0000
  O   O6        1.0  0.27079  0.73948  0.71573  1.0000
  O   O7        1.0  0.22922  0.73949  0.21573  1.0000
  O   O8        1.0  0.72922  0.26052  0.28427  1.0000
  O   O9        1.0  0.56425  0.49657  0.78537  1.0000
  O   O10       1.0  0.06425  0.50344  0.71463  1.0000
  O   O11       1.0  0.43574  0.50343  0.21463  1.0000
  O   O12       1.0  0.93575  0.49657  0.28537  1.0000
  O   O13       1.0  0.21658  0.13775  0.72007  1.0000
  O   O14       1.0  0.71657  0.86226  0.77993  1.0000
  O   O15       1.0  0.78341  0.86225  0.27993  1.0000
  O   O16       1.0  0.28342  0.13774  0.22007  1.0000
