data_image0
_chemical_formula_structural       Zn2H28C24N8O12
_chemical_formula_sum              "Zn2 H28 C24 N8 O12"
_cell_length_a       7.92948
_cell_length_b       10.397
_cell_length_c       10.3969
_cell_angle_alpha    95.8375
_cell_angle_beta     103.225
_cell_angle_gamma    103.225

_space_group_name_H-M_alt    "P 1"
_space_group_IT_number       1

loop_
  _space_group_symop_operation_xyz
  'x, y, z'

loop_
  _atom_site_type_symbol
  _atom_site_label
  _atom_site_symmetry_multiplicity
  _atom_site_fract_x
  _atom_site_fract_y
  _atom_site_fract_z
  _atom_site_occupancy
  Zn  Zn1       1.0  0.75000  0.64385  0.35616  1.0000
  Zn  Zn2       1.0  0.25000  0.35615  0.64385  1.0000
  H   H1        1.0  0.76850  0.60816  0.60915  1.0000
  H   H2        1.0  0.26850  0.60914  0.60816  1.0000
  H   H3        1.0  0.23150  0.39184  0.39086  1.0000
  H   H4        1.0  0.73150  0.39086  0.39184  1.0000
  H   H5        1.0  0.58986  0.65631  0.56358  1.0000
  H   H6        1.0  0.08985  0.56358  0.65631  1.0000
  H   H7        1.0  0.41015  0.34369  0.43642  1.0000
  H   H8        1.0  0.91014  0.43642  0.34369  1.0000
  H   H9        1.0  0.20056  0.14812  0.34031  1.0000
  H   H10       1.0  0.70057  0.34032  0.14812  1.0000
  H   H11       1.0  0.79943  0.85188  0.65969  1.0000
  H   H12       1.0  0.29943  0.65969  0.85188  1.0000
  H   H13       1.0  0.25070  0.16019  0.18274  1.0000
  H   H14       1.0  0.75070  0.18274  0.16019  1.0000
  H   H15       1.0  0.74930  0.83981  0.81726  1.0000
  H   H16       1.0  0.24930  0.81726  0.83981  1.0000
  H   H17       1.0  0.94416  0.00837  0.15378  1.0000
  H   H18       1.0  0.44416  0.15378  0.00837  1.0000
  H   H19       1.0  0.05584  0.99163  0.84622  1.0000
  H   H20       1.0  0.55584  0.84622  0.99163  1.0000
  H   H21       1.0  0.03667  0.90546  0.26105  1.0000
  H   H22       1.0  0.53667  0.26105  0.90546  1.0000
  H   H23       1.0  0.96333  0.09454  0.73895  1.0000
  H   H24       1.0  0.46333  0.73895  0.09454  1.0000
  H   H25       1.0  0.08658  0.91411  0.10357  1.0000
  H   H26       1.0  0.58658  0.10357  0.91411  1.0000
  H   H27       1.0  0.91342  0.08589  0.89643  1.0000
  H   H28       1.0  0.41342  0.89643  0.08589  1.0000
  C   C1        1.0  0.67228  0.93937  0.37408  1.0000
  C   C2        1.0  0.17228  0.37408  0.93936  1.0000
  C   C3        1.0  0.32772  0.06063  0.62591  1.0000
  C   C4        1.0  0.82772  0.62592  0.06064  1.0000
  C   C5        1.0  0.85020  0.16130  0.47148  1.0000
  C   C6        1.0  0.35019  0.47147  0.16130  1.0000
  C   C7        1.0  0.14980  0.83870  0.52852  1.0000
  C   C8        1.0  0.64980  0.52852  0.83870  1.0000
  C   C9        1.0  0.68419  0.07618  0.39915  1.0000
  C   C10       1.0  0.18419  0.39915  0.07619  1.0000
  C   C11       1.0  0.31581  0.92382  0.60084  1.0000
  C   C12       1.0  0.81581  0.60085  0.92381  1.0000
  C   C13       1.0  0.53422  0.13251  0.35883  1.0000
  C   C14       1.0  0.03422  0.35883  0.13252  1.0000
  C   C15       1.0  0.46578  0.86748  0.64117  1.0000
  C   C16       1.0  0.96578  0.64117  0.86748  1.0000
  C   C17       1.0  0.22179  0.09121  0.25320  1.0000
  C   C18       1.0  0.72180  0.25321  0.09121  1.0000
  C   C19       1.0  0.77821  0.90878  0.74680  1.0000
  C   C20       1.0  0.27821  0.74680  0.90879  1.0000
  C   C21       1.0  0.06406  0.97245  0.18921  1.0000
  C   C22       1.0  0.56406  0.18921  0.97245  1.0000
  C   C23       1.0  0.93594  0.02755  0.81079  1.0000
  C   C24       1.0  0.43594  0.81079  0.02755  1.0000
  N   N1        1.0  0.67075  0.82611  0.35541  1.0000
  N   N2        1.0  0.17075  0.35541  0.82612  1.0000
  N   N3        1.0  0.32925  0.17389  0.64459  1.0000
  N   N4        1.0  0.82924  0.64459  0.17388  1.0000
  N   N5        1.0  0.98867  0.23226  0.53242  1.0000
  N   N6        1.0  0.48869  0.53243  0.23227  1.0000
  N   N7        1.0  0.01133  0.76774  0.46757  1.0000
  N   N8        1.0  0.51132  0.46757  0.76773  1.0000
  O   O1        1.0  0.67185  0.61059  0.53096  1.0000
  O   O2        1.0  0.17184  0.53095  0.61059  1.0000
  O   O3        1.0  0.32816  0.38941  0.46905  1.0000
  O   O4        1.0  0.82816  0.46905  0.38941  1.0000
  O   O5        1.0  0.54584  0.25529  0.37630  1.0000
  O   O6        1.0  0.04585  0.37630  0.25529  1.0000
  O   O7        1.0  0.45416  0.74471  0.62370  1.0000
  O   O8        1.0  0.95416  0.62370  0.74471  1.0000
  O   O9        1.0  0.37872  0.04010  0.29840  1.0000
  O   O10       1.0  0.87872  0.29840  0.04010  1.0000
  O   O11       1.0  0.62128  0.95990  0.70160  1.0000
  O   O12       1.0  0.12128  0.70160  0.95990  1.0000
