data_image0
_chemical_formula_structural       Cu2H24C24N8O10
_chemical_formula_sum              "Cu2 H24 C24 N8 O10"
_cell_length_a       7.30831
_cell_length_b       10.1728
_cell_length_c       10.1728
_cell_angle_alpha    101.573
_cell_angle_beta     99.7686
_cell_angle_gamma    99.7698

_space_group_name_H-M_alt    "P 1"
_space_group_IT_number       1

loop_
  _space_group_symop_operation_xyz
  'x, y, z'

loop_
  _atom_site_type_symbol
  _atom_site_label
  _atom_site_symmetry_multiplicity
  _atom_site_fract_x
  _atom_site_fract_y
  _atom_site_fract_z
  _atom_site_occupancy
  Cu  Cu1       1.0  0.25002  0.85059  0.14944  1.0000
  Cu  Cu2       1.0  0.75000  0.14945  0.85057  1.0000
  H   H1        1.0  0.16852  0.95142  0.92977  1.0000
  H   H2        1.0  0.66855  0.92978  0.95142  1.0000
  H   H3        1.0  0.83150  0.04857  0.07021  1.0000
  H   H4        1.0  0.33146  0.07021  0.04858  1.0000
  H   H5        1.0  0.77599  0.33820  0.32562  1.0000
  H   H6        1.0  0.27601  0.32562  0.33821  1.0000
  H   H7        1.0  0.22401  0.66181  0.67438  1.0000
  H   H8        1.0  0.72399  0.67437  0.66179  1.0000
  H   H9        1.0  0.83411  0.33030  0.16243  1.0000
  H   H10       1.0  0.33414  0.16244  0.33030  1.0000
  H   H11       1.0  0.16589  0.66971  0.83758  1.0000
  H   H12       1.0  0.66588  0.83757  0.66970  1.0000
  H   H13       1.0  0.09320  0.49184  0.34749  1.0000
  H   H14       1.0  0.59315  0.34749  0.49183  1.0000
  H   H15       1.0  0.90683  0.50818  0.65252  1.0000
  H   H16       1.0  0.40679  0.65251  0.50816  1.0000
  H   H17       1.0  0.92890  0.59227  0.39857  1.0000
  H   H18       1.0  0.42888  0.39855  0.59225  1.0000
  H   H19       1.0  0.07110  0.40774  0.60144  1.0000
  H   H20       1.0  0.57109  0.60143  0.40773  1.0000
  H   H21       1.0  0.98766  0.58391  0.23533  1.0000
  H   H22       1.0  0.48764  0.23534  0.58391  1.0000
  H   H23       1.0  0.01234  0.41610  0.76467  1.0000
  H   H24       1.0  0.51233  0.76467  0.41608  1.0000
  C   C1        1.0  0.32189  0.54014  0.10602  1.0000
  C   C2        1.0  0.82190  0.10601  0.54013  1.0000
  C   C3        1.0  0.67810  0.45985  0.89397  1.0000
  C   C4        1.0  0.17810  0.89397  0.45986  1.0000
  C   C5        1.0  0.15046  0.31098  0.00925  1.0000
  C   C6        1.0  0.65048  0.00924  0.31096  1.0000
  C   C7        1.0  0.84953  0.68901  0.99074  1.0000
  C   C8        1.0  0.34954  0.99074  0.68902  1.0000
  C   C9        1.0  0.31713  0.39962  0.08695  1.0000
  C   C10       1.0  0.81717  0.08696  0.39964  1.0000
  C   C11       1.0  0.68286  0.60035  0.91304  1.0000
  C   C12       1.0  0.18287  0.91304  0.60038  1.0000
  C   C13       1.0  0.47997  0.34511  0.13532  1.0000
  C   C14       1.0  0.98003  0.13533  0.34511  1.0000
  C   C15       1.0  0.52000  0.65488  0.86467  1.0000
  C   C16       1.0  0.02002  0.86468  0.65489  1.0000
  C   C17       1.0  0.80417  0.39893  0.25040  1.0000
  C   C18       1.0  0.30419  0.25040  0.39896  1.0000
  C   C19       1.0  0.19583  0.60107  0.74961  1.0000
  C   C20       1.0  0.69582  0.74960  0.60107  1.0000
  C   C21       1.0  0.96155  0.52435  0.31140  1.0000
  C   C22       1.0  0.46156  0.31141  0.52438  1.0000
  C   C23       1.0  0.03843  0.47565  0.68861  1.0000
  C   C24       1.0  0.53844  0.68860  0.47564  1.0000
  N   N1        1.0  0.32007  0.65677  0.11731  1.0000
  N   N2        1.0  0.82005  0.11730  0.65676  1.0000
  N   N3        1.0  0.67994  0.34321  0.88268  1.0000
  N   N4        1.0  0.17991  0.88268  0.34322  1.0000
  N   N5        1.0  0.01016  0.24116  0.93894  1.0000
  N   N6        1.0  0.51017  0.93893  0.24114  1.0000
  N   N7        1.0  0.98982  0.75884  0.06105  1.0000
  N   N8        1.0  0.48984  0.06105  0.75883  1.0000
  O   O1        1.0  0.25004  0.97648  0.02356  1.0000
  O   O2        1.0  0.74997  0.02357  0.97647  1.0000
  O   O3        1.0  0.48382  0.22177  0.11857  1.0000
  O   O4        1.0  0.98383  0.11856  0.22178  1.0000
  O   O5        1.0  0.51618  0.77823  0.88144  1.0000
  O   O6        1.0  0.01617  0.88144  0.77825  1.0000
  O   O7        1.0  0.63196  0.44566  0.20365  1.0000
  O   O8        1.0  0.13199  0.20365  0.44564  1.0000
  O   O9        1.0  0.36803  0.55435  0.79635  1.0000
  O   O10       1.0  0.86805  0.79635  0.55436  1.0000
