data_image0
_chemical_formula_structural       Mg4H72C56O8
_chemical_formula_sum              "Mg4 H72 C56 O8"
_cell_length_a       10.1534
_cell_length_b       10.3021
_cell_length_c       11.5889
_cell_angle_alpha    90.0004
_cell_angle_beta     90
_cell_angle_gamma    92.568

_space_group_name_H-M_alt    "P 1"
_space_group_IT_number       1

loop_
  _space_group_symop_operation_xyz
  'x, y, z'

loop_
  _atom_site_type_symbol
  _atom_site_label
  _atom_site_symmetry_multiplicity
  _atom_site_fract_x
  _atom_site_fract_y
  _atom_site_fract_z
  _atom_site_occupancy
  Mg  Mg1       1.0  0.24771  0.76792  0.97579  1.0000
  Mg  Mg2       1.0  0.75229  0.73208  0.47579  1.0000
  Mg  Mg3       1.0  0.75229  0.23208  0.02421  1.0000
  Mg  Mg4       1.0  0.24772  0.26792  0.52421  1.0000
  H   H1        1.0  0.01479  0.66956  0.11663  1.0000
  H   H2        1.0  0.98521  0.83045  0.61663  1.0000
  H   H3        1.0  0.98521  0.33044  0.88337  1.0000
  H   H4        1.0  0.01479  0.16955  0.38337  1.0000
  H   H5        1.0  0.06988  0.42188  0.07689  1.0000
  H   H6        1.0  0.93011  0.07813  0.57690  1.0000
  H   H7        1.0  0.93012  0.57812  0.92311  1.0000
  H   H8        1.0  0.06989  0.92187  0.42310  1.0000
  H   H9        1.0  0.32612  0.39269  0.12593  1.0000
  H   H10       1.0  0.67387  0.10732  0.62593  1.0000
  H   H11       1.0  0.67388  0.60732  0.87407  1.0000
  H   H12       1.0  0.32613  0.89268  0.37407  1.0000
  H   H13       1.0  0.43283  0.62306  0.19227  1.0000
  H   H14       1.0  0.56716  0.87694  0.69227  1.0000
  H   H15       1.0  0.56717  0.37694  0.80773  1.0000
  H   H16       1.0  0.43284  0.12306  0.30773  1.0000
  H   H17       1.0  0.23604  0.79282  0.20302  1.0000
  H   H18       1.0  0.76396  0.70718  0.70302  1.0000
  H   H19       1.0  0.76396  0.20718  0.79698  1.0000
  H   H20       1.0  0.23604  0.29282  0.29698  1.0000
  H   H21       1.0  0.51250  0.74243  0.84679  1.0000
  H   H22       1.0  0.48750  0.75757  0.34679  1.0000
  H   H23       1.0  0.48750  0.25757  0.15321  1.0000
  H   H24       1.0  0.51250  0.24243  0.65321  1.0000
  H   H25       1.0  0.33202  0.88166  0.73461  1.0000
  H   H26       1.0  0.66798  0.61833  0.23461  1.0000
  H   H27       1.0  0.66798  0.11834  0.26539  1.0000
  H   H28       1.0  0.33202  0.38166  0.76539  1.0000
  H   H29       1.0  0.13610  0.52135  0.85641  1.0000
  H   H30       1.0  0.86391  0.97865  0.35641  1.0000
  H   H31       1.0  0.86390  0.47866  0.14359  1.0000
  H   H32       1.0  0.13609  0.02135  0.64359  1.0000
  H   H33       1.0  0.10121  0.74405  0.73895  1.0000
  H   H34       1.0  0.89879  0.75595  0.23895  1.0000
  H   H35       1.0  0.89879  0.25595  0.26105  1.0000
  H   H36       1.0  0.10121  0.24405  0.76105  1.0000
  H   H37       1.0  0.39071  0.52171  0.92374  1.0000
  H   H38       1.0  0.60929  0.97829  0.42374  1.0000
  H   H39       1.0  0.60929  0.47828  0.07626  1.0000
  H   H40       1.0  0.39071  0.02171  0.57626  1.0000
  H   H41       1.0  0.81576  0.00260  0.86787  1.0000
  H   H42       1.0  0.18424  0.49740  0.36787  1.0000
  H   H43       1.0  0.18424  0.99740  0.13213  1.0000
  H   H44       1.0  0.81576  0.50260  0.63213  1.0000
  H   H45       1.0  0.97996  0.06537  0.84332  1.0000
  H   H46       1.0  0.02004  0.43463  0.34332  1.0000
  H   H47       1.0  0.02004  0.93463  0.15668  1.0000
  H   H48       1.0  0.97996  0.56537  0.65668  1.0000
  H   H49       1.0  0.09964  0.16675  0.99994  1.0000
  H   H50       1.0  0.90036  0.33325  0.49994  1.0000
  H   H51       1.0  0.90036  0.83325  0.00006  1.0000
  H   H52       1.0  0.09964  0.66675  0.50006  1.0000
  H   H53       1.0  0.02172  0.17362  0.13878  1.0000
  H   H54       1.0  0.97828  0.32639  0.63878  1.0000
  H   H55       1.0  0.97828  0.82639  0.86122  1.0000
  H   H56       1.0  0.02172  0.67361  0.36122  1.0000
  H   H57       1.0  0.47354  0.82491  0.13631  1.0000
  H   H58       1.0  0.52646  0.67509  0.63631  1.0000
  H   H59       1.0  0.52646  0.17509  0.86369  1.0000
  H   H60       1.0  0.47354  0.32491  0.36369  1.0000
  H   H61       1.0  0.46439  0.99368  0.16764  1.0000
  H   H62       1.0  0.53561  0.50632  0.66764  1.0000
  H   H63       1.0  0.53561  0.00632  0.83236  1.0000
  H   H64       1.0  0.46439  0.49368  0.33236  1.0000
  H   H65       1.0  0.36485  0.13073  0.01905  1.0000
  H   H66       1.0  0.63515  0.36927  0.51905  1.0000
  H   H67       1.0  0.63515  0.86927  0.98095  1.0000
  H   H68       1.0  0.36485  0.63073  0.48095  1.0000
  H   H69       1.0  0.30794  0.05193  0.88884  1.0000
  H   H70       1.0  0.69206  0.44807  0.38884  1.0000
  H   H71       1.0  0.69206  0.94807  0.11116  1.0000
  H   H72       1.0  0.30794  0.55193  0.61116  1.0000
  C   C1        1.0  0.11089  0.62807  0.12645  1.0000
  C   C2        1.0  0.88911  0.87193  0.62645  1.0000
  C   C3        1.0  0.88911  0.37193  0.87355  1.0000
  C   C4        1.0  0.11089  0.12807  0.37355  1.0000
  C   C5        1.0  0.13901  0.49690  0.10933  1.0000
  C   C6        1.0  0.86098  0.00311  0.60933  1.0000
  C   C7        1.0  0.86098  0.50310  0.89067  1.0000
  C   C8        1.0  0.13902  0.99689  0.39067  1.0000
  C   C9        1.0  0.27348  0.48171  0.13568  1.0000
  C   C10       1.0  0.72652  0.01830  0.63569  1.0000
  C   C11       1.0  0.72652  0.51829  0.86432  1.0000
  C   C12       1.0  0.27348  0.98170  0.36431  1.0000
  C   C13       1.0  0.33006  0.60293  0.16938  1.0000
  C   C14       1.0  0.66994  0.89707  0.66938  1.0000
  C   C15       1.0  0.66994  0.39707  0.83062  1.0000
  C   C16       1.0  0.33006  0.10293  0.33062  1.0000
  C   C17       1.0  0.23017  0.69638  0.16371  1.0000
  C   C18       1.0  0.76982  0.80362  0.66371  1.0000
  C   C19       1.0  0.76982  0.30362  0.83629  1.0000
  C   C20       1.0  0.23018  0.19638  0.33629  1.0000
  C   C21       1.0  0.40950  0.71340  0.83306  1.0000
  C   C22       1.0  0.59050  0.78660  0.33306  1.0000
  C   C23       1.0  0.59050  0.28660  0.16694  1.0000
  C   C24       1.0  0.40950  0.21340  0.66694  1.0000
  C   C25       1.0  0.31530  0.78674  0.77415  1.0000
  C   C26       1.0  0.68470  0.71326  0.27415  1.0000
  C   C27       1.0  0.68470  0.21326  0.22585  1.0000
  C   C28       1.0  0.31530  0.28674  0.72585  1.0000
  C   C29       1.0  0.21122  0.59685  0.83864  1.0000
  C   C30       1.0  0.78879  0.90315  0.33864  1.0000
  C   C31       1.0  0.78878  0.40315  0.16136  1.0000
  C   C32       1.0  0.21122  0.09685  0.66136  1.0000
  C   C33       1.0  0.19274  0.71438  0.77736  1.0000
  C   C34       1.0  0.80726  0.78562  0.27736  1.0000
  C   C35       1.0  0.80726  0.28563  0.22264  1.0000
  C   C36       1.0  0.19274  0.21438  0.72264  1.0000
  C   C37       1.0  0.34577  0.59648  0.87305  1.0000
  C   C38       1.0  0.65423  0.90352  0.37305  1.0000
  C   C39       1.0  0.65423  0.40352  0.12695  1.0000
  C   C40       1.0  0.34577  0.09648  0.62695  1.0000
  C   C41       1.0  0.91427  0.01524  0.90613  1.0000
  C   C42       1.0  0.08573  0.48476  0.40613  1.0000
  C   C43       1.0  0.08573  0.98476  0.09387  1.0000
  C   C44       1.0  0.91428  0.51524  0.59387  1.0000
  C   C45       1.0  0.96675  0.88550  0.93873  1.0000
  C   C46       1.0  0.03325  0.61450  0.43874  1.0000
  C   C47       1.0  0.03325  0.11450  0.06127  1.0000
  C   C48       1.0  0.96675  0.38550  0.56127  1.0000
  C   C49       1.0  0.48145  0.92252  0.09924  1.0000
  C   C50       1.0  0.51855  0.57748  0.59924  1.0000
  C   C51       1.0  0.51855  0.07748  0.90076  1.0000
  C   C52       1.0  0.48145  0.42252  0.40076  1.0000
  C   C53       1.0  0.38464  0.05413  0.95568  1.0000
  C   C54       1.0  0.61536  0.44587  0.45568  1.0000
  C   C55       1.0  0.61536  0.94587  0.04432  1.0000
  C   C56       1.0  0.38464  0.55413  0.54432  1.0000
  O   O1        1.0  0.37658  0.92998  0.01476  1.0000
  O   O2        1.0  0.62342  0.57002  0.51476  1.0000
  O   O3        1.0  0.62342  0.07002  0.98524  1.0000
  O   O4        1.0  0.37658  0.42998  0.48524  1.0000
  O   O5        1.0  0.90407  0.09687  0.00825  1.0000
  O   O6        1.0  0.09593  0.40313  0.50825  1.0000
  O   O7        1.0  0.09593  0.90313  0.99175  1.0000
  O   O8        1.0  0.90407  0.59687  0.49175  1.0000
