data_image0
_chemical_formula_structural       Ag2H16C24S4I4N2O8
_chemical_formula_sum              "Ag2 H16 C24 S4 I4 N2 O8"
_cell_length_a       8.99361
_cell_length_b       9.13185
_cell_length_c       10.8288
_cell_angle_alpha    92.3823
_cell_angle_beta     111.564
_cell_angle_gamma    110.886

_space_group_name_H-M_alt    "P 1"
_space_group_IT_number       1

loop_
  _space_group_symop_operation_xyz
  'x, y, z'

loop_
  _atom_site_type_symbol
  _atom_site_label
  _atom_site_symmetry_multiplicity
  _atom_site_fract_x
  _atom_site_fract_y
  _atom_site_fract_z
  _atom_site_occupancy
  Ag  Ag1       1.0  0.83060  0.55156  0.60284  1.0000
  Ag  Ag2       1.0  0.16940  0.44844  0.39716  1.0000
  H   H1        1.0  0.42339  0.38038  0.95724  1.0000
  H   H2        1.0  0.57662  0.61962  0.04276  1.0000
  H   H3        1.0  0.22993  0.13749  0.99770  1.0000
  H   H4        1.0  0.77008  0.86251  0.00230  1.0000
  H   H5        1.0  0.04960  0.90222  0.58361  1.0000
  H   H6        1.0  0.95040  0.09778  0.41639  1.0000
  H   H7        1.0  0.24188  0.15070  0.54244  1.0000
  H   H8        1.0  0.75813  0.84930  0.45756  1.0000
  H   H9        1.0  0.45731  0.94881  0.90147  1.0000
  H   H10       1.0  0.54269  0.05119  0.09853  1.0000
  H   H11       1.0  0.69415  0.21582  0.93978  1.0000
  H   H12       1.0  0.30585  0.78417  0.06023  1.0000
  H   H13       1.0  0.74507  0.05601  0.58156  1.0000
  H   H14       1.0  0.25493  0.94400  0.41844  1.0000
  H   H15       1.0  0.51071  0.78897  0.54609  1.0000
  H   H16       1.0  0.48929  0.21103  0.45391  1.0000
  C   C1        1.0  0.33962  0.28119  0.74577  1.0000
  C   C2        1.0  0.66038  0.71881  0.25423  1.0000
  C   C3        1.0  0.34043  0.27761  0.87446  1.0000
  C   C4        1.0  0.65957  0.72239  0.12554  1.0000
  C   C5        1.0  0.23112  0.13910  0.89766  1.0000
  C   C6        1.0  0.76889  0.86090  0.10234  1.0000
  C   C7        1.0  0.12356  0.00709  0.79143  1.0000
  C   C8        1.0  0.87644  0.99291  0.20857  1.0000
  C   C9        1.0  0.12739  0.00841  0.66363  1.0000
  C   C10       1.0  0.87261  0.99159  0.33637  1.0000
  C   C11       1.0  0.23598  0.14678  0.64100  1.0000
  C   C12       1.0  0.76402  0.85322  0.35900  1.0000
  C   C13       1.0  0.47259  0.85409  0.72348  1.0000
  C   C14       1.0  0.52741  0.14591  0.27652  1.0000
  C   C15       1.0  0.52258  0.97355  0.83309  1.0000
  C   C16       1.0  0.47742  0.02644  0.16691  1.0000
  C   C17       1.0  0.65484  0.12295  0.85390  1.0000
  C   C18       1.0  0.34516  0.87705  0.14610  1.0000
  C   C19       1.0  0.73522  0.14990  0.76340  1.0000
  C   C20       1.0  0.26478  0.85010  0.23661  1.0000
  C   C21       1.0  0.68245  0.03180  0.65190  1.0000
  C   C22       1.0  0.31755  0.96820  0.34810  1.0000
  C   C23       1.0  0.55024  0.88249  0.63155  1.0000
  C   C24       1.0  0.44976  0.11752  0.36845  1.0000
  S   S1        1.0  0.46762  0.45671  0.70813  1.0000
  S   S2        1.0  0.53239  0.54329  0.29187  1.0000
  S   S3        1.0  0.29628  0.66831  0.69658  1.0000
  S   S4        1.0  0.70372  0.33169  0.30341  1.0000
  I   I1        1.0  0.94510  0.80405  0.82210  1.0000
  I   I2        1.0  0.05490  0.19595  0.17790  1.0000
  I   I3        1.0  0.94862  0.36681  0.79911  1.0000
  I   I4        1.0  0.05138  0.63319  0.20089  1.0000
  N   N1        1.0  0.33056  0.53232  0.62386  1.0000
  N   N2        1.0  0.66944  0.46768  0.37614  1.0000
  O   O1        1.0  0.52271  0.40102  0.61155  1.0000
  O   O2        1.0  0.47729  0.59899  0.38845  1.0000
  O   O3        1.0  0.60197  0.56320  0.83441  1.0000
  O   O4        1.0  0.39803  0.43680  0.16559  1.0000
  O   O5        1.0  0.14158  0.67712  0.59319  1.0000
  O   O6        1.0  0.85842  0.32288  0.40681  1.0000
  O   O7        1.0  0.29294  0.64527  0.82796  1.0000
  O   O8        1.0  0.70706  0.35473  0.17204  1.0000
