data_image0
_chemical_formula_structural       Pr4H18C20O26
_chemical_formula_sum              "Pr4 H18 C20 O26"
_cell_length_a       8.41192
_cell_length_b       9.3727
_cell_length_c       11.4736
_cell_angle_alpha    80.1263
_cell_angle_beta     69.1545
_cell_angle_gamma    76.0636

_space_group_name_H-M_alt    "P 1"
_space_group_IT_number       1

loop_
  _space_group_symop_operation_xyz
  'x, y, z'

loop_
  _atom_site_type_symbol
  _atom_site_label
  _atom_site_symmetry_multiplicity
  _atom_site_fract_x
  _atom_site_fract_y
  _atom_site_fract_z
  _atom_site_occupancy
  Pr  Pr1       1.0  0.25736  0.52865  0.48625  1.0000
  Pr  Pr2       1.0  0.74264  0.47135  0.51375  1.0000
  Pr  Pr3       1.0  0.44765  0.14039  0.63572  1.0000
  Pr  Pr4       1.0  0.55234  0.85960  0.36428  1.0000
  H   H1        1.0  0.50796  0.33906  0.12876  1.0000
  H   H2        1.0  0.49205  0.66093  0.87124  1.0000
  H   H3        1.0  0.22243  0.45598  0.10746  1.0000
  H   H4        1.0  0.77757  0.54402  0.89254  1.0000
  H   H5        1.0  0.23781  0.26532  0.15249  1.0000
  H   H6        1.0  0.76219  0.73468  0.84750  1.0000
  H   H7        1.0  0.04965  0.83115  0.75601  1.0000
  H   H8        1.0  0.95035  0.16886  0.24400  1.0000
  H   H9        1.0  0.93729  0.96146  0.66763  1.0000
  H   H10       1.0  0.06270  0.03854  0.33238  1.0000
  H   H11       1.0  0.92896  0.08074  0.84811  1.0000
  H   H12       1.0  0.07103  0.91927  0.15189  1.0000
  H   H13       1.0  0.60036  0.05031  0.07017  1.0000
  H   H14       1.0  0.39964  0.94969  0.92983  1.0000
  H   H15       1.0  0.39275  0.58737  0.18107  1.0000
  H   H16       1.0  0.60726  0.41263  0.81892  1.0000
  H   H17       1.0  0.41379  0.44121  0.69109  1.0000
  H   H18       1.0  0.58621  0.55879  0.30890  1.0000
  C   C1        1.0  0.42024  0.24214  0.31635  1.0000
  C   C2        1.0  0.57976  0.75786  0.68365  1.0000
  C   C3        1.0  0.39676  0.36575  0.21433  1.0000
  C   C4        1.0  0.60324  0.63424  0.78567  1.0000
  C   C5        1.0  0.23129  0.37098  0.18513  1.0000
  C   C6        1.0  0.76871  0.62902  0.81486  1.0000
  C   C7        1.0  0.06587  0.40189  0.29490  1.0000
  C   C8        1.0  0.93413  0.59811  0.70510  1.0000
  C   C9        1.0  0.21235  0.90617  0.57972  1.0000
  C   C10       1.0  0.78764  0.09383  0.42028  1.0000
  C   C11       1.0  0.05485  0.93577  0.69481  1.0000
  C   C12       1.0  0.94514  0.06424  0.30519  1.0000
  C   C13       1.0  0.05348  0.05616  0.77077  1.0000
  C   C14       1.0  0.94651  0.94385  0.22923  1.0000
  C   C15       1.0  0.02440  0.22789  0.67289  1.0000
  C   C16       1.0  0.97560  0.77211  0.32711  1.0000
  C   C17       1.0  0.55153  0.18398  0.90430  1.0000
  C   C18       1.0  0.44847  0.81602  0.09570  1.0000
  C   C19       1.0  0.54109  0.05355  0.99909  1.0000
  C   C20       1.0  0.45891  0.94645  0.00092  1.0000
  O   O1        1.0  0.39761  0.50253  0.25222  1.0000
  O   O2        1.0  0.60240  0.49746  0.74778  1.0000
  O   O3        1.0  0.07554  0.41461  0.40286  1.0000
  O   O4        1.0  0.92447  0.58539  0.59714  1.0000
  O   O5        1.0  0.92066  0.41348  0.28158  1.0000
  O   O6        1.0  0.07935  0.58652  0.71842  1.0000
  O   O7        1.0  0.88339  0.25498  0.65723  1.0000
  O   O8        1.0  0.11662  0.74502  0.34277  1.0000
  O   O9        1.0  0.23846  0.79874  0.51686  1.0000
  O   O10       1.0  0.76154  0.20126  0.48314  1.0000
  O   O11       1.0  0.42866  0.27762  0.41700  1.0000
  O   O12       1.0  0.57135  0.72238  0.58300  1.0000
  O   O13       1.0  0.44570  0.40675  0.60848  1.0000
  O   O14       1.0  0.55430  0.59325  0.39152  1.0000
  O   O15       1.0  0.15111  0.28985  0.63947  1.0000
  O   O16       1.0  0.84891  0.71014  0.36053  1.0000
  O   O17       1.0  0.32086  0.99283  0.54425  1.0000
  O   O18       1.0  0.67914  0.00716  0.45575  1.0000
  O   O19       1.0  0.43221  0.11279  0.29281  1.0000
  O   O20       1.0  0.56778  0.88721  0.70719  1.0000
  O   O21       1.0  0.19292  0.05349  0.79743  1.0000
  O   O22       1.0  0.80707  0.94652  0.20258  1.0000
  O   O23       1.0  0.50100  0.18604  0.81114  1.0000
  O   O24       1.0  0.49899  0.81396  0.18886  1.0000
  O   O25       1.0  0.60969  0.28891  0.92184  1.0000
  O   O26       1.0  0.39032  0.71109  0.07816  1.0000
