data_image0
_chemical_formula_structural       Nd4H20C20O26
_chemical_formula_sum              "Nd4 H20 C20 O26"
_cell_length_a       8.24431
_cell_length_b       9.40517
_cell_length_c       11.557
_cell_angle_alpha    79.9429
_cell_angle_beta     69.7759
_cell_angle_gamma    75.6331

_space_group_name_H-M_alt    "P 1"
_space_group_IT_number       1

loop_
  _space_group_symop_operation_xyz
  'x, y, z'

loop_
  _atom_site_type_symbol
  _atom_site_label
  _atom_site_symmetry_multiplicity
  _atom_site_fract_x
  _atom_site_fract_y
  _atom_site_fract_z
  _atom_site_occupancy
  Nd  Nd1       1.0  0.74890  0.47284  0.51382  1.0000
  Nd  Nd2       1.0  0.25110  0.52716  0.48618  1.0000
  Nd  Nd3       1.0  0.54959  0.85175  0.37252  1.0000
  Nd  Nd4       1.0  0.45041  0.14825  0.62748  1.0000
  H   H1        1.0  0.48607  0.65726  0.87191  1.0000
  H   H2        1.0  0.51392  0.34274  0.12809  1.0000
  H   H3        1.0  0.77899  0.54545  0.89061  1.0000
  H   H4        1.0  0.22102  0.45455  0.10939  1.0000
  H   H5        1.0  0.75975  0.73579  0.84588  1.0000
  H   H6        1.0  0.24025  0.26421  0.15412  1.0000
  H   H7        1.0  0.07304  0.03534  0.34202  1.0000
  H   H8        1.0  0.92696  0.96465  0.65799  1.0000
  H   H9        1.0  0.96124  0.15698  0.24765  1.0000
  H   H10       1.0  0.03877  0.84301  0.75235  1.0000
  H   H11       1.0  0.08738  0.91216  0.16575  1.0000
  H   H12       1.0  0.91262  0.08784  0.83425  1.0000
  H   H13       1.0  0.45292  0.92361  0.91199  1.0000
  H   H14       1.0  0.54708  0.07639  0.08800  1.0000
  H   H15       1.0  0.78493  0.04316  0.16877  1.0000
  H   H16       1.0  0.21507  0.95684  0.83123  1.0000
  H   H17       1.0  0.60873  0.41214  0.81447  1.0000
  H   H18       1.0  0.39127  0.58786  0.18553  1.0000
  H   H19       1.0  0.58126  0.55844  0.31315  1.0000
  H   H20       1.0  0.41874  0.44156  0.68685  1.0000
  C   C1        1.0  0.56517  0.75785  0.68643  1.0000
  C   C2        1.0  0.43483  0.24215  0.31357  1.0000
  C   C3        1.0  0.59704  0.63371  0.78600  1.0000
  C   C4        1.0  0.40296  0.36629  0.21400  1.0000
  C   C5        1.0  0.76717  0.63024  0.81365  1.0000
  C   C6        1.0  0.23283  0.36977  0.18635  1.0000
  C   C7        1.0  0.93453  0.59979  0.70491  1.0000
  C   C8        1.0  0.06547  0.40022  0.29508  1.0000
  C   C9        1.0  0.79267  0.08790  0.42298  1.0000
  C   C10       1.0  0.20733  0.91210  0.57701  1.0000
  C   C11       1.0  0.95581  0.05531  0.31175  1.0000
  C   C12       1.0  0.04420  0.94468  0.68825  1.0000
  C   C13       1.0  0.96576  0.92395  0.24580  1.0000
  C   C14       1.0  0.03424  0.07605  0.75420  1.0000
  C   C15       1.0  0.97773  0.77651  0.32807  1.0000
  C   C16       1.0  0.02227  0.22349  0.67193  1.0000
  C   C17       1.0  0.45438  0.81613  0.09747  1.0000
  C   C18       1.0  0.54562  0.18387  0.90253  1.0000
  C   C19       1.0  0.47592  0.93844  0.99610  1.0000
  C   C20       1.0  0.52408  0.06156  0.00390  1.0000
  O   O1        1.0  0.59915  0.49855  0.74639  1.0000
  O   O2        1.0  0.40085  0.50145  0.25362  1.0000
  O   O3        1.0  0.92189  0.58913  0.59834  1.0000
  O   O4        1.0  0.07811  0.41087  0.40166  1.0000
  O   O5        1.0  0.11771  0.73090  0.35432  1.0000
  O   O6        1.0  0.88230  0.26910  0.64568  1.0000
  O   O7        1.0  0.08295  0.58762  0.71809  1.0000
  O   O8        1.0  0.91705  0.41239  0.28191  1.0000
  O   O9        1.0  0.76204  0.19964  0.48026  1.0000
  O   O10       1.0  0.23796  0.80036  0.51974  1.0000
  O   O11       1.0  0.56807  0.72199  0.58393  1.0000
  O   O12       1.0  0.43193  0.27801  0.41607  1.0000
  O   O13       1.0  0.54839  0.59375  0.39454  1.0000
  O   O14       1.0  0.45161  0.40625  0.60546  1.0000
  O   O15       1.0  0.84613  0.71211  0.36159  1.0000
  O   O16       1.0  0.15387  0.28789  0.63842  1.0000
  O   O17       1.0  0.68413  0.99997  0.45982  1.0000
  O   O18       1.0  0.31587  0.00003  0.54018  1.0000
  O   O19       1.0  0.53365  0.88846  0.71411  1.0000
  O   O20       1.0  0.46635  0.11154  0.28589  1.0000
  O   O21       1.0  0.81561  0.94179  0.20339  1.0000
  O   O22       1.0  0.18440  0.05821  0.79661  1.0000
  O   O23       1.0  0.49670  0.82209  0.19265  1.0000
  O   O24       1.0  0.50330  0.17791  0.80735  1.0000
  O   O25       1.0  0.39335  0.71176  0.08197  1.0000
  O   O26       1.0  0.60665  0.28824  0.91803  1.0000
