data_image0
_chemical_formula_structural       Pr4H20C20O26
_chemical_formula_sum              "Pr4 H20 C20 O26"
_cell_length_a       8.31657
_cell_length_b       9.43677
_cell_length_c       11.6026
_cell_angle_alpha    79.6721
_cell_angle_beta     70.0101
_cell_angle_gamma    75.5023

_space_group_name_H-M_alt    "P 1"
_space_group_IT_number       1

loop_
  _space_group_symop_operation_xyz
  'x, y, z'

loop_
  _atom_site_type_symbol
  _atom_site_label
  _atom_site_symmetry_multiplicity
  _atom_site_fract_x
  _atom_site_fract_y
  _atom_site_fract_z
  _atom_site_occupancy
  Pr  Pr1       1.0  0.24994  0.02857  0.48674  1.0000
  Pr  Pr2       1.0  0.75007  0.97143  0.51325  1.0000
  Pr  Pr3       1.0  0.45187  0.64673  0.62831  1.0000
  Pr  Pr4       1.0  0.54813  0.35328  0.37169  1.0000
  H   H1        1.0  0.50919  0.84650  0.12890  1.0000
  H   H2        1.0  0.49081  0.15350  0.87110  1.0000
  H   H3        1.0  0.21819  0.95752  0.11039  1.0000
  H   H4        1.0  0.78181  0.04248  0.88961  1.0000
  H   H5        1.0  0.23935  0.76714  0.15413  1.0000
  H   H6        1.0  0.76065  0.23286  0.84587  1.0000
  H   H7        1.0  0.04312  0.34162  0.75055  1.0000
  H   H8        1.0  0.95689  0.65838  0.24944  1.0000
  H   H9        1.0  0.93173  0.46459  0.65698  1.0000
  H   H10       1.0  0.06827  0.53541  0.34302  1.0000
  H   H11       1.0  0.91724  0.58508  0.83299  1.0000
  H   H12       1.0  0.08276  0.41491  0.16701  1.0000
  H   H13       1.0  0.53611  0.57867  0.09131  1.0000
  H   H14       1.0  0.46388  0.42133  0.90869  1.0000
  H   H15       1.0  0.38666  0.09040  0.18578  1.0000
  H   H16       1.0  0.61334  0.90959  0.81423  1.0000
  H   H17       1.0  0.21373  0.45424  0.83396  1.0000
  H   H18       1.0  0.78627  0.54575  0.16604  1.0000
  H   H19       1.0  0.42173  0.94049  0.68714  1.0000
  H   H20       1.0  0.57827  0.05950  0.31285  1.0000
  C   C1        1.0  0.43275  0.74467  0.31338  1.0000
  C   C2        1.0  0.56725  0.25533  0.68662  1.0000
  C   C3        1.0  0.39963  0.86922  0.21435  1.0000
  C   C4        1.0  0.60037  0.13078  0.78565  1.0000
  C   C5        1.0  0.23118  0.87212  0.18668  1.0000
  C   C6        1.0  0.76883  0.12788  0.81332  1.0000
  C   C7        1.0  0.06593  0.90069  0.29513  1.0000
  C   C8        1.0  0.93408  0.09931  0.70487  1.0000
  C   C9        1.0  0.20882  0.41222  0.57664  1.0000
  C   C10       1.0  0.79118  0.58779  0.42335  1.0000
  C   C11       1.0  0.04803  0.44382  0.68740  1.0000
  C   C12       1.0  0.95197  0.55618  0.31260  1.0000
  C   C13       1.0  0.03780  0.57388  0.75378  1.0000
  C   C14       1.0  0.96220  0.42612  0.24622  1.0000
  C   C15       1.0  0.02540  0.72164  0.67197  1.0000
  C   C16       1.0  0.97459  0.27836  0.32803  1.0000
  C   C17       1.0  0.54833  0.68286  0.90319  1.0000
  C   C18       1.0  0.45166  0.31715  0.09681  1.0000
  C   C19       1.0  0.52124  0.56206  0.00514  1.0000
  C   C20       1.0  0.47875  0.43794  0.99486  1.0000
  O   O1        1.0  0.39704  0.00411  0.25356  1.0000
  O   O2        1.0  0.60296  0.99589  0.74644  1.0000
  O   O3        1.0  0.07899  0.91122  0.40109  1.0000
  O   O4        1.0  0.92101  0.08878  0.59892  1.0000
  O   O5        1.0  0.88704  0.76672  0.64480  1.0000
  O   O6        1.0  0.11296  0.23328  0.35520  1.0000
  O   O7        1.0  0.91894  0.91146  0.28199  1.0000
  O   O8        1.0  0.08107  0.08854  0.71801  1.0000
  O   O9        1.0  0.23841  0.30140  0.51944  1.0000
  O   O10       1.0  0.76159  0.69861  0.48056  1.0000
  O   O11       1.0  0.43105  0.77914  0.41546  1.0000
  O   O12       1.0  0.56896  0.22086  0.58454  1.0000
  O   O13       1.0  0.45200  0.90645  0.60612  1.0000
  O   O14       1.0  0.54801  0.09355  0.39388  1.0000
  O   O15       1.0  0.15481  0.78667  0.63964  1.0000
  O   O16       1.0  0.84519  0.21333  0.36036  1.0000
  O   O17       1.0  0.31583  0.50009  0.54021  1.0000
  O   O18       1.0  0.68417  0.49991  0.45979  1.0000
  O   O19       1.0  0.46382  0.61477  0.28554  1.0000
  O   O20       1.0  0.53618  0.38523  0.71446  1.0000
  O   O21       1.0  0.18615  0.55499  0.79715  1.0000
  O   O22       1.0  0.81385  0.44501  0.20285  1.0000
  O   O23       1.0  0.50920  0.67717  0.80701  1.0000
  O   O24       1.0  0.49079  0.32283  0.19299  1.0000
  O   O25       1.0  0.61060  0.78555  0.91872  1.0000
  O   O26       1.0  0.38940  0.21445  0.08129  1.0000
