data_image0
_chemical_formula_structural       Zn2H32C64N8Cl8O8
_chemical_formula_sum              "Zn2 H32 C64 N8 Cl8 O8"
_cell_length_a       9.08558
_cell_length_b       10.014
_cell_length_c       16.7904
_cell_angle_alpha    95.3939
_cell_angle_beta     90.7412
_cell_angle_gamma    106.46

_space_group_name_H-M_alt    "P 1"
_space_group_IT_number       1

loop_
  _space_group_symop_operation_xyz
  'x, y, z'

loop_
  _atom_site_type_symbol
  _atom_site_label
  _atom_site_symmetry_multiplicity
  _atom_site_fract_x
  _atom_site_fract_y
  _atom_site_fract_z
  _atom_site_occupancy
  Zn  Zn1       1.0  0.94561  0.71395  0.75636  1.0000
  Zn  Zn2       1.0  0.05438  0.28604  0.24363  1.0000
  H   H1        1.0  0.66206  0.76305  0.85079  1.0000
  H   H2        1.0  0.33793  0.23694  0.14920  1.0000
  H   H3        1.0  0.49626  0.92573  0.84615  1.0000
  H   H4        1.0  0.50374  0.07425  0.15385  1.0000
  H   H5        1.0  0.56821  0.12052  0.75694  1.0000
  H   H6        1.0  0.43179  0.87948  0.24306  1.0000
  H   H7        1.0  0.74164  0.23400  0.65043  1.0000
  H   H8        1.0  0.25837  0.76601  0.34958  1.0000
  H   H9        1.0  0.96679  0.24104  0.56576  1.0000
  H   H10       1.0  0.03322  0.75897  0.43425  1.0000
  H   H11       1.0  0.18951  0.15404  0.52998  1.0000
  H   H12       1.0  0.81051  0.84597  0.47003  1.0000
  H   H13       1.0  0.35100  0.99375  0.55776  1.0000
  H   H14       1.0  0.64901  0.00625  0.44224  1.0000
  H   H15       1.0  0.26574  0.82446  0.65988  1.0000
  H   H16       1.0  0.73425  0.17552  0.34011  1.0000
  H   H17       1.0  0.02563  0.96111  0.91019  1.0000
  H   H18       1.0  0.97433  0.03887  0.08981  1.0000
  H   H19       1.0  0.19650  0.01138  0.03456  1.0000
  H   H20       1.0  0.80346  0.98861  0.96543  1.0000
  H   H21       1.0  0.37072  0.86047  0.05392  1.0000
  H   H22       1.0  0.62924  0.13953  0.94609  1.0000
  H   H23       1.0  0.47781  0.66876  0.99680  1.0000
  H   H24       1.0  0.52217  0.33125  0.00321  1.0000
  H   H25       1.0  0.49998  0.50262  0.87971  1.0000
  H   H26       1.0  0.50003  0.49740  0.12030  1.0000
  H   H27       1.0  0.42502  0.40514  0.73761  1.0000
  H   H28       1.0  0.57500  0.59487  0.26240  1.0000
  H   H29       1.0  0.23950  0.37602  0.61911  1.0000
  H   H30       1.0  0.76053  0.62399  0.38089  1.0000
  H   H31       1.0  0.03541  0.49997  0.62918  1.0000
  H   H32       1.0  0.96461  0.50003  0.37081  1.0000
  C   C1        1.0  0.68986  0.84989  0.81377  1.0000
  C   C2        1.0  0.31014  0.15010  0.18622  1.0000
  C   C3        1.0  0.59727  0.94068  0.81001  1.0000
  C   C4        1.0  0.40273  0.05931  0.18999  1.0000
  C   C5        1.0  0.63583  0.04671  0.76020  1.0000
  C   C6        1.0  0.36417  0.95329  0.23980  1.0000
  C   C7        1.0  0.76616  0.06041  0.71313  1.0000
  C   C8        1.0  0.23385  0.93959  0.28687  1.0000
  C   C9        1.0  0.85473  0.96596  0.72225  1.0000
  C   C10       1.0  0.14527  0.03404  0.27776  1.0000
  C   C11       1.0  0.81010  0.16166  0.65660  1.0000
  C   C12       1.0  0.18991  0.83834  0.34340  1.0000
  C   C13       1.0  0.93440  0.16723  0.61064  1.0000
  C   C14       1.0  0.06562  0.83277  0.38936  1.0000
  C   C15       1.0  0.02854  0.07630  0.62017  1.0000
  C   C16       1.0  0.97148  0.92370  0.37983  1.0000
  C   C17       1.0  0.99019  0.97655  0.67664  1.0000
  C   C18       1.0  0.00983  0.02345  0.32337  1.0000
  C   C19       1.0  0.16087  0.08126  0.57574  1.0000
  C   C20       1.0  0.83915  0.91874  0.42427  1.0000
  C   C21       1.0  0.24840  0.99309  0.59083  1.0000
  C   C22       1.0  0.75161  0.00690  0.40918  1.0000
  C   C23       1.0  0.20088  0.89754  0.64823  1.0000
  C   C24       1.0  0.79912  0.10245  0.35177  1.0000
  C   C25       1.0  0.10535  0.89993  0.91962  1.0000
  C   C26       1.0  0.89462  0.10005  0.08038  1.0000
  C   C27       1.0  0.20163  0.92787  0.98918  1.0000
  C   C28       1.0  0.79834  0.07213  0.01082  1.0000
  C   C29       1.0  0.29952  0.84675  0.99934  1.0000
  C   C30       1.0  0.70046  0.15326  0.00066  1.0000
  C   C31       1.0  0.30595  0.74192  0.93811  1.0000
  C   C32       1.0  0.69402  0.25809  0.06190  1.0000
  C   C33       1.0  0.20574  0.72268  0.86973  1.0000
  C   C34       1.0  0.79424  0.27732  0.13027  1.0000
  C   C35       1.0  0.40876  0.65750  0.94173  1.0000
  C   C36       1.0  0.59123  0.34252  0.05828  1.0000
  C   C37       1.0  0.41946  0.56525  0.87819  1.0000
  C   C38       1.0  0.58054  0.43476  0.12182  1.0000
  C   C39       1.0  0.32419  0.54730  0.80712  1.0000
  C   C40       1.0  0.67581  0.45271  0.19288  1.0000
  C   C41       1.0  0.21206  0.62072  0.80426  1.0000
  C   C42       1.0  0.78794  0.37928  0.19574  1.0000
  C   C43       1.0  0.33546  0.45836  0.73827  1.0000
  C   C44       1.0  0.66456  0.54165  0.26174  1.0000
  C   C45       1.0  0.23410  0.44230  0.67357  1.0000
  C   C46       1.0  0.76593  0.55772  0.32644  1.0000
  C   C47       1.0  0.12028  0.51295  0.67797  1.0000
  C   C48       1.0  0.87974  0.48706  0.32203  1.0000
  C   C49       1.0  0.79963  0.63197  0.58399  1.0000
  C   C50       1.0  0.20038  0.36803  0.41599  1.0000
  C   C51       1.0  0.64344  0.56380  0.54112  1.0000
  C   C52       1.0  0.35657  0.43620  0.45887  1.0000
  C   C53       1.0  0.61303  0.43076  0.49930  1.0000
  C   C54       1.0  0.38698  0.56926  0.50068  1.0000
  C   C55       1.0  0.47091  0.36759  0.45873  1.0000
  C   C56       1.0  0.52911  0.63243  0.54125  1.0000
  C   C57       1.0  0.77037  0.47747  0.86934  1.0000
  C   C58       1.0  0.22961  0.52253  0.13066  1.0000
  C   C59       1.0  0.89324  0.49247  0.93559  1.0000
  C   C60       1.0  0.10674  0.50752  0.06441  1.0000
  C   C61       1.0  0.98972  0.40510  0.93262  1.0000
  C   C62       1.0  0.01027  0.59489  0.06738  1.0000
  C   C63       1.0  0.09421  0.41200  0.99632  1.0000
  C   C64       1.0  0.90578  0.58800  0.00368  1.0000
  N   N1        1.0  0.81554  0.86334  0.77183  1.0000
  N   N2        1.0  0.18445  0.13665  0.22817  1.0000
  N   N3        1.0  0.07470  0.88813  0.68902  1.0000
  N   N4        1.0  0.92530  0.11186  0.31098  1.0000
  N   N5        1.0  0.10543  0.79892  0.86235  1.0000
  N   N6        1.0  0.89454  0.20107  0.13764  1.0000
  N   N7        1.0  0.11083  0.60053  0.74109  1.0000
  N   N8        1.0  0.88917  0.39946  0.25891  1.0000
  Cl  Cl1       1.0  0.75508  0.34744  0.49664  1.0000
  Cl  Cl2       1.0  0.24493  0.65258  0.50335  1.0000
  Cl  Cl3       1.0  0.43478  0.20283  0.40764  1.0000
  Cl  Cl4       1.0  0.56523  0.79719  0.59235  1.0000
  Cl  Cl5       1.0  0.97862  0.28777  0.84918  1.0000
  Cl  Cl6       1.0  0.02137  0.71223  0.15082  1.0000
  Cl  Cl7       1.0  0.21086  0.30206  0.98994  1.0000
  Cl  Cl8       1.0  0.78913  0.69794  0.01006  1.0000
  O   O1        1.0  0.80336  0.60958  0.65740  1.0000
  O   O2        1.0  0.19664  0.39041  0.34258  1.0000
  O   O3        1.0  0.90420  0.69930  0.54335  1.0000
  O   O4        1.0  0.09582  0.30070  0.45664  1.0000
  O   O5        1.0  0.78972  0.57526  0.82388  1.0000
  O   O6        1.0  0.21027  0.42474  0.17612  1.0000
  O   O7        1.0  0.65658  0.37139  0.86805  1.0000
  O   O8        1.0  0.34340  0.62861  0.13195  1.0000
