data_image0
_chemical_formula_structural       CuH42C32N6O8
_chemical_formula_sum              "Cu1 H42 C32 N6 O8"
_cell_length_a       6.75767
_cell_length_b       10.8478
_cell_length_c       11.3803
_cell_angle_alpha    86.0508
_cell_angle_beta     87.2471
_cell_angle_gamma    78.8777

_space_group_name_H-M_alt    "P 1"
_space_group_IT_number       1

loop_
  _space_group_symop_operation_xyz
  'x, y, z'

loop_
  _atom_site_type_symbol
  _atom_site_label
  _atom_site_symmetry_multiplicity
  _atom_site_fract_x
  _atom_site_fract_y
  _atom_site_fract_z
  _atom_site_occupancy
  Cu  Cu1       1.0  0.99998  0.00002  0.99998  1.0000
  H   H1        1.0  0.93188  0.08764  0.56650  1.0000
  H   H2        1.0  0.06804  0.91225  0.43347  1.0000
  H   H3        1.0  0.09786  0.00721  0.75207  1.0000
  H   H4        1.0  0.90224  0.99296  0.24795  1.0000
  H   H5        1.0  0.57737  0.13947  0.95166  1.0000
  H   H6        1.0  0.42264  0.86057  0.04834  1.0000
  H   H7        1.0  0.39079  0.22820  0.77514  1.0000
  H   H8        1.0  0.60924  0.77189  0.22485  1.0000
  H   H9        1.0  0.68088  0.38859  0.35228  1.0000
  H   H10       1.0  0.31927  0.61135  0.64767  1.0000
  H   H11       1.0  0.56014  0.39473  0.21655  1.0000
  H   H12       1.0  0.43985  0.60522  0.78345  1.0000
  H   H13       1.0  0.76608  0.27078  0.24735  1.0000
  H   H14       1.0  0.23390  0.72915  0.75258  1.0000
  H   H15       1.0  0.57337  0.11876  0.20309  1.0000
  H   H16       1.0  0.42662  0.88123  0.79691  1.0000
  H   H17       1.0  0.34463  0.22654  0.18032  1.0000
  H   H18       1.0  0.65536  0.77346  0.81970  1.0000
  H   H19       1.0  0.35074  0.09613  0.28464  1.0000
  H   H20       1.0  0.64926  0.90386  0.71537  1.0000
  H   H21       1.0  0.17796  0.15603  0.45705  1.0000
  H   H22       1.0  0.82203  0.84397  0.54295  1.0000
  H   H23       1.0  0.05615  0.25605  0.34077  1.0000
  H   H24       1.0  0.94388  0.74396  0.65922  1.0000
  H   H25       1.0  0.01691  0.30180  0.48853  1.0000
  H   H26       1.0  0.98311  0.69820  0.51147  1.0000
  H   H27       1.0  0.10867  0.50431  0.41921  1.0000
  H   H28       1.0  0.89137  0.49568  0.58080  1.0000
  H   H29       1.0  0.19517  0.46392  0.27554  1.0000
  H   H30       1.0  0.80487  0.53606  0.72448  1.0000
  H   H31       1.0  0.36124  0.51389  0.37099  1.0000
  H   H32       1.0  0.63881  0.48610  0.62902  1.0000
  H   H33       1.0  0.98958  0.62498  0.86201  1.0000
  H   H34       1.0  0.01043  0.37504  0.13798  1.0000
  H   H35       1.0  0.29388  0.60871  0.97802  1.0000
  H   H36       1.0  0.70612  0.39131  0.02198  1.0000
  H   H37       1.0  0.15517  0.58060  0.10923  1.0000
  H   H38       1.0  0.84482  0.41941  0.89077  1.0000
  H   H39       1.0  0.65219  0.62270  0.96520  1.0000
  H   H40       1.0  0.34781  0.37731  0.03478  1.0000
  H   H41       1.0  0.77104  0.58917  0.10086  1.0000
  H   H42       1.0  0.22895  0.41084  0.89912  1.0000
  C   C1        1.0  0.64699  0.16750  0.65385  1.0000
  C   C2        1.0  0.35301  0.83249  0.34614  1.0000
  C   C3        1.0  0.84873  0.10345  0.64961  1.0000
  C   C4        1.0  0.15127  0.89651  0.35038  1.0000
  C   C5        1.0  0.94223  0.05764  0.75359  1.0000
  C   C6        1.0  0.05782  0.94242  0.24640  1.0000
  C   C7        1.0  0.65207  0.13171  0.86486  1.0000
  C   C8        1.0  0.34794  0.86834  0.13514  1.0000
  C   C9        1.0  0.54757  0.18175  0.76474  1.0000
  C   C10       1.0  0.45245  0.81829  0.23527  1.0000
  C   C11       1.0  0.54720  0.21493  0.54493  1.0000
  C   C12       1.0  0.45278  0.78504  0.45509  1.0000
  C   C13       1.0  0.48890  0.24805  0.34007  1.0000
  C   C14       1.0  0.51112  0.75193  0.65994  1.0000
  C   C15       1.0  0.63417  0.33087  0.28716  1.0000
  C   C16       1.0  0.36587  0.66908  0.71282  1.0000
  C   C17       1.0  0.43524  0.16682  0.24731  1.0000
  C   C18       1.0  0.56476  0.83316  0.75269  1.0000
  C   C19       1.0  0.30669  0.32302  0.41071  1.0000
  C   C20       1.0  0.69333  0.67698  0.58931  1.0000
  C   C21       1.0  0.12848  0.25448  0.42508  1.0000
  C   C22       1.0  0.87154  0.74552  0.57492  1.0000
  C   C23       1.0  0.24057  0.45985  0.36723  1.0000
  C   C24       1.0  0.75947  0.54014  0.63279  1.0000
  C   C25       1.0  0.94000  0.77410  0.97873  1.0000
  C   C26       1.0  0.05994  0.22592  0.02126  1.0000
  C   C27       1.0  0.97040  0.63437  0.95820  1.0000
  C   C28       1.0  0.02960  0.36565  0.04179  1.0000
  C   C29       1.0  0.16774  0.56578  0.01395  1.0000
  C   C30       1.0  0.83226  0.43423  0.98604  1.0000
  C   C31       1.0  0.79327  0.57472  0.00585  1.0000
  C   C32       1.0  0.20673  0.42530  0.99413  1.0000
  N   N1        1.0  0.84545  0.07103  0.85940  1.0000
  N   N2        1.0  0.15458  0.92906  0.14060  1.0000
  N   N3        1.0  0.59605  0.16456  0.43877  1.0000
  N   N4        1.0  0.40388  0.83540  0.56125  1.0000
  N   N5        1.0  0.39277  0.31509  0.53217  1.0000
  N   N6        1.0  0.60722  0.68489  0.46785  1.0000
  O   O1        1.0  0.72027  0.06251  0.41928  1.0000
  O   O2        1.0  0.27951  0.93736  0.58079  1.0000
  O   O3        1.0  0.31433  0.38957  0.61138  1.0000
  O   O4        1.0  0.68564  0.61038  0.38866  1.0000
  O   O5        1.0  0.79773  0.82637  0.04383  1.0000
  O   O6        1.0  0.20225  0.17362  0.95620  1.0000
  O   O7        1.0  0.07468  0.83258  0.92806  1.0000
  O   O8        1.0  0.92518  0.16749  0.07189  1.0000
