data_image0
_chemical_formula_structural       Zn2H24C20N4O10
_chemical_formula_sum              "Zn2 H24 C20 N4 O10"
_cell_length_a       5.20929
_cell_length_b       9.19729
_cell_length_c       14.7145
_cell_angle_alpha    84.1748
_cell_angle_beta     85.3447
_cell_angle_gamma    79.6654

_space_group_name_H-M_alt    "P 1"
_space_group_IT_number       1

loop_
  _space_group_symop_operation_xyz
  'x, y, z'

loop_
  _atom_site_type_symbol
  _atom_site_label
  _atom_site_symmetry_multiplicity
  _atom_site_fract_x
  _atom_site_fract_y
  _atom_site_fract_z
  _atom_site_occupancy
  Zn  Zn1       1.0  0.76240  0.61881  0.65323  1.0000
  Zn  Zn2       1.0  0.23760  0.38119  0.34677  1.0000
  H   H1        1.0  0.69845  0.15560  0.59866  1.0000
  H   H2        1.0  0.30155  0.84440  0.40134  1.0000
  H   H3        1.0  0.46259  0.26003  0.52863  1.0000
  H   H4        1.0  0.53741  0.73996  0.47137  1.0000
  H   H5        1.0  0.12127  0.26024  0.65594  1.0000
  H   H6        1.0  0.87873  0.73976  0.34406  1.0000
  H   H7        1.0  0.35427  0.16949  0.73305  1.0000
  H   H8        1.0  0.64573  0.83051  0.26695  1.0000
  H   H9        1.0  0.07465  0.00175  0.66952  1.0000
  H   H10       1.0  0.92534  0.99825  0.33048  1.0000
  H   H11       1.0  0.23259  0.03345  0.56188  1.0000
  H   H12       1.0  0.76741  0.96655  0.43812  1.0000
  H   H13       1.0  0.03360  0.78463  0.76330  1.0000
  H   H14       1.0  0.96640  0.21537  0.23670  1.0000
  H   H15       1.0  0.85447  0.36219  0.79627  1.0000
  H   H16       1.0  0.14552  0.63781  0.20373  1.0000
  H   H17       1.0  0.15524  0.28606  0.92612  1.0000
  H   H18       1.0  0.84475  0.71393  0.07388  1.0000
  H   H19       1.0  0.34807  0.72612  0.88920  1.0000
  H   H20       1.0  0.65193  0.27388  0.11080  1.0000
  H   H21       1.0  0.18436  0.73439  0.59296  1.0000
  H   H22       1.0  0.81564  0.26561  0.40704  1.0000
  H   H23       1.0  0.11171  0.64016  0.51503  1.0000
  H   H24       1.0  0.88830  0.35984  0.48497  1.0000
  C   C1        1.0  0.58854  0.37860  0.62892  1.0000
  C   C2        1.0  0.41146  0.62140  0.37108  1.0000
  C   C3        1.0  0.51786  0.23905  0.59998  1.0000
  C   C4        1.0  0.48214  0.76095  0.40002  1.0000
  C   C5        1.0  0.30329  0.17944  0.66144  1.0000
  C   C6        1.0  0.69671  0.82056  0.33856  1.0000
  C   C7        1.0  0.25836  0.02996  0.63579  1.0000
  C   C8        1.0  0.74163  0.97004  0.36421  1.0000
  C   C9        1.0  0.47579  0.90176  0.66040  1.0000
  C   C10       1.0  0.52421  0.09824  0.33960  1.0000
  C   C11       1.0  0.07162  0.67560  0.80080  1.0000
  C   C12       1.0  0.92838  0.32440  0.19920  1.0000
  C   C13       1.0  0.96857  0.43813  0.81934  1.0000
  C   C14       1.0  0.03143  0.56187  0.18066  1.0000
  C   C15       1.0  0.13304  0.39705  0.89076  1.0000
  C   C16       1.0  0.86696  0.60295  0.10924  1.0000
  C   C17       1.0  0.27375  0.50055  0.91642  1.0000
  C   C18       1.0  0.72625  0.49945  0.08358  1.0000
  C   C19       1.0  0.24032  0.64353  0.87087  1.0000
  C   C20       1.0  0.75968  0.35647  0.12913  1.0000
  N   N1        1.0  0.94045  0.57440  0.77454  1.0000
  N   N2        1.0  0.05955  0.42560  0.22546  1.0000
  N   N3        1.0  0.44476  0.45018  0.98743  1.0000
  N   N4        1.0  0.55524  0.54982  0.01257  1.0000
  O   O1        1.0  0.75317  0.44459  0.57522  1.0000
  O   O2        1.0  0.24684  0.55541  0.42478  1.0000
  O   O3        1.0  0.49971  0.43058  0.70309  1.0000
  O   O4        1.0  0.50028  0.56943  0.29690  1.0000
  O   O5        1.0  0.03446  0.70210  0.56640  1.0000
  O   O6        1.0  0.96554  0.29790  0.43360  1.0000
  O   O7        1.0  0.66368  0.91608  0.70382  1.0000
  O   O8        1.0  0.33632  0.08392  0.29618  1.0000
  O   O9        1.0  0.44866  0.77343  0.63365  1.0000
  O   O10       1.0  0.55133  0.22657  0.36635  1.0000
