data_image0
_chemical_formula_structural       Ag4H16C20N8O16
_chemical_formula_sum              "Ag4 H16 C20 N8 O16"
_cell_length_a       7.99892
_cell_length_b       8.52276
_cell_length_c       11.3231
_cell_angle_alpha    73.4815
_cell_angle_beta     83.1335
_cell_angle_gamma    70.4642

_space_group_name_H-M_alt    "P 1"
_space_group_IT_number       1

loop_
  _space_group_symop_operation_xyz
  'x, y, z'

loop_
  _atom_site_type_symbol
  _atom_site_label
  _atom_site_symmetry_multiplicity
  _atom_site_fract_x
  _atom_site_fract_y
  _atom_site_fract_z
  _atom_site_occupancy
  Ag  Ag1       1.0  0.07425  0.29043  0.33385  1.0000
  Ag  Ag2       1.0  0.92575  0.70957  0.66615  1.0000
  Ag  Ag3       1.0  0.53447  0.80911  0.46571  1.0000
  Ag  Ag4       1.0  0.46553  0.19089  0.53429  1.0000
  H   H1        1.0  0.24579  0.50959  0.99356  1.0000
  H   H2        1.0  0.75422  0.49040  0.00644  1.0000
  H   H3        1.0  0.05870  0.84545  0.86846  1.0000
  H   H4        1.0  0.94131  0.15455  0.13154  1.0000
  H   H5        1.0  0.79768  0.95455  0.03534  1.0000
  H   H6        1.0  0.20232  0.04545  0.96466  1.0000
  H   H7        1.0  0.71457  0.79030  0.27540  1.0000
  H   H8        1.0  0.28543  0.20970  0.72460  1.0000
  H   H9        1.0  0.88832  0.29012  0.53800  1.0000
  H   H10       1.0  0.11168  0.70988  0.46200  1.0000
  H   H11       1.0  0.77199  0.12285  0.76827  1.0000
  H   H12       1.0  0.22800  0.87715  0.23174  1.0000
  H   H13       1.0  0.52233  0.24706  0.93882  1.0000
  H   H14       1.0  0.47767  0.75294  0.06118  1.0000
  H   H15       1.0  0.38286  0.59682  0.82502  1.0000
  H   H16       1.0  0.61714  0.40319  0.17498  1.0000
  C   C1        1.0  0.13265  0.60786  0.01886  1.0000
  C   C2        1.0  0.86736  0.39213  0.98114  1.0000
  C   C3        1.0  0.03636  0.77374  0.96149  1.0000
  C   C4        1.0  0.96365  0.22626  0.03851  1.0000
  C   C5        1.0  0.90036  0.83042  0.04699  1.0000
  C   C6        1.0  0.09965  0.16958  0.95301  1.0000
  C   C7        1.0  0.92205  0.69481  0.15222  1.0000
  C   C8        1.0  0.07795  0.30519  0.84778  1.0000
  C   C9        1.0  0.82547  0.67631  0.26562  1.0000
  C   C10       1.0  0.17453  0.32369  0.73438  1.0000
  C   C11       1.0  0.78070  0.40646  0.54709  1.0000
  C   C12       1.0  0.21930  0.59354  0.45291  1.0000
  C   C13       1.0  0.68237  0.39296  0.66057  1.0000
  C   C14       1.0  0.31763  0.60704  0.33943  1.0000
  C   C15       1.0  0.68559  0.25386  0.76129  1.0000
  C   C16       1.0  0.31441  0.74614  0.23871  1.0000
  C   C17       1.0  0.55688  0.31825  0.84858  1.0000
  C   C18       1.0  0.44311  0.68175  0.15142  1.0000
  C   C19       1.0  0.48332  0.49183  0.79641  1.0000
  C   C20       1.0  0.51668  0.50817  0.20359  1.0000
  N   N1        1.0  0.86199  0.53516  0.35548  1.0000
  N   N2        1.0  0.13800  0.46484  0.64452  1.0000
  N   N3        1.0  0.74920  0.54785  0.45752  1.0000
  N   N4        1.0  0.25080  0.45215  0.54248  1.0000
  N   N5        1.0  0.85061  0.03039  0.39522  1.0000
  N   N6        1.0  0.14939  0.96961  0.60478  1.0000
  N   N7        1.0  0.43521  0.13053  0.21921  1.0000
  N   N8        1.0  0.56479  0.86947  0.78079  1.0000
  O   O1        1.0  0.06538  0.55788  0.13450  1.0000
  O   O2        1.0  0.93462  0.44211  0.86550  1.0000
  O   O3        1.0  0.55760  0.53916  0.68291  1.0000
  O   O4        1.0  0.44240  0.46084  0.31709  1.0000
  O   O5        1.0  0.99791  0.03473  0.33903  1.0000
  O   O6        1.0  0.00209  0.96527  0.66097  1.0000
  O   O7        1.0  0.82444  0.88613  0.43790  1.0000
  O   O8        1.0  0.17556  0.11387  0.56210  1.0000
  O   O9        1.0  0.73561  0.16926  0.40760  1.0000
  O   O10       1.0  0.26439  0.83074  0.59240  1.0000
  O   O11       1.0  0.37467  0.08815  0.33236  1.0000
  O   O12       1.0  0.62533  0.91185  0.66764  1.0000
  O   O13       1.0  0.32730  0.23625  0.13960  1.0000
  O   O14       1.0  0.67270  0.76375  0.86040  1.0000
  O   O15       1.0  0.59602  0.06601  0.19407  1.0000
  O   O16       1.0  0.40398  0.93399  0.80593  1.0000
