data_image0
_chemical_formula_structural       Cd2H32C40N12O10
_chemical_formula_sum              "Cd2 H32 C40 N12 O10"
_cell_length_a       7.24643
_cell_length_b       10.3297
_cell_length_c       13.7525
_cell_angle_alpha    104.82
_cell_angle_beta     91.9178
_cell_angle_gamma    96.1726

_space_group_name_H-M_alt    "P 1"
_space_group_IT_number       1

loop_
  _space_group_symop_operation_xyz
  'x, y, z'

loop_
  _atom_site_type_symbol
  _atom_site_label
  _atom_site_symmetry_multiplicity
  _atom_site_fract_x
  _atom_site_fract_y
  _atom_site_fract_z
  _atom_site_occupancy
  Cd  Cd1       1.0  0.20442  0.78152  0.88420  1.0000
  Cd  Cd2       1.0  0.79558  0.21849  0.11580  1.0000
  H   H1        1.0  0.86002  0.83775  0.00301  1.0000
  H   H2        1.0  0.13999  0.16226  0.99699  1.0000
  H   H3        1.0  0.84547  0.68923  0.92925  1.0000
  H   H4        1.0  0.15453  0.31078  0.07075  1.0000
  H   H5        1.0  0.07639  0.16967  0.33069  1.0000
  H   H6        1.0  0.92361  0.83032  0.66931  1.0000
  H   H7        1.0  0.24842  0.16825  0.41953  1.0000
  H   H8        1.0  0.75158  0.83174  0.58047  1.0000
  H   H9        1.0  0.34649  0.05621  0.04869  1.0000
  H   H10       1.0  0.65353  0.94379  0.95132  1.0000
  H   H11       1.0  0.28872  0.66195  0.06986  1.0000
  H   H12       1.0  0.71127  0.33805  0.93014  1.0000
  H   H13       1.0  0.34745  0.73797  0.25857  1.0000
  H   H14       1.0  0.65252  0.26203  0.74143  1.0000
  H   H15       1.0  0.40116  0.98326  0.34369  1.0000
  H   H16       1.0  0.59882  0.01674  0.65631  1.0000
  H   H17       1.0  0.16320  0.42396  0.48400  1.0000
  H   H18       1.0  0.83677  0.57603  0.51599  1.0000
  H   H19       1.0  0.14246  0.63992  0.61671  1.0000
  H   H20       1.0  0.85753  0.36007  0.38329  1.0000
  H   H21       1.0  0.32321  0.85129  0.60005  1.0000
  H   H22       1.0  0.67679  0.14870  0.39995  1.0000
  H   H23       1.0  0.56488  0.64524  0.34560  1.0000
  H   H24       1.0  0.43512  0.35474  0.65440  1.0000
  H   H25       1.0  0.18673  0.29045  0.89250  1.0000
  H   H26       1.0  0.81330  0.70955  0.10750  1.0000
  H   H27       1.0  0.00529  0.39869  0.62817  1.0000
  H   H28       1.0  0.99473  0.60133  0.37184  1.0000
  H   H29       1.0  0.98782  0.15899  0.52778  1.0000
  H   H30       1.0  0.01217  0.84103  0.47222  1.0000
  H   H31       1.0  0.06914  0.98393  0.61247  1.0000
  H   H32       1.0  0.93085  0.01608  0.38753  1.0000
  C   C1        1.0  0.34784  0.98872  0.09756  1.0000
  C   C2        1.0  0.65217  0.01128  0.90244  1.0000
  C   C3        1.0  0.31636  0.76836  0.11026  1.0000
  C   C4        1.0  0.68363  0.23164  0.88974  1.0000
  C   C5        1.0  0.34772  0.81179  0.21462  1.0000
  C   C6        1.0  0.65226  0.18821  0.78538  1.0000
  C   C7        1.0  0.37614  0.94938  0.26197  1.0000
  C   C8        1.0  0.62385  0.05061  0.73803  1.0000
  C   C9        1.0  0.37653  0.04101  0.20218  1.0000
  C   C10       1.0  0.62348  0.95898  0.79782  1.0000
  C   C11       1.0  0.40841  0.18779  0.24023  1.0000
  C   C12       1.0  0.59159  0.81220  0.75976  1.0000
  C   C13       1.0  0.39182  0.39838  0.32451  1.0000
  C   C14       1.0  0.60817  0.60161  0.67549  1.0000
  C   C15       1.0  0.35974  0.51899  0.40187  1.0000
  C   C16       1.0  0.64026  0.48100  0.59812  1.0000
  C   C17       1.0  0.24140  0.51823  0.48045  1.0000
  C   C18       1.0  0.75858  0.48176  0.51955  1.0000
  C   C19       1.0  0.22905  0.63817  0.55315  1.0000
  C   C20       1.0  0.77095  0.36182  0.44684  1.0000
  C   C21       1.0  0.33317  0.75586  0.54457  1.0000
  C   C22       1.0  0.66683  0.24413  0.45543  1.0000
  C   C23       1.0  0.46431  0.64263  0.40261  1.0000
  C   C24       1.0  0.53569  0.35736  0.59738  1.0000
  C   C25       1.0  0.14036  0.25921  0.81300  1.0000
  C   C26       1.0  0.85966  0.74080  0.18701  1.0000
  C   C27       1.0  0.09746  0.35783  0.76566  1.0000
  C   C28       1.0  0.90256  0.64218  0.23435  1.0000
  C   C29       1.0  0.04025  0.32051  0.66307  1.0000
  C   C30       1.0  0.95977  0.67949  0.33694  1.0000
  C   C31       1.0  0.03059  0.18648  0.60773  1.0000
  C   C32       1.0  0.96943  0.81352  0.39227  1.0000
  C   C33       1.0  0.07348  0.08864  0.65516  1.0000
  C   C34       1.0  0.92653  0.91137  0.34484  1.0000
  C   C35       1.0  0.12494  0.12354  0.75867  1.0000
  C   C36       1.0  0.87509  0.87647  0.24134  1.0000
  C   C37       1.0  0.15812  0.01489  0.80880  1.0000
  C   C38       1.0  0.84188  0.98511  0.19120  1.0000
  C   C39       1.0  0.11639  0.50403  0.82243  1.0000
  C   C40       1.0  0.88362  0.49599  0.17757  1.0000
  N   N1        1.0  0.31600  0.85637  0.05288  1.0000
  N   N2        1.0  0.68400  0.14363  0.94712  1.0000
  N   N3        1.0  0.52034  0.26924  0.20113  1.0000
  N   N4        1.0  0.47965  0.73076  0.79887  1.0000
  N   N5        1.0  0.51048  0.40000  0.25313  1.0000
  N   N6        1.0  0.48951  0.60000  0.74688  1.0000
  N   N7        1.0  0.32365  0.26603  0.31812  1.0000
  N   N8        1.0  0.67635  0.73396  0.68187  1.0000
  N   N9        1.0  0.18970  0.22293  0.37703  1.0000
  N   N10       1.0  0.81030  0.77706  0.62297  1.0000
  N   N11       1.0  0.45147  0.75885  0.47143  1.0000
  N   N12       1.0  0.54854  0.24114  0.52857  1.0000
  O   O1        1.0  0.13731  0.89254  0.75508  1.0000
  O   O2        1.0  0.86269  0.10746  0.24491  1.0000
  O   O3        1.0  0.20489  0.04430  0.90271  1.0000
  O   O4        1.0  0.79509  0.95569  0.09729  1.0000
  O   O5        1.0  0.19147  0.54078  0.91107  1.0000
  O   O6        1.0  0.80853  0.45924  0.08893  1.0000
  O   O7        1.0  0.05680  0.58565  0.77539  1.0000
  O   O8        1.0  0.94320  0.41436  0.22461  1.0000
  O   O9        1.0  0.89321  0.78297  0.93598  1.0000
  O   O10       1.0  0.10680  0.21703  0.06402  1.0000
