data_image0
_chemical_formula_structural       Cu2H28C40N12O8
_chemical_formula_sum              "Cu2 H28 C40 N12 O8"
_cell_length_a       9.1717
_cell_length_b       10.1414
_cell_length_c       10.7746
_cell_angle_alpha    72.0074
_cell_angle_beta     85.7092
_cell_angle_gamma    76.2869

_space_group_name_H-M_alt    "P 1"
_space_group_IT_number       1

loop_
  _space_group_symop_operation_xyz
  'x, y, z'

loop_
  _atom_site_type_symbol
  _atom_site_label
  _atom_site_symmetry_multiplicity
  _atom_site_fract_x
  _atom_site_fract_y
  _atom_site_fract_z
  _atom_site_occupancy
  Cu  Cu1       1.0  0.67806  0.58751  0.56439  1.0000
  Cu  Cu2       1.0  0.32193  0.41249  0.43561  1.0000
  H   H1        1.0  0.58506  0.84484  0.36415  1.0000
  H   H2        1.0  0.41495  0.15516  0.63585  1.0000
  H   H3        1.0  0.05837  0.75745  0.72145  1.0000
  H   H4        1.0  0.94162  0.24255  0.27856  1.0000
  H   H5        1.0  0.16684  0.96391  0.72159  1.0000
  H   H6        1.0  0.83315  0.03609  0.27842  1.0000
  H   H7        1.0  0.64312  0.04514  0.57364  1.0000
  H   H8        1.0  0.35688  0.95486  0.42635  1.0000
  H   H9        1.0  0.86286  0.05872  0.01145  1.0000
  H   H10       1.0  0.13714  0.94129  0.98856  1.0000
  H   H11       1.0  0.77462  0.06711  0.87781  1.0000
  H   H12       1.0  0.22539  0.93289  0.12219  1.0000
  H   H13       1.0  0.85247  0.82370  0.01971  1.0000
  H   H14       1.0  0.14753  0.17629  0.98029  1.0000
  H   H15       1.0  0.92223  0.48511  0.38310  1.0000
  H   H16       1.0  0.07778  0.51489  0.61690  1.0000
  H   H17       1.0  0.99886  0.58519  0.15543  1.0000
  H   H18       1.0  0.00115  0.41481  0.84457  1.0000
  H   H19       1.0  0.00424  0.21028  0.65285  1.0000
  H   H20       1.0  0.99576  0.78971  0.34716  1.0000
  H   H21       1.0  0.68625  0.33091  0.79130  1.0000
  H   H22       1.0  0.31374  0.66909  0.20870  1.0000
  H   H23       1.0  0.23914  0.67816  0.86019  1.0000
  H   H24       1.0  0.76086  0.32185  0.13981  1.0000
  H   H25       1.0  0.42243  0.73853  0.67588  1.0000
  H   H26       1.0  0.57756  0.26147  0.32411  1.0000
  H   H27       1.0  0.28574  0.42856  0.01330  1.0000
  H   H28       1.0  0.71426  0.57145  0.98671  1.0000
  C   C1        1.0  0.79146  0.76116  0.64560  1.0000
  C   C2        1.0  0.20854  0.23884  0.35439  1.0000
  C   C3        1.0  0.84472  0.88856  0.65050  1.0000
  C   C4        1.0  0.15528  0.11144  0.34949  1.0000
  C   C5        1.0  0.67497  0.79128  0.31337  1.0000
  C   C6        1.0  0.32503  0.20872  0.68663  1.0000
  C   C7        1.0  0.51528  0.21599  0.00619  1.0000
  C   C8        1.0  0.48472  0.78401  0.99381  1.0000
  C   C9        1.0  0.70784  0.85604  0.18263  1.0000
  C   C10       1.0  0.29217  0.14396  0.81737  1.0000
  C   C11       1.0  0.60919  0.99413  0.12154  1.0000
  C   C12       1.0  0.39081  0.00587  0.87846  1.0000
  C   C13       1.0  0.99160  0.86633  0.69327  1.0000
  C   C14       1.0  0.00840  0.13366  0.30673  1.0000
  C   C15       1.0  0.05022  0.98094  0.69407  1.0000
  C   C16       1.0  0.94978  0.01906  0.30594  1.0000
  C   C17       1.0  0.75654  0.02696  0.60858  1.0000
  C   C18       1.0  0.24346  0.97304  0.39141  1.0000
  C   C19       1.0  0.82639  0.78149  0.12266  1.0000
  C   C20       1.0  0.17361  0.21851  0.87734  1.0000
  C   C21       1.0  0.86373  0.59003  0.32460  1.0000
  C   C22       1.0  0.13627  0.40997  0.67540  1.0000
  C   C23       1.0  0.90543  0.64804  0.19568  1.0000
  C   C24       1.0  0.09458  0.35196  0.80432  1.0000
  C   C25       1.0  0.96124  0.11888  0.65369  1.0000
  C   C26       1.0  0.03876  0.88112  0.34631  1.0000
  C   C27       1.0  0.81364  0.14251  0.61133  1.0000
  C   C28       1.0  0.18636  0.85749  0.38866  1.0000
  C   C29       1.0  0.71513  0.29081  0.57106  1.0000
  C   C30       1.0  0.28487  0.70919  0.42894  1.0000
  C   C31       1.0  0.48952  0.35901  0.91446  1.0000
  C   C32       1.0  0.51048  0.64100  0.08555  1.0000
  C   C33       1.0  0.58473  0.40267  0.80964  1.0000
  C   C34       1.0  0.41527  0.59734  0.19036  1.0000
  C   C35       1.0  0.33569  0.59721  0.84701  1.0000
  C   C36       1.0  0.66430  0.40279  0.15298  1.0000
  C   C37       1.0  0.43594  0.63238  0.74517  1.0000
  C   C38       1.0  0.56406  0.36762  0.25483  1.0000
  C   C39       1.0  0.36103  0.45963  0.93183  1.0000
  C   C40       1.0  0.63897  0.54038  0.06817  1.0000
  N   N1        1.0  0.74968  0.66123  0.38147  1.0000
  N   N2        1.0  0.25032  0.33877  0.61853  1.0000
  N   N3        1.0  0.46957  0.03315  0.16249  1.0000
  N   N4        1.0  0.53043  0.96685  0.83751  1.0000
  N   N5        1.0  0.64210  0.10701  0.02214  1.0000
  N   N6        1.0  0.35790  0.89299  0.97787  1.0000
  N   N7        1.0  0.41122  0.17009  0.09064  1.0000
  N   N8        1.0  0.58878  0.82991  0.90936  1.0000
  N   N9        1.0  0.77486  0.11405  0.94971  1.0000
  N   N10       1.0  0.22514  0.88595  0.05029  1.0000
  N   N11       1.0  0.55666  0.53509  0.72663  1.0000
  N   N12       1.0  0.44334  0.46491  0.27337  1.0000
  O   O1        1.0  0.66798  0.78427  0.58316  1.0000
  O   O2        1.0  0.33201  0.21573  0.41685  1.0000
  O   O3        1.0  0.87054  0.63866  0.69635  1.0000
  O   O4        1.0  0.12946  0.36134  0.30365  1.0000
  O   O5        1.0  0.58133  0.30874  0.54097  1.0000
  O   O6        1.0  0.41868  0.69126  0.45903  1.0000
  O   O7        1.0  0.78017  0.38988  0.57524  1.0000
  O   O8        1.0  0.21984  0.61012  0.42476  1.0000
