data_image0
_chemical_formula_structural       Ni4H48C28N8O16
_chemical_formula_sum              "Ni4 H48 C28 N8 O16"
_cell_length_a       7.79384
_cell_length_b       10.8932
_cell_length_c       10.8934
_cell_angle_alpha    91.1606
_cell_angle_beta     90.0107
_cell_angle_gamma    89.9892

_space_group_name_H-M_alt    "P 1"
_space_group_IT_number       1

loop_
  _space_group_symop_operation_xyz
  'x, y, z'

loop_
  _atom_site_type_symbol
  _atom_site_label
  _atom_site_symmetry_multiplicity
  _atom_site_fract_x
  _atom_site_fract_y
  _atom_site_fract_z
  _atom_site_occupancy
  Ni  Ni1       1.0  0.88380  0.93703  0.06296  1.0000
  Ni  Ni2       1.0  0.09396  0.44917  0.55083  1.0000
  Ni  Ni3       1.0  0.88403  0.56326  0.43674  1.0000
  Ni  Ni4       1.0  0.09403  0.05095  0.94905  1.0000
  H   H1        1.0  0.36475  0.71037  0.85083  1.0000
  H   H2        1.0  0.64744  0.19298  0.35179  1.0000
  H   H3        1.0  0.36495  0.34980  0.21161  1.0000
  H   H4        1.0  0.36476  0.14917  0.28963  1.0000
  H   H5        1.0  0.64793  0.30657  0.14914  1.0000
  H   H6        1.0  0.36494  0.78841  0.65019  1.0000
  H   H7        1.0  0.64743  0.64821  0.80701  1.0000
  H   H8        1.0  0.64792  0.85086  0.69343  1.0000
  H   H9        1.0  0.16580  0.62901  0.85480  1.0000
  H   H10       1.0  0.85392  0.12400  0.36938  1.0000
  H   H11       1.0  0.16660  0.35370  0.12948  1.0000
  H   H12       1.0  0.16581  0.14520  0.37099  1.0000
  H   H13       1.0  0.85384  0.37615  0.13075  1.0000
  H   H14       1.0  0.16657  0.87053  0.64628  1.0000
  H   H15       1.0  0.85391  0.63062  0.87598  1.0000
  H   H16       1.0  0.85383  0.86926  0.62385  1.0000
  H   H17       1.0  0.29801  0.63658  0.98825  1.0000
  H   H18       1.0  0.71245  0.13681  0.49768  1.0000
  H   H19       1.0  0.29936  0.48685  0.13658  1.0000
  H   H20       1.0  0.29801  0.01174  0.36341  1.0000
  H   H21       1.0  0.71122  0.36318  0.00306  1.0000
  H   H22       1.0  0.29934  0.86342  0.51313  1.0000
  H   H23       1.0  0.71244  0.50232  0.86318  1.0000
  H   H24       1.0  0.71121  0.99695  0.63682  1.0000
  H   H25       1.0  0.90424  0.69160  0.19126  1.0000
  H   H26       1.0  0.09400  0.19174  0.69128  1.0000
  H   H27       1.0  0.90424  0.80874  0.30840  1.0000
  H   H28       1.0  0.09400  0.30873  0.80827  1.0000
  H   H29       1.0  0.68572  0.96440  0.30981  1.0000
  H   H30       1.0  0.31209  0.46398  0.80973  1.0000
  H   H31       1.0  0.68598  0.81029  0.46390  1.0000
  H   H32       1.0  0.68572  0.69020  0.03560  1.0000
  H   H33       1.0  0.31188  0.03652  0.68982  1.0000
  H   H34       1.0  0.68598  0.53610  0.18970  1.0000
  H   H35       1.0  0.31210  0.19027  0.53604  1.0000
  H   H36       1.0  0.31187  0.31019  0.96348  1.0000
  H   H37       1.0  0.52402  0.96365  0.19349  1.0000
  H   H38       1.0  0.47372  0.46360  0.69338  1.0000
  H   H39       1.0  0.52436  0.69397  0.46346  1.0000
  H   H40       1.0  0.52402  0.80651  0.03635  1.0000
  H   H41       1.0  0.47349  0.03656  0.80627  1.0000
  H   H42       1.0  0.52436  0.53653  0.30602  1.0000
  H   H43       1.0  0.47372  0.30663  0.53642  1.0000
  H   H44       1.0  0.47348  0.19375  0.96345  1.0000
  H   H45       1.0  0.30505  0.80746  0.19255  1.0000
  H   H46       1.0  0.69302  0.30736  0.69265  1.0000
  H   H47       1.0  0.30493  0.69295  0.30704  1.0000
  H   H48       1.0  0.69306  0.19282  0.80720  1.0000
  C   C1        1.0  0.16035  0.80125  0.95125  1.0000
  C   C2        1.0  0.83131  0.30576  0.44745  1.0000
  C   C3        1.0  0.16064  0.45113  0.30122  1.0000
  C   C4        1.0  0.16035  0.04874  0.19875  1.0000
  C   C5        1.0  0.83127  0.19437  0.05253  1.0000
  C   C6        1.0  0.16066  0.69878  0.54887  1.0000
  C   C7        1.0  0.83130  0.55254  0.69423  1.0000
  C   C8        1.0  0.83128  0.94747  0.80563  1.0000
  C   C9        1.0  0.25446  0.68761  0.90805  1.0000
  C   C10       1.0  0.75620  0.18212  0.41410  1.0000
  C   C11       1.0  0.25510  0.40716  0.18803  1.0000
  C   C12       1.0  0.25445  0.09195  0.31239  1.0000
  C   C13       1.0  0.75603  0.31785  0.08637  1.0000
  C   C14       1.0  0.25509  0.81198  0.59283  1.0000
  C   C15       1.0  0.75619  0.58590  0.81787  1.0000
  C   C16       1.0  0.75603  0.91363  0.68215  1.0000
  C   C17       1.0  0.82301  0.75017  0.24983  1.0000
  C   C18       1.0  0.17576  0.25020  0.74981  1.0000
  C   C19       1.0  0.60328  0.90570  0.25202  1.0000
  C   C20       1.0  0.39411  0.40532  0.75152  1.0000
  C   C21       1.0  0.60345  0.75242  0.40536  1.0000
  C   C22       1.0  0.60328  0.74798  0.09430  1.0000
  C   C23       1.0  0.39399  0.09498  0.74817  1.0000
  C   C24       1.0  0.60345  0.59464  0.24757  1.0000
  C   C25       1.0  0.39411  0.24848  0.59469  1.0000
  C   C26       1.0  0.39398  0.25185  0.90503  1.0000
  C   C27       1.0  0.38744  0.75017  0.24983  1.0000
  C   C28       1.0  0.61049  0.25009  0.74992  1.0000
  N   N1        1.0  0.71584  0.82892  0.17108  1.0000
  N   N2        1.0  0.28219  0.32887  0.67113  1.0000
  N   N3        1.0  0.71597  0.67140  0.32859  1.0000
  N   N4        1.0  0.28209  0.17146  0.82855  1.0000
  N   N5        1.0  0.49393  0.83009  0.32976  1.0000
  N   N6        1.0  0.50451  0.33027  0.83003  1.0000
  N   N7        1.0  0.49393  0.67024  0.16991  1.0000
  N   N8        1.0  0.50452  0.16998  0.66975  1.0000
  O   O1        1.0  0.02790  0.78750  0.01693  1.0000
  O   O2        1.0  0.96758  0.30345  0.51476  1.0000
  O   O3        1.0  0.02850  0.51707  0.28714  1.0000
  O   O4        1.0  0.02790  0.98307  0.21251  1.0000
  O   O5        1.0  0.96757  0.19677  0.98526  1.0000
  O   O6        1.0  0.02849  0.71285  0.48292  1.0000
  O   O7        1.0  0.96758  0.48524  0.69654  1.0000
  O   O8        1.0  0.96756  0.01475  0.80323  1.0000
  O   O9        1.0  0.75936  0.09848  0.09113  1.0000
  O   O10       1.0  0.22142  0.59490  0.58300  1.0000
  O   O11       1.0  0.75949  0.59145  0.59840  1.0000
  O   O12       1.0  0.75935  0.90886  0.90152  1.0000
  O   O13       1.0  0.22150  0.90496  0.91706  1.0000
  O   O14       1.0  0.75951  0.40159  0.40853  1.0000
  O   O15       1.0  0.22142  0.41700  0.40511  1.0000
  O   O16       1.0  0.22149  0.08294  0.09504  1.0000
