data_image0
_chemical_formula_structural       Th2H8C8O20
_chemical_formula_sum              "Th2 H8 C8 O20"
_cell_length_a       6.64074
_cell_length_b       7.7487
_cell_length_c       10.411
_cell_angle_alpha    71.4361
_cell_angle_beta     71.4125
_cell_angle_gamma    64.684

_space_group_name_H-M_alt    "P 1"
_space_group_IT_number       1

loop_
  _space_group_symop_operation_xyz
  'x, y, z'

loop_
  _atom_site_type_symbol
  _atom_site_label
  _atom_site_symmetry_multiplicity
  _atom_site_fract_x
  _atom_site_fract_y
  _atom_site_fract_z
  _atom_site_occupancy
  Th  Th1       1.0  0.73991  0.24993  0.75006  1.0000
  Th  Th2       1.0  0.26009  0.75007  0.24994  1.0000
  H   H1        1.0  0.52536  0.92618  0.84794  1.0000
  H   H2        1.0  0.29991  0.57376  0.65212  1.0000
  H   H3        1.0  0.47464  0.07380  0.15207  1.0000
  H   H4        1.0  0.70010  0.42624  0.34788  1.0000
  H   H5        1.0  0.39796  0.08285  0.72577  1.0000
  H   H6        1.0  0.20694  0.41694  0.77427  1.0000
  H   H7        1.0  0.60204  0.91715  0.27422  1.0000
  H   H8        1.0  0.79307  0.58306  0.22572  1.0000
  C   C1        1.0  0.45843  0.41886  0.05006  1.0000
  C   C2        1.0  0.92748  0.08114  0.44992  1.0000
  C   C3        1.0  0.54156  0.58112  0.94995  1.0000
  C   C4        1.0  0.07253  0.91885  0.55007  1.0000
  C   C5        1.0  0.94955  0.92131  0.01221  1.0000
  C   C6        1.0  0.88331  0.57850  0.48775  1.0000
  C   C7        1.0  0.05045  0.07869  0.98780  1.0000
  C   C8        1.0  0.11669  0.42150  0.51224  1.0000
  O   O1        1.0  0.83130  0.94514  0.93054  1.0000
  O   O2        1.0  0.70723  0.55488  0.56948  1.0000
  O   O3        1.0  0.16869  0.05486  0.06946  1.0000
  O   O4        1.0  0.29277  0.44514  0.43051  1.0000
  O   O5        1.0  0.52516  0.04212  0.77047  1.0000
  O   O6        1.0  0.33820  0.45771  0.72955  1.0000
  O   O7        1.0  0.47485  0.95790  0.22952  1.0000
  O   O8        1.0  0.66180  0.54230  0.27045  1.0000
  O   O9        1.0  0.50912  0.26861  0.00353  1.0000
  O   O10       1.0  0.78137  0.23121  0.49655  1.0000
  O   O11       1.0  0.49087  0.73138  0.99648  1.0000
  O   O12       1.0  0.21864  0.76879  0.50344  1.0000
  O   O13       1.0  0.99330  0.77993  0.11526  1.0000
  O   O14       1.0  0.88870  0.71969  0.38450  1.0000
  O   O15       1.0  0.00669  0.22007  0.88473  1.0000
  O   O16       1.0  0.11128  0.28032  0.61550  1.0000
  O   O17       1.0  0.35019  0.44418  0.17015  1.0000
  O   O18       1.0  0.96480  0.05592  0.32976  1.0000
  O   O19       1.0  0.64981  0.55581  0.82986  1.0000
  O   O20       1.0  0.03519  0.94409  0.67025  1.0000
