data_image0
_chemical_formula_structural       Hg2H32C40S4I4N12
_chemical_formula_sum              "Hg2 H32 C40 S4 I4 N12"
_cell_length_a       6.77608
_cell_length_b       8.86561
_cell_length_c       22.7371
_cell_angle_alpha    79.8129
_cell_angle_beta     81.4408
_cell_angle_gamma    67.5409

_space_group_name_H-M_alt    "P 1"
_space_group_IT_number       1

loop_
  _space_group_symop_operation_xyz
  'x, y, z'

loop_
  _atom_site_type_symbol
  _atom_site_label
  _atom_site_symmetry_multiplicity
  _atom_site_fract_x
  _atom_site_fract_y
  _atom_site_fract_z
  _atom_site_occupancy
  Hg  Hg1       1.0  0.91400  0.24996  0.75003  1.0000
  Hg  Hg2       1.0  0.08600  0.75004  0.24996  1.0000
  H   H1        1.0  0.83613  0.16490  0.62669  1.0000
  H   H2        1.0  0.62793  0.33482  0.87343  1.0000
  H   H3        1.0  0.16387  0.83510  0.37331  1.0000
  H   H4        1.0  0.37207  0.66518  0.12657  1.0000
  H   H5        1.0  0.51733  0.80309  0.76097  1.0000
  H   H6        1.0  0.08156  0.69669  0.73916  1.0000
  H   H7        1.0  0.48267  0.19691  0.23903  1.0000
  H   H8        1.0  0.91844  0.30331  0.26084  1.0000
  H   H9        1.0  0.65792  0.98722  0.79926  1.0000
  H   H10       1.0  0.44452  0.51265  0.70087  1.0000
  H   H11       1.0  0.34209  0.01278  0.20074  1.0000
  H   H12       1.0  0.55548  0.48735  0.29913  1.0000
  H   H13       1.0  0.78434  0.73285  0.55846  1.0000
  H   H14       1.0  0.07584  0.76687  0.94163  1.0000
  H   H15       1.0  0.21566  0.26715  0.44154  1.0000
  H   H16       1.0  0.92417  0.23313  0.05837  1.0000
  H   H17       1.0  0.54644  0.79888  0.64952  1.0000
  H   H18       1.0  0.99517  0.70086  0.85061  1.0000
  H   H19       1.0  0.45356  0.20112  0.35048  1.0000
  H   H20       1.0  0.00483  0.29914  0.14939  1.0000
  H   H21       1.0  0.83097  0.77805  0.44486  1.0000
  H   H22       1.0  0.05406  0.72171  0.05523  1.0000
  H   H23       1.0  0.16903  0.22195  0.55514  1.0000
  H   H24       1.0  0.94594  0.27829  0.94477  1.0000
  H   H25       1.0  0.73214  0.42315  0.51840  1.0000
  H   H26       1.0  0.67401  0.07658  0.98173  1.0000
  H   H27       1.0  0.26786  0.57685  0.48160  1.0000
  H   H28       1.0  0.32599  0.92342  0.01827  1.0000
  H   H29       1.0  0.63483  0.59099  0.46003  1.0000
  H   H30       1.0  0.68564  0.90870  0.04005  1.0000
  H   H31       1.0  0.36516  0.40901  0.53997  1.0000
  H   H32       1.0  0.31437  0.09130  0.95995  1.0000
  C   C1        1.0  0.76574  0.08212  0.65503  1.0000
  C   C2        1.0  0.50311  0.41765  0.84508  1.0000
  C   C3        1.0  0.23426  0.91788  0.34497  1.0000
  C   C4        1.0  0.49688  0.58235  0.15492  1.0000
  C   C5        1.0  0.59010  0.87917  0.72961  1.0000
  C   C6        1.0  0.19909  0.62055  0.77051  1.0000
  C   C7        1.0  0.40991  0.12083  0.27039  1.0000
  C   C8        1.0  0.80091  0.37944  0.22949  1.0000
  C   C9        1.0  0.66641  0.98214  0.75128  1.0000
  C   C10       1.0  0.40003  0.51768  0.74884  1.0000
  C   C11       1.0  0.33359  0.01786  0.24872  1.0000
  C   C12       1.0  0.59996  0.48232  0.25116  1.0000
  C   C13       1.0  0.69483  0.98163  0.62932  1.0000
  C   C14       1.0  0.30606  0.51811  0.87079  1.0000
  C   C15       1.0  0.30517  0.01837  0.37068  1.0000
  C   C16       1.0  0.69394  0.48189  0.12921  1.0000
  C   C17       1.0  0.71783  0.99108  0.56340  1.0000
  C   C18       1.0  0.27258  0.50872  0.93670  1.0000
  C   C19       1.0  0.28217  0.00892  0.43660  1.0000
  C   C20       1.0  0.72742  0.49128  0.06330  1.0000
  C   C21       1.0  0.71609  0.15119  0.47267  1.0000
  C   C22       1.0  0.34012  0.34862  0.02743  1.0000
  C   C23       1.0  0.28391  0.84881  0.52732  1.0000
  C   C24       1.0  0.65988  0.65138  0.97257  1.0000
  C   C25       1.0  0.76456  0.85409  0.53385  1.0000
  C   C26       1.0  0.15280  0.64569  0.96625  1.0000
  C   C27       1.0  0.23544  0.14591  0.46615  1.0000
  C   C28       1.0  0.84721  0.35431  0.03376  1.0000
  C   C29       1.0  0.60649  0.87716  0.66782  1.0000
  C   C30       1.0  0.15173  0.62259  0.83231  1.0000
  C   C31       1.0  0.39351  0.12284  0.33218  1.0000
  C   C32       1.0  0.84827  0.37741  0.16769  1.0000
  C   C33       1.0  0.78941  0.87954  0.47131  1.0000
  C   C34       1.0  0.14057  0.62027  0.02879  1.0000
  C   C35       1.0  0.21059  0.12046  0.52869  1.0000
  C   C36       1.0  0.85943  0.37973  0.97121  1.0000
  C   C37       1.0  0.61395  0.47949  0.48509  1.0000
  C   C38       1.0  0.57863  0.02029  0.01496  1.0000
  C   C39       1.0  0.38604  0.52051  0.51491  1.0000
  C   C40       1.0  0.42137  0.97971  0.98504  1.0000
  S   S1        1.0  0.67629  0.34239  0.42883  1.0000
  S   S2        1.0  0.44778  0.15732  0.07126  1.0000
  S   S3        1.0  0.32371  0.65760  0.57117  1.0000
  S   S4        1.0  0.55223  0.84268  0.92874  1.0000
  I   I1        1.0  0.07948  0.06452  0.85100  1.0000
  I   I2        1.0  0.99505  0.43525  0.64905  1.0000
  I   I3        1.0  0.92052  0.93547  0.14900  1.0000
  I   I4        1.0  0.00493  0.56476  0.35095  1.0000
  N   N1        1.0  0.75430  0.08045  0.71429  1.0000
  N   N2        1.0  0.54927  0.41936  0.78582  1.0000
  N   N3        1.0  0.24571  0.91955  0.28571  1.0000
  N   N4        1.0  0.45072  0.58064  0.21418  1.0000
  N   N5        1.0  0.69505  0.14056  0.53247  1.0000
  N   N6        1.0  0.36846  0.35928  0.96763  1.0000
  N   N7        1.0  0.30495  0.85943  0.46753  1.0000
  N   N8        1.0  0.63154  0.64072  0.03237  1.0000
  N   N9        1.0  0.76537  0.02716  0.43979  1.0000
  N   N10       1.0  0.23259  0.47264  0.06031  1.0000
  N   N11       1.0  0.23463  0.97284  0.56021  1.0000
  N   N12       1.0  0.76741  0.52736  0.93969  1.0000
