data_image0
_chemical_formula_structural       Cu2Mo2H8C10N2O8
_chemical_formula_sum              "Cu2 Mo2 H8 C10 N2 O8"
_cell_length_a       5.47434
_cell_length_b       6.80304
_cell_length_c       10.7478
_cell_angle_alpha    73.5841
_cell_angle_beta     78.831
_cell_angle_gamma    70.0376

_space_group_name_H-M_alt    "P 1"
_space_group_IT_number       1

loop_
  _space_group_symop_operation_xyz
  'x, y, z'

loop_
  _atom_site_type_symbol
  _atom_site_label
  _atom_site_symmetry_multiplicity
  _atom_site_fract_x
  _atom_site_fract_y
  _atom_site_fract_z
  _atom_site_occupancy
  Cu  Cu1       1.0  0.58976  0.29831  0.10499  1.0000
  Cu  Cu2       1.0  0.41025  0.70169  0.89501  1.0000
  Mo  Mo1       1.0  0.74603  0.76212  0.09165  1.0000
  Mo  Mo2       1.0  0.25398  0.23788  0.90835  1.0000
  H   H1        1.0  0.01280  0.06796  0.26806  1.0000
  H   H2        1.0  0.98721  0.93206  0.73194  1.0000
  H   H3        1.0  0.23984  0.43255  0.32015  1.0000
  H   H4        1.0  0.76016  0.56745  0.67985  1.0000
  H   H5        1.0  0.25173  0.35553  0.56483  1.0000
  H   H6        1.0  0.74826  0.64447  0.43517  1.0000
  H   H7        1.0  0.65485  0.12066  0.66008  1.0000
  H   H8        1.0  0.34514  0.87933  0.33991  1.0000
  C   C1        1.0  0.85197  0.12398  0.33979  1.0000
  C   C2        1.0  0.14803  0.87602  0.66021  1.0000
  C   C3        1.0  0.41521  0.33167  0.36778  1.0000
  C   C4        1.0  0.58480  0.66832  0.63222  1.0000
  C   C5        1.0  0.87590  0.07128  0.47390  1.0000
  C   C6        1.0  0.12410  0.92871  0.52610  1.0000
  C   C7        1.0  0.42321  0.28851  0.50155  1.0000
  C   C8        1.0  0.57679  0.71148  0.49846  1.0000
  C   C9        1.0  0.65308  0.15757  0.55479  1.0000
  C   C10       1.0  0.34691  0.84242  0.44522  1.0000
  N   N1        1.0  0.62753  0.24815  0.29012  1.0000
  N   N2        1.0  0.37247  0.75185  0.70988  1.0000
  O   O1        1.0  0.54614  0.01959  0.12400  1.0000
  O   O2        1.0  0.45386  0.98041  0.87600  1.0000
  O   O3        1.0  0.53537  0.61087  0.06953  1.0000
  O   O4        1.0  0.46462  0.38914  0.93048  1.0000
  O   O5        1.0  0.98641  0.78629  0.96002  1.0000
  O   O6        1.0  0.01359  0.21372  0.03998  1.0000
  O   O7        1.0  0.90200  0.61336  0.22938  1.0000
  O   O8        1.0  0.09801  0.38665  0.77061  1.0000
