data_image0
_chemical_formula_structural       Hg2H36C40O4F16
_chemical_formula_sum              "Hg2 H36 C40 O4 F16"
_cell_length_a       9.22241
_cell_length_b       10.461
_cell_length_c       10.9148
_cell_angle_alpha    90
_cell_angle_beta     90
_cell_angle_gamma    93.1891

_space_group_name_H-M_alt    "P 1"
_space_group_IT_number       1

loop_
  _space_group_symop_operation_xyz
  'x, y, z'

loop_
  _atom_site_type_symbol
  _atom_site_label
  _atom_site_symmetry_multiplicity
  _atom_site_fract_x
  _atom_site_fract_y
  _atom_site_fract_z
  _atom_site_occupancy
  Hg  Hg1       1.0  0.00000  0.00000  0.00000  1.0000
  Hg  Hg2       1.0  0.50000  1.00000  0.50000  1.0000
  H   H1        1.0  0.48132  0.59695  0.55001  1.0000
  H   H2        1.0  0.01868  0.40304  0.05001  1.0000
  H   H3        1.0  0.51868  0.40304  0.44999  1.0000
  H   H4        1.0  0.98132  0.59695  0.94999  1.0000
  H   H5        1.0  0.35349  0.53575  0.66104  1.0000
  H   H6        1.0  0.14651  0.46425  0.16104  1.0000
  H   H7        1.0  0.64651  0.46425  0.33896  1.0000
  H   H8        1.0  0.85349  0.53575  0.83896  1.0000
  H   H9        1.0  0.41367  0.70046  0.66369  1.0000
  H   H10       1.0  0.08633  0.29954  0.16369  1.0000
  H   H11       1.0  0.58633  0.29954  0.33631  1.0000
  H   H12       1.0  0.91367  0.70046  0.83631  1.0000
  H   H13       1.0  0.16374  0.77666  0.64859  1.0000
  H   H14       1.0  0.33626  0.22334  0.14859  1.0000
  H   H15       1.0  0.83626  0.22334  0.35141  1.0000
  H   H16       1.0  0.66374  0.77666  0.85141  1.0000
  H   H17       1.0  0.08963  0.61575  0.65155  1.0000
  H   H18       1.0  0.41037  0.38425  0.15155  1.0000
  H   H19       1.0  0.91037  0.38425  0.34845  1.0000
  H   H20       1.0  0.58963  0.61575  0.84845  1.0000
  H   H21       1.0  0.04204  0.71955  0.53142  1.0000
  H   H22       1.0  0.45796  0.28045  0.03142  1.0000
  H   H23       1.0  0.95796  0.28045  0.46858  1.0000
  H   H24       1.0  0.54204  0.71955  0.96858  1.0000
  H   H25       1.0  0.12877  0.56238  0.37219  1.0000
  H   H26       1.0  0.37123  0.43762  0.87219  1.0000
  H   H27       1.0  0.87123  0.43762  0.62781  1.0000
  H   H28       1.0  0.62877  0.56238  0.12781  1.0000
  H   H29       1.0  0.17251  0.45541  0.49088  1.0000
  H   H30       1.0  0.32748  0.54459  0.99088  1.0000
  H   H31       1.0  0.82748  0.54459  0.50912  1.0000
  H   H32       1.0  0.67251  0.45541  0.00912  1.0000
  H   H33       1.0  0.30748  0.50558  0.38208  1.0000
  H   H34       1.0  0.19252  0.49442  0.88208  1.0000
  H   H35       1.0  0.69252  0.49442  0.61792  1.0000
  H   H36       1.0  0.80748  0.50558  0.11792  1.0000
  C   C1        1.0  0.16060  0.90758  0.36338  1.0000
  C   C2        1.0  0.33940  0.09242  0.86338  1.0000
  C   C3        1.0  0.83940  0.09242  0.63662  1.0000
  C   C4        1.0  0.66060  0.90758  0.13662  1.0000
  C   C5        1.0  0.24860  0.80332  0.34777  1.0000
  C   C6        1.0  0.25140  0.19668  0.84777  1.0000
  C   C7        1.0  0.75140  0.19668  0.65223  1.0000
  C   C8        1.0  0.74860  0.80332  0.15223  1.0000
  C   C9        1.0  0.11147  0.91929  0.14458  1.0000
  C   C10       1.0  0.38853  0.08071  0.64458  1.0000
  C   C11       1.0  0.88853  0.08071  0.85542  1.0000
  C   C12       1.0  0.61147  0.91929  0.35542  1.0000
  C   C13       1.0  0.26899  0.76097  0.22703  1.0000
  C   C14       1.0  0.23101  0.23903  0.72703  1.0000
  C   C15       1.0  0.73101  0.23903  0.77297  1.0000
  C   C16       1.0  0.76899  0.76097  0.27297  1.0000
  C   C17       1.0  0.20040  0.81769  0.12895  1.0000
  C   C18       1.0  0.29960  0.18231  0.62895  1.0000
  C   C19       1.0  0.79960  0.18231  0.87105  1.0000
  C   C20       1.0  0.70040  0.81769  0.37105  1.0000
  C   C21       1.0  0.09507  0.96330  0.26326  1.0000
  C   C22       1.0  0.40493  0.03670  0.76326  1.0000
  C   C23       1.0  0.90493  0.03670  0.73674  1.0000
  C   C24       1.0  0.59507  0.96330  0.23675  1.0000
  C   C25       1.0  0.25989  0.64857  0.51901  1.0000
  C   C26       1.0  0.24011  0.35142  0.01901  1.0000
  C   C27       1.0  0.74011  0.35142  0.48099  1.0000
  C   C28       1.0  0.75989  0.64857  0.98099  1.0000
  C   C29       1.0  0.38503  0.61872  0.60345  1.0000
  C   C30       1.0  0.11497  0.38128  0.10345  1.0000
  C   C31       1.0  0.61497  0.38128  0.39655  1.0000
  C   C32       1.0  0.88503  0.61872  0.89655  1.0000
  C   C33       1.0  0.13131  0.69374  0.59153  1.0000
  C   C34       1.0  0.36869  0.30626  0.09153  1.0000
  C   C35       1.0  0.86869  0.30626  0.40847  1.0000
  C   C36       1.0  0.63131  0.69374  0.90847  1.0000
  C   C37       1.0  0.21509  0.53655  0.43554  1.0000
  C   C38       1.0  0.28491  0.46345  0.93554  1.0000
  C   C39       1.0  0.78491  0.46345  0.56446  1.0000
  C   C40       1.0  0.71509  0.53655  0.06446  1.0000
  O   O1        1.0  0.32524  0.75657  0.44306  1.0000
  O   O2        1.0  0.17476  0.24343  0.94306  1.0000
  O   O3        1.0  0.67476  0.24343  0.55694  1.0000
  O   O4        1.0  0.82525  0.75657  0.05694  1.0000
  F   F1        1.0  0.01209  0.06513  0.28431  1.0000
  F   F2        1.0  0.48790  0.93487  0.78431  1.0000
  F   F3        1.0  0.98791  0.93487  0.71568  1.0000
  F   F4        1.0  0.51209  0.06513  0.21568  1.0000
  F   F5        1.0  0.22381  0.77105  0.01423  1.0000
  F   F6        1.0  0.27619  0.22895  0.51423  1.0000
  F   F7        1.0  0.77619  0.22895  0.98577  1.0000
  F   F8        1.0  0.72381  0.77105  0.48577  1.0000
  F   F9        1.0  0.35956  0.66507  0.20555  1.0000
  F   F10       1.0  0.14044  0.33493  0.70555  1.0000
  F   F11       1.0  0.64044  0.33493  0.79445  1.0000
  F   F12       1.0  0.85956  0.66507  0.29445  1.0000
  F   F13       1.0  0.14241  0.95617  0.47687  1.0000
  F   F14       1.0  0.35759  0.04383  0.97687  1.0000
  F   F15       1.0  0.85759  0.04383  0.52313  1.0000
  F   F16       1.0  0.64242  0.95617  0.02313  1.0000
