data_image0
_chemical_formula_structural       La4Cu4H32C56N8O32
_chemical_formula_sum              "La4 Cu4 H32 C56 N8 O32"
_cell_length_a       9.33266
_cell_length_b       9.69026
_cell_length_c       21.6544
_cell_angle_alpha    90
_cell_angle_beta     89.9998
_cell_angle_gamma    114.87

_space_group_name_H-M_alt    "P 1"
_space_group_IT_number       1

loop_
  _space_group_symop_operation_xyz
  'x, y, z'

loop_
  _atom_site_type_symbol
  _atom_site_label
  _atom_site_symmetry_multiplicity
  _atom_site_fract_x
  _atom_site_fract_y
  _atom_site_fract_z
  _atom_site_occupancy
  La  La1       1.0  0.87997  0.64203  0.00924  1.0000
  La  La2       1.0  0.62003  0.35797  0.50924  1.0000
  La  La3       1.0  0.12003  0.35797  0.99076  1.0000
  La  La4       1.0  0.37997  0.64203  0.49076  1.0000
  Cu  Cu1       1.0  0.54670  0.69393  0.14337  1.0000
  Cu  Cu2       1.0  0.95330  0.30607  0.64337  1.0000
  Cu  Cu3       1.0  0.45329  0.30607  0.85663  1.0000
  Cu  Cu4       1.0  0.04670  0.69393  0.35663  1.0000
  H   H1        1.0  0.28443  0.77384  0.15831  1.0000
  H   H2        1.0  0.21558  0.22616  0.65831  1.0000
  H   H3        1.0  0.71557  0.22616  0.84169  1.0000
  H   H4        1.0  0.78443  0.77384  0.34169  1.0000
  H   H5        1.0  0.21911  0.98763  0.12552  1.0000
  H   H6        1.0  0.28089  0.01237  0.62552  1.0000
  H   H7        1.0  0.78089  0.01237  0.87448  1.0000
  H   H8        1.0  0.71911  0.98763  0.37448  1.0000
  H   H9        1.0  0.42564  0.20910  0.06935  1.0000
  H   H10       1.0  0.07435  0.79090  0.56935  1.0000
  H   H11       1.0  0.57435  0.79090  0.93065  1.0000
  H   H12       1.0  0.92564  0.20910  0.43065  1.0000
  H   H13       1.0  0.72397  0.96889  0.07365  1.0000
  H   H14       1.0  0.77603  0.03112  0.57365  1.0000
  H   H15       1.0  0.27603  0.03112  0.92635  1.0000
  H   H16       1.0  0.22397  0.96889  0.42635  1.0000
  H   H17       1.0  0.13065  0.42932  0.35561  1.0000
  H   H18       1.0  0.36934  0.57067  0.85561  1.0000
  H   H19       1.0  0.86935  0.57068  0.64439  1.0000
  H   H20       1.0  0.63065  0.42932  0.14439  1.0000
  H   H21       1.0  0.15648  0.26160  0.27293  1.0000
  H   H22       1.0  0.34353  0.73840  0.77293  1.0000
  H   H23       1.0  0.84353  0.73840  0.72707  1.0000
  H   H24       1.0  0.65647  0.26160  0.22707  1.0000
  H   H25       1.0  0.10662  0.30929  0.16170  1.0000
  H   H26       1.0  0.39338  0.69071  0.66170  1.0000
  H   H27       1.0  0.89338  0.69071  0.83830  1.0000
  H   H28       1.0  0.60662  0.30928  0.33830  1.0000
  H   H29       1.0  0.99647  0.67236  0.22748  1.0000
  H   H30       1.0  0.50353  0.32763  0.72747  1.0000
  H   H31       1.0  0.00353  0.32763  0.77253  1.0000
  H   H32       1.0  0.49647  0.67236  0.27253  1.0000
  C   C1        1.0  0.36867  0.86960  0.13230  1.0000
  C   C2        1.0  0.13133  0.13040  0.63230  1.0000
  C   C3        1.0  0.63133  0.13040  0.86771  1.0000
  C   C4        1.0  0.86867  0.86960  0.36770  1.0000
  C   C5        1.0  0.33427  0.99022  0.11490  1.0000
  C   C6        1.0  0.16573  0.00978  0.61490  1.0000
  C   C7        1.0  0.66573  0.00978  0.88510  1.0000
  C   C8        1.0  0.83428  0.99022  0.38510  1.0000
  C   C9        1.0  0.44805  0.11180  0.08302  1.0000
  C   C10       1.0  0.05194  0.88820  0.58303  1.0000
  C   C11       1.0  0.55194  0.88820  0.91698  1.0000
  C   C12       1.0  0.94806  0.11181  0.41698  1.0000
  C   C13       1.0  0.59137  0.10628  0.06784  1.0000
  C   C14       1.0  0.90863  0.89373  0.56785  1.0000
  C   C15       1.0  0.40863  0.89372  0.93216  1.0000
  C   C16       1.0  0.09137  0.10628  0.43216  1.0000
  C   C17       1.0  0.61528  0.97886  0.08539  1.0000
  C   C18       1.0  0.88472  0.02114  0.58539  1.0000
  C   C19       1.0  0.38472  0.02114  0.91461  1.0000
  C   C20       1.0  0.11528  0.97886  0.41461  1.0000
  C   C21       1.0  0.71958  0.23643  0.03438  1.0000
  C   C22       1.0  0.78042  0.76357  0.53438  1.0000
  C   C23       1.0  0.28042  0.76357  0.96562  1.0000
  C   C24       1.0  0.21958  0.23643  0.46562  1.0000
  C   C25       1.0  0.10726  0.44486  0.30742  1.0000
  C   C26       1.0  0.39274  0.55514  0.80742  1.0000
  C   C27       1.0  0.89274  0.55514  0.69258  1.0000
  C   C28       1.0  0.60726  0.44485  0.19258  1.0000
  C   C29       1.0  0.12192  0.35248  0.26078  1.0000
  C   C30       1.0  0.37808  0.64752  0.76078  1.0000
  C   C31       1.0  0.87808  0.64752  0.73922  1.0000
  C   C32       1.0  0.62192  0.35248  0.23922  1.0000
  C   C33       1.0  0.09375  0.37797  0.19943  1.0000
  C   C34       1.0  0.40625  0.62203  0.69943  1.0000
  C   C35       1.0  0.90625  0.62203  0.80057  1.0000
  C   C36       1.0  0.59375  0.37797  0.30057  1.0000
  C   C37       1.0  0.04616  0.49432  0.18736  1.0000
  C   C38       1.0  0.45384  0.50568  0.68736  1.0000
  C   C39       1.0  0.95384  0.50568  0.81264  1.0000
  C   C40       1.0  0.54616  0.49431  0.31264  1.0000
  C   C41       1.0  0.03345  0.58166  0.23647  1.0000
  C   C42       1.0  0.46655  0.41833  0.73648  1.0000
  C   C43       1.0  0.96655  0.41834  0.76352  1.0000
  C   C44       1.0  0.53345  0.58166  0.26352  1.0000
  C   C45       1.0  0.00542  0.53150  0.12446  1.0000
  C   C46       1.0  0.49458  0.46849  0.62447  1.0000
  C   C47       1.0  0.99458  0.46850  0.87553  1.0000
  C   C48       1.0  0.50543  0.53151  0.37554  1.0000
  C   C49       1.0  0.49422  0.52233  0.03379  1.0000
  C   C50       1.0  0.00577  0.47767  0.53379  1.0000
  C   C51       1.0  0.50578  0.47767  0.96621  1.0000
  C   C52       1.0  0.99422  0.52234  0.46621  1.0000
  C   C53       1.0  0.01138  0.00766  0.03580  1.0000
  C   C54       1.0  0.48862  0.99234  0.53580  1.0000
  C   C55       1.0  0.98862  0.99234  0.96420  1.0000
  C   C56       1.0  0.51138  0.00766  0.46420  1.0000
  N   N1        1.0  0.50715  0.86268  0.11817  1.0000
  N   N2        1.0  0.99286  0.13733  0.61817  1.0000
  N   N3        1.0  0.49285  0.13733  0.88183  1.0000
  N   N4        1.0  0.00715  0.86268  0.38183  1.0000
  N   N5        1.0  0.06531  0.56016  0.29551  1.0000
  N   N6        1.0  0.43469  0.43983  0.79551  1.0000
  N   N7        1.0  0.93470  0.43984  0.70449  1.0000
  N   N8        1.0  0.56530  0.56016  0.20449  1.0000
  O   O1        1.0  0.70896  0.36292  0.03532  1.0000
  O   O2        1.0  0.79105  0.63708  0.53532  1.0000
  O   O3        1.0  0.29105  0.63708  0.96468  1.0000
  O   O4        1.0  0.20896  0.36292  0.46468  1.0000
  O   O5        1.0  0.82849  0.21086  0.00883  1.0000
  O   O6        1.0  0.67151  0.78914  0.50883  1.0000
  O   O7        1.0  0.17150  0.78914  0.99117  1.0000
  O   O8        1.0  0.32849  0.21086  0.49117  1.0000
  O   O9        1.0  0.93200  0.61557  0.12205  1.0000
  O   O10       1.0  0.56799  0.38442  0.62205  1.0000
  O   O11       1.0  0.06800  0.38442  0.87794  1.0000
  O   O12       1.0  0.43201  0.61558  0.37795  1.0000
  O   O13       1.0  0.04564  0.47941  0.07668  1.0000
  O   O14       1.0  0.45436  0.52059  0.57668  1.0000
  O   O15       1.0  0.95436  0.52059  0.92332  1.0000
  O   O16       1.0  0.54564  0.47941  0.42332  1.0000
  O   O17       1.0  0.62107  0.62095  0.05771  1.0000
  O   O18       1.0  0.87893  0.37905  0.55771  1.0000
  O   O19       1.0  0.37893  0.37904  0.94229  1.0000
  O   O20       1.0  0.12107  0.62096  0.44229  1.0000
  O   O21       1.0  0.36316  0.46115  0.06098  1.0000
  O   O22       1.0  0.13684  0.53886  0.56098  1.0000
  O   O23       1.0  0.63684  0.53885  0.93902  1.0000
  O   O24       1.0  0.86317  0.46115  0.43902  1.0000
  O   O25       1.0  0.94739  0.88711  0.06714  1.0000
  O   O26       1.0  0.55261  0.11289  0.56714  1.0000
  O   O27       1.0  0.05261  0.11289  0.93286  1.0000
  O   O28       1.0  0.44739  0.88710  0.43285  1.0000
  O   O29       1.0  0.09250  0.13985  0.05719  1.0000
  O   O30       1.0  0.40749  0.86015  0.55719  1.0000
  O   O31       1.0  0.90750  0.86015  0.94281  1.0000
  O   O32       1.0  0.59250  0.13985  0.44281  1.0000
