data_image0
_chemical_formula_structural       Cu4H32C36S8I4N16
_chemical_formula_sum              "Cu4 H32 C36 S8 I4 N16"
_cell_length_a       7.57094
_cell_length_b       8.5814
_cell_length_c       20.2462
_cell_angle_alpha    90.0002
_cell_angle_beta     90.0003
_cell_angle_gamma    112.026

_space_group_name_H-M_alt    "P 1"
_space_group_IT_number       1

loop_
  _space_group_symop_operation_xyz
  'x, y, z'

loop_
  _atom_site_type_symbol
  _atom_site_label
  _atom_site_symmetry_multiplicity
  _atom_site_fract_x
  _atom_site_fract_y
  _atom_site_fract_z
  _atom_site_occupancy
  Cu  Cu1       1.0  0.53916  0.57880  0.56803  1.0000
  Cu  Cu2       1.0  0.46084  0.92121  0.06803  1.0000
  Cu  Cu3       1.0  0.46083  0.42121  0.43197  1.0000
  Cu  Cu4       1.0  0.53917  0.07879  0.93197  1.0000
  H   H1        1.0  0.94402  0.66966  0.53076  1.0000
  H   H2        1.0  0.05598  0.83033  0.03075  1.0000
  H   H3        1.0  0.05597  0.33032  0.46924  1.0000
  H   H4        1.0  0.94403  0.16968  0.96924  1.0000
  H   H5        1.0  0.25090  0.92288  0.54366  1.0000
  H   H6        1.0  0.74910  0.57712  0.04366  1.0000
  H   H7        1.0  0.74911  0.07709  0.45634  1.0000
  H   H8        1.0  0.25090  0.42290  0.95634  1.0000
  H   H9        1.0  0.23090  0.17480  0.60361  1.0000
  H   H10       1.0  0.76909  0.32521  0.10361  1.0000
  H   H11       1.0  0.76911  0.82518  0.39639  1.0000
  H   H12       1.0  0.23090  0.67481  0.89639  1.0000
  H   H13       1.0  0.77351  0.17335  0.67864  1.0000
  H   H14       1.0  0.22648  0.32665  0.17864  1.0000
  H   H15       1.0  0.22651  0.82665  0.32137  1.0000
  H   H16       1.0  0.77350  0.67335  0.82137  1.0000
  H   H17       1.0  0.53214  0.16426  0.67873  1.0000
  H   H18       1.0  0.46785  0.33573  0.17873  1.0000
  H   H19       1.0  0.46787  0.83573  0.32127  1.0000
  H   H20       1.0  0.53214  0.66427  0.82127  1.0000
  H   H21       1.0  0.12359  0.97286  0.93128  1.0000
  H   H22       1.0  0.87640  0.52715  0.43128  1.0000
  H   H23       1.0  0.87641  0.02713  0.06872  1.0000
  H   H24       1.0  0.12358  0.47286  0.56872  1.0000
  H   H25       1.0  0.87765  0.96800  0.84733  1.0000
  H   H26       1.0  0.12235  0.53203  0.34733  1.0000
  H   H27       1.0  0.12236  0.03199  0.15266  1.0000
  H   H28       1.0  0.87764  0.46798  0.65267  1.0000
  H   H29       1.0  0.98450  0.01089  0.72687  1.0000
  H   H30       1.0  0.01551  0.48917  0.22687  1.0000
  H   H31       1.0  0.01552  0.98909  0.27313  1.0000
  H   H32       1.0  0.98448  0.51084  0.77313  1.0000
  C   C1        1.0  0.94814  0.78457  0.55508  1.0000
  C   C2        1.0  0.05186  0.71542  0.05508  1.0000
  C   C3        1.0  0.05185  0.21542  0.44492  1.0000
  C   C4        1.0  0.94815  0.28458  0.94492  1.0000
  C   C5        1.0  0.11642  0.92340  0.56242  1.0000
  C   C6        1.0  0.88358  0.57661  0.06241  1.0000
  C   C7        1.0  0.88358  0.07659  0.43758  1.0000
  C   C8        1.0  0.11642  0.42340  0.93758  1.0000
  C   C9        1.0  0.10435  0.06148  0.59540  1.0000
  C   C10       1.0  0.89565  0.43853  0.09540  1.0000
  C   C11       1.0  0.89566  0.93851  0.40460  1.0000
  C   C12       1.0  0.10434  0.56149  0.90460  1.0000
  C   C13       1.0  0.78277  0.92365  0.60902  1.0000
  C   C14       1.0  0.21723  0.57636  0.10902  1.0000
  C   C15       1.0  0.21724  0.07635  0.39098  1.0000
  C   C16       1.0  0.78277  0.42365  0.89098  1.0000
  C   C17       1.0  0.62460  0.09556  0.68996  1.0000
  C   C18       1.0  0.37540  0.40443  0.18996  1.0000
  C   C19       1.0  0.37542  0.90444  0.31004  1.0000
  C   C20       1.0  0.62458  0.59556  0.81004  1.0000
  C   C21       1.0  0.37746  0.02420  0.79615  1.0000
  C   C22       1.0  0.62254  0.47582  0.29615  1.0000
  C   C23       1.0  0.62255  0.97578  0.20385  1.0000
  C   C24       1.0  0.37745  0.52419  0.70385  1.0000
  C   C25       1.0  0.15611  0.98580  0.87863  1.0000
  C   C26       1.0  0.84389  0.51422  0.37864  1.0000
  C   C27       1.0  0.84390  0.01418  0.12136  1.0000
  C   C28       1.0  0.15610  0.48579  0.62137  1.0000
  C   C29       1.0  0.02138  0.98460  0.83208  1.0000
  C   C30       1.0  0.97862  0.51544  0.33208  1.0000
  C   C31       1.0  0.97863  0.01538  0.16792  1.0000
  C   C32       1.0  0.02137  0.48458  0.66793  1.0000
  C   C33       1.0  0.07994  0.00610  0.76648  1.0000
  C   C34       1.0  0.92007  0.49395  0.26648  1.0000
  C   C35       1.0  0.92008  0.99388  0.23351  1.0000
  C   C36       1.0  0.07992  0.50606  0.73352  1.0000
  S   S1        1.0  0.55859  0.91348  0.63639  1.0000
  S   S2        1.0  0.44140  0.58651  0.13639  1.0000
  S   S3        1.0  0.44142  0.08653  0.36361  1.0000
  S   S4        1.0  0.55859  0.41348  0.86361  1.0000
  S   S5        1.0  0.61389  0.05316  0.77774  1.0000
  S   S6        1.0  0.38610  0.44684  0.27774  1.0000
  S   S7        1.0  0.38613  0.94682  0.22226  1.0000
  S   S8        1.0  0.61388  0.55316  0.72227  1.0000
  I   I1        1.0  0.63046  0.32330  0.53384  1.0000
  I   I2        1.0  0.36954  0.17671  0.03384  1.0000
  I   I3        1.0  0.36953  0.67670  0.46616  1.0000
  I   I4        1.0  0.63047  0.82330  0.96616  1.0000
  N   N1        1.0  0.77995  0.78152  0.57837  1.0000
  N   N2        1.0  0.22005  0.71847  0.07836  1.0000
  N   N3        1.0  0.22005  0.21848  0.42163  1.0000
  N   N4        1.0  0.77995  0.28153  0.92163  1.0000
  N   N5        1.0  0.33673  0.01011  0.86200  1.0000
  N   N6        1.0  0.66327  0.48990  0.36200  1.0000
  N   N7        1.0  0.66328  0.98987  0.13800  1.0000
  N   N8        1.0  0.33672  0.51011  0.63800  1.0000
  N   N9        1.0  0.93826  0.06217  0.61826  1.0000
  N   N10       1.0  0.06173  0.43784  0.11826  1.0000
  N   N11       1.0  0.06174  0.93783  0.38174  1.0000
  N   N12       1.0  0.93826  0.56217  0.88174  1.0000
  N   N13       1.0  0.25654  0.02260  0.74808  1.0000
  N   N14       1.0  0.74346  0.47745  0.24808  1.0000
  N   N15       1.0  0.74347  0.97737  0.25192  1.0000
  N   N16       1.0  0.25653  0.52257  0.75192  1.0000
