data_image0
_chemical_formula_structural       Cu4H32C40S8N20
_chemical_formula_sum              "Cu4 H32 C40 S8 N20"
_cell_length_a       8.30052
_cell_length_b       8.7715
_cell_length_c       15.8112
_cell_angle_alpha    89.9999
_cell_angle_beta     93.6425
_cell_angle_gamma    89.9998

_space_group_name_H-M_alt    "P 1"
_space_group_IT_number       1

loop_
  _space_group_symop_operation_xyz
  'x, y, z'

loop_
  _atom_site_type_symbol
  _atom_site_label
  _atom_site_symmetry_multiplicity
  _atom_site_fract_x
  _atom_site_fract_y
  _atom_site_fract_z
  _atom_site_occupancy
  Cu  Cu1       1.0  0.62742  0.52242  0.22252  1.0000
  Cu  Cu2       1.0  0.37258  0.02242  0.27749  1.0000
  Cu  Cu3       1.0  0.37258  0.47757  0.77749  1.0000
  Cu  Cu4       1.0  0.62741  0.97757  0.72251  1.0000
  H   H1        1.0  0.53307  0.25479  0.10947  1.0000
  H   H2        1.0  0.46693  0.75479  0.39054  1.0000
  H   H3        1.0  0.46693  0.74521  0.89053  1.0000
  H   H4        1.0  0.53307  0.24521  0.60946  1.0000
  H   H5        1.0  0.58141  0.15759  0.96100  1.0000
  H   H6        1.0  0.41859  0.65759  0.53900  1.0000
  H   H7        1.0  0.41858  0.84241  0.03900  1.0000
  H   H8        1.0  0.58141  0.34241  0.46099  1.0000
  H   H9        1.0  0.74963  0.32376  0.87090  1.0000
  H   H10       1.0  0.25037  0.82376  0.62910  1.0000
  H   H11       1.0  0.25037  0.67624  0.12910  1.0000
  H   H12       1.0  0.74963  0.17624  0.37090  1.0000
  H   H13       1.0  0.98222  0.68841  0.96632  1.0000
  H   H14       1.0  0.01778  0.18841  0.53368  1.0000
  H   H15       1.0  0.01778  0.31159  0.03368  1.0000
  H   H16       1.0  0.98222  0.81159  0.46632  1.0000
  H   H17       1.0  0.00384  0.86855  0.01939  1.0000
  H   H18       1.0  0.99616  0.36855  0.48061  1.0000
  H   H19       1.0  0.99616  0.13145  0.98061  1.0000
  H   H20       1.0  0.00383  0.63145  0.51939  1.0000
  H   H21       1.0  0.32182  0.95556  0.83298  1.0000
  H   H22       1.0  0.67818  0.45557  0.66702  1.0000
  H   H23       1.0  0.67818  0.04443  0.16702  1.0000
  H   H24       1.0  0.32182  0.54445  0.33298  1.0000
  H   H25       1.0  0.23344  0.08936  0.69671  1.0000
  H   H26       1.0  0.76656  0.58936  0.80329  1.0000
  H   H27       1.0  0.76655  0.91064  0.30329  1.0000
  H   H28       1.0  0.23345  0.41065  0.19671  1.0000
  H   H29       1.0  0.93448  0.10490  0.65897  1.0000
  H   H30       1.0  0.06552  0.60490  0.84103  1.0000
  H   H31       1.0  0.06551  0.89510  0.34103  1.0000
  H   H32       1.0  0.93449  0.39510  0.15898  1.0000
  C   C1        1.0  0.74110  0.53805  0.03891  1.0000
  C   C2        1.0  0.25891  0.03805  0.46109  1.0000
  C   C3        1.0  0.25890  0.46195  0.96109  1.0000
  C   C4        1.0  0.74109  0.96195  0.53891  1.0000
  C   C5        1.0  0.60132  0.31949  0.06493  1.0000
  C   C6        1.0  0.39869  0.81949  0.43507  1.0000
  C   C7        1.0  0.39869  0.68051  0.93507  1.0000
  C   C8        1.0  0.60131  0.18051  0.56493  1.0000
  C   C9        1.0  0.62815  0.26653  0.98421  1.0000
  C   C10       1.0  0.37185  0.76653  0.51579  1.0000
  C   C11       1.0  0.37185  0.73347  0.01579  1.0000
  C   C12       1.0  0.62814  0.23347  0.48421  1.0000
  C   C13       1.0  0.72019  0.35884  0.93431  1.0000
  C   C14       1.0  0.27982  0.85883  0.56569  1.0000
  C   C15       1.0  0.27981  0.64117  0.06569  1.0000
  C   C16       1.0  0.72019  0.14117  0.43431  1.0000
  C   C17       1.0  0.91765  0.78412  0.99279  1.0000
  C   C18       1.0  0.08235  0.28412  0.50721  1.0000
  C   C19       1.0  0.08235  0.21588  0.00721  1.0000
  C   C20       1.0  0.91765  0.71588  0.49279  1.0000
  C   C21       1.0  0.93023  0.93109  0.84126  1.0000
  C   C22       1.0  0.06977  0.43109  0.65874  1.0000
  C   C23       1.0  0.06977  0.06891  0.15874  1.0000
  C   C24       1.0  0.93023  0.56891  0.34126  1.0000
  C   C25       1.0  0.19412  0.96912  0.81360  1.0000
  C   C26       1.0  0.80588  0.46912  0.68640  1.0000
  C   C27       1.0  0.80588  0.03088  0.18640  1.0000
  C   C28       1.0  0.19412  0.53089  0.31360  1.0000
  C   C29       1.0  0.14649  0.04173  0.73785  1.0000
  C   C30       1.0  0.85352  0.54173  0.76215  1.0000
  C   C31       1.0  0.85351  0.95827  0.26215  1.0000
  C   C32       1.0  0.14649  0.45828  0.23785  1.0000
  C   C33       1.0  0.98180  0.05054  0.71726  1.0000
  C   C34       1.0  0.01819  0.55054  0.78274  1.0000
  C   C35       1.0  0.01819  0.94946  0.28275  1.0000
  C   C36       1.0  0.98181  0.44946  0.21726  1.0000
  C   C37       1.0  0.46890  0.21327  0.26738  1.0000
  C   C38       1.0  0.53110  0.71327  0.23262  1.0000
  C   C39       1.0  0.53110  0.78672  0.73262  1.0000
  C   C40       1.0  0.46889  0.28673  0.76738  1.0000
  S   S1        1.0  0.80492  0.71664  0.07867  1.0000
  S   S2        1.0  0.19508  0.21663  0.42133  1.0000
  S   S3        1.0  0.19508  0.28336  0.92133  1.0000
  S   S4        1.0  0.80492  0.78336  0.57867  1.0000
  S   S5        1.0  0.78492  0.87018  0.90977  1.0000
  S   S6        1.0  0.21508  0.37018  0.59023  1.0000
  S   S7        1.0  0.21508  0.12982  0.09023  1.0000
  S   S8        1.0  0.78492  0.62982  0.40977  1.0000
  N   N1        1.0  0.65839  0.45469  0.09382  1.0000
  N   N2        1.0  0.34162  0.95469  0.40618  1.0000
  N   N3        1.0  0.34161  0.54531  0.90618  1.0000
  N   N4        1.0  0.65839  0.04531  0.59382  1.0000
  N   N5        1.0  0.77647  0.49498  0.96126  1.0000
  N   N6        1.0  0.22353  0.99498  0.53874  1.0000
  N   N7        1.0  0.22353  0.50502  0.03874  1.0000
  N   N8        1.0  0.77646  0.00503  0.46126  1.0000
  N   N9        1.0  0.08668  0.91440  0.86583  1.0000
  N   N10       1.0  0.91332  0.41440  0.63417  1.0000
  N   N11       1.0  0.91332  0.08560  0.13417  1.0000
  N   N12       1.0  0.08668  0.58560  0.36584  1.0000
  N   N13       1.0  0.87092  0.99400  0.76742  1.0000
  N   N14       1.0  0.12909  0.49400  0.73258  1.0000
  N   N15       1.0  0.12908  0.00600  0.23258  1.0000
  N   N16       1.0  0.87092  0.50599  0.26742  1.0000
  N   N17       1.0  0.53232  0.33230  0.25916  1.0000
  N   N18       1.0  0.46768  0.83230  0.24084  1.0000
  N   N19       1.0  0.46768  0.66769  0.74084  1.0000
  N   N20       1.0  0.53232  0.16770  0.75916  1.0000
