data_image0
_chemical_formula_structural       H16Pb2C20I4N4O4
_chemical_formula_sum              "H16 Pb2 C20 I4 N4 O4"
_cell_length_a       8.5988
_cell_length_b       9.50747
_cell_length_c       10.2757
_cell_angle_alpha    112.459
_cell_angle_beta     114.743
_cell_angle_gamma    89.9463

_space_group_name_H-M_alt    "P 1"
_space_group_IT_number       1

loop_
  _space_group_symop_operation_xyz
  'x, y, z'

loop_
  _atom_site_type_symbol
  _atom_site_label
  _atom_site_symmetry_multiplicity
  _atom_site_fract_x
  _atom_site_fract_y
  _atom_site_fract_z
  _atom_site_occupancy
  H   H1        1.0  0.39121  0.36499  0.40161  1.0000
  H   H2        1.0  0.98990  0.13508  0.59861  1.0000
  H   H3        1.0  0.60884  0.63501  0.59837  1.0000
  H   H4        1.0  0.01009  0.86492  0.40142  1.0000
  H   H5        1.0  0.24193  0.55601  0.53387  1.0000
  H   H6        1.0  0.70864  0.94425  0.46610  1.0000
  H   H7        1.0  0.75823  0.44412  0.46611  1.0000
  H   H8        1.0  0.29125  0.05592  0.53389  1.0000
  H   H9        1.0  0.93818  0.58048  0.36392  1.0000
  H   H10       1.0  0.57466  0.91952  0.63581  1.0000
  H   H11       1.0  0.06194  0.41955  0.63615  1.0000
  H   H12       1.0  0.42527  0.08055  0.36420  1.0000
  H   H13       1.0  0.80256  0.41529  0.07332  1.0000
  H   H14       1.0  0.72959  0.08428  0.92657  1.0000
  H   H15       1.0  0.19740  0.58470  0.92674  1.0000
  H   H16       1.0  0.27043  0.91569  0.07348  1.0000
  Pb  Pb1       1.0  0.43643  0.24992  0.00006  1.0000
  Pb  Pb2       1.0  0.56348  0.75004  0.99982  1.0000
  C   C1        1.0  0.26189  0.38393  0.33743  1.0000
  C   C2        1.0  0.92483  0.11597  0.66271  1.0000
  C   C3        1.0  0.73818  0.61608  0.66251  1.0000
  C   C4        1.0  0.07517  0.88398  0.33731  1.0000
  C   C5        1.0  0.17582  0.48663  0.40663  1.0000
  C   C6        1.0  0.76969  0.01330  0.59336  1.0000
  C   C7        1.0  0.82429  0.51340  0.59335  1.0000
  C   C8        1.0  0.23024  0.98675  0.40665  1.0000
  C   C9        1.0  0.00859  0.49959  0.31326  1.0000
  C   C10       1.0  0.69580  0.00021  0.68661  1.0000
  C   C11       1.0  0.99146  0.50039  0.68676  1.0000
  C   C12       1.0  0.30412  0.99983  0.31338  1.0000
  C   C13       1.0  0.93125  0.40630  0.15152  1.0000
  C   C14       1.0  0.78011  0.09329  0.84841  1.0000
  C   C15       1.0  0.06871  0.59364  0.84852  1.0000
  C   C16       1.0  0.21984  0.90673  0.15160  1.0000
  C   C17       1.0  0.01960  0.30336  0.08440  1.0000
  C   C18       1.0  0.93543  0.19624  0.91568  1.0000
  C   C19       1.0  0.98037  0.69661  0.91561  1.0000
  C   C20       1.0  0.06457  0.80373  0.08434  1.0000
  I   I1        1.0  0.48550  0.39144  0.75715  1.0000
  I   I2        1.0  0.72815  0.10853  0.24278  1.0000
  I   I3        1.0  0.51460  0.60843  0.24278  1.0000
  I   I4        1.0  0.27176  0.89130  0.75723  1.0000
  N   N1        1.0  0.18473  0.29406  0.17945  1.0000
  N   N2        1.0  0.00546  0.20578  0.82072  1.0000
  N   N3        1.0  0.81527  0.70597  0.82053  1.0000
  N   N4        1.0  0.99452  0.79418  0.17930  1.0000
  O   O1        1.0  0.26772  0.19261  0.11882  1.0000
  O   O2        1.0  0.14880  0.30742  0.88150  1.0000
  O   O3        1.0  0.73230  0.80745  0.88115  1.0000
  O   O4        1.0  0.85120  0.69254  0.11852  1.0000
