data_image0
_chemical_formula_structural       Cu2H30C30S6I2N12
_chemical_formula_sum              "Cu2 H30 C30 S6 I2 N12"
_cell_length_a       8.75567
_cell_length_b       8.94849
_cell_length_c       12.3046
_cell_angle_alpha    87.4345
_cell_angle_beta     85.4616
_cell_angle_gamma    88.6821

_space_group_name_H-M_alt    "P 1"
_space_group_IT_number       1

loop_
  _space_group_symop_operation_xyz
  'x, y, z'

loop_
  _atom_site_type_symbol
  _atom_site_label
  _atom_site_symmetry_multiplicity
  _atom_site_fract_x
  _atom_site_fract_y
  _atom_site_fract_z
  _atom_site_occupancy
  Cu  Cu1       1.0  0.59712  0.59077  0.08884  1.0000
  Cu  Cu2       1.0  0.40289  0.40923  0.91115  1.0000
  H   H1        1.0  0.04295  0.24893  0.19977  1.0000
  H   H2        1.0  0.95704  0.75108  0.80023  1.0000
  H   H3        1.0  0.34033  0.80758  0.13978  1.0000
  H   H4        1.0  0.65968  0.19241  0.86021  1.0000
  H   H5        1.0  0.98800  0.02115  0.12430  1.0000
  H   H6        1.0  0.01201  0.97885  0.87570  1.0000
  H   H7        1.0  0.11929  0.89641  0.05201  1.0000
  H   H8        1.0  0.88073  0.10358  0.94799  1.0000
  H   H9        1.0  0.56384  0.23316  0.14878  1.0000
  H   H10       1.0  0.43618  0.76683  0.85122  1.0000
  H   H11       1.0  0.87646  0.38825  0.06665  1.0000
  H   H12       1.0  0.12354  0.61175  0.93335  1.0000
  H   H13       1.0  0.31855  0.08967  0.16714  1.0000
  H   H14       1.0  0.68146  0.91033  0.83286  1.0000
  H   H15       1.0  0.96219  0.26433  0.40020  1.0000
  H   H16       1.0  0.03781  0.73567  0.59981  1.0000
  H   H17       1.0  0.64919  0.58338  0.51482  1.0000
  H   H18       1.0  0.35080  0.41662  0.48518  1.0000
  H   H19       1.0  0.46024  0.66639  0.51272  1.0000
  H   H20       1.0  0.53976  0.33361  0.48729  1.0000
  H   H21       1.0  0.21452  0.60217  0.37308  1.0000
  H   H22       1.0  0.78547  0.39783  0.62692  1.0000
  H   H23       1.0  0.94337  0.65703  0.32368  1.0000
  H   H24       1.0  0.05662  0.34297  0.67632  1.0000
  H   H25       1.0  0.85333  0.92829  0.32185  1.0000
  H   H26       1.0  0.14666  0.07171  0.67815  1.0000
  H   H27       1.0  0.51617  0.93720  0.38430  1.0000
  H   H28       1.0  0.48382  0.06280  0.61571  1.0000
  H   H29       1.0  0.58285  0.11443  0.42009  1.0000
  H   H30       1.0  0.41714  0.88557  0.57991  1.0000
  C   C1        1.0  0.94331  0.31505  0.22809  1.0000
  C   C2        1.0  0.05669  0.68496  0.77191  1.0000
  C   C3        1.0  0.70195  0.48498  0.29925  1.0000
  C   C4        1.0  0.29805  0.51502  0.70075  1.0000
  C   C5        1.0  0.70074  0.89829  0.09926  1.0000
  C   C6        1.0  0.29927  0.10170  0.90074  1.0000
  C   C7        1.0  0.43937  0.88050  0.13300  1.0000
  C   C8        1.0  0.56065  0.11950  0.86700  1.0000
  C   C9        1.0  0.00664  0.95290  0.05250  1.0000
  C   C10       1.0  0.99337  0.04709  0.94751  1.0000
  C   C11       1.0  0.56433  0.11236  0.13883  1.0000
  C   C12       1.0  0.43568  0.88763  0.86117  1.0000
  C   C13       1.0  0.85347  0.39182  0.15506  1.0000
  C   C14       1.0  0.14653  0.60818  0.84494  1.0000
  C   C15       1.0  0.42821  0.03320  0.14863  1.0000
  C   C16       1.0  0.57180  0.96680  0.85137  1.0000
  C   C17       1.0  0.89992  0.32637  0.33881  1.0000
  C   C18       1.0  0.10008  0.67364  0.66119  1.0000
  C   C19       1.0  0.53602  0.57491  0.48374  1.0000
  C   C20       1.0  0.46398  0.42509  0.51626  1.0000
  C   C21       1.0  0.20220  0.96395  0.39085  1.0000
  C   C22       1.0  0.79780  0.03605  0.60915  1.0000
  C   C23       1.0  0.16688  0.71596  0.37101  1.0000
  C   C24       1.0  0.83311  0.28405  0.62898  1.0000
  C   C25       1.0  0.01759  0.74562  0.34381  1.0000
  C   C26       1.0  0.98241  0.25438  0.65619  1.0000
  C   C27       1.0  0.96874  0.89520  0.34270  1.0000
  C   C28       1.0  0.03125  0.10481  0.65730  1.0000
  C   C29       1.0  0.49668  0.02838  0.44092  1.0000
  C   C30       1.0  0.50331  0.97163  0.55909  1.0000
  S   S1        1.0  0.55246  0.60916  0.33725  1.0000
  S   S2        1.0  0.44753  0.39084  0.66275  1.0000
  S   S3        1.0  0.87223  0.80054  0.06589  1.0000
  S   S4        1.0  0.12778  0.19945  0.93411  1.0000
  S   S5        1.0  0.31369  0.11732  0.41652  1.0000
  S   S6        1.0  0.68630  0.88268  0.58348  1.0000
  I   I1        1.0  0.69104  0.51184  0.88881  1.0000
  I   I2        1.0  0.30896  0.48816  0.11119  1.0000
  N   N1        1.0  0.73048  0.47544  0.18919  1.0000
  N   N2        1.0  0.26951  0.52456  0.81081  1.0000
  N   N3        1.0  0.57483  0.81105  0.10722  1.0000
  N   N4        1.0  0.42518  0.18894  0.89278  1.0000
  N   N5        1.0  0.78034  0.41218  0.37477  1.0000
  N   N6        1.0  0.21966  0.58783  0.62523  1.0000
  N   N7        1.0  0.70071  0.04518  0.11499  1.0000
  N   N8        1.0  0.29930  0.95481  0.88501  1.0000
  N   N9        1.0  0.26074  0.82450  0.39529  1.0000
  N   N10       1.0  0.73925  0.17551  0.60471  1.0000
  N   N11       1.0  0.05995  0.00552  0.36560  1.0000
  N   N12       1.0  0.94004  0.99449  0.63440  1.0000
