data_image0
_chemical_formula_structural       Cu4H32C36S8I4N16
_chemical_formula_sum              "Cu4 H32 C36 S8 I4 N16"
_cell_length_a       9.1798
_cell_length_b       9.17978
_cell_length_c       16.1085
_cell_angle_alpha    96.2108
_cell_angle_beta     96.2108
_cell_angle_gamma    101.416

_space_group_name_H-M_alt    "P 1"
_space_group_IT_number       1

loop_
  _space_group_symop_operation_xyz
  'x, y, z'

loop_
  _atom_site_type_symbol
  _atom_site_label
  _atom_site_symmetry_multiplicity
  _atom_site_fract_x
  _atom_site_fract_y
  _atom_site_fract_z
  _atom_site_occupancy
  Cu  Cu1       1.0  0.09295  0.56790  0.42815  1.0000
  Cu  Cu2       1.0  0.43210  0.90704  0.07185  1.0000
  Cu  Cu3       1.0  0.90705  0.43211  0.57185  1.0000
  Cu  Cu4       1.0  0.56790  0.09295  0.92816  1.0000
  H   H1        1.0  0.82991  0.98444  0.34885  1.0000
  H   H2        1.0  0.01556  0.17010  0.15115  1.0000
  H   H3        1.0  0.17010  0.01556  0.65115  1.0000
  H   H4        1.0  0.98443  0.82990  0.84885  1.0000
  H   H5        1.0  0.82055  0.90721  0.19276  1.0000
  H   H6        1.0  0.09278  0.17945  0.30724  1.0000
  H   H7        1.0  0.17945  0.09278  0.80724  1.0000
  H   H8        1.0  0.90721  0.82055  0.69276  1.0000
  H   H9        1.0  0.94098  0.82455  0.44790  1.0000
  H   H10       1.0  0.17545  0.05902  0.05210  1.0000
  H   H11       1.0  0.05902  0.17546  0.55210  1.0000
  H   H12       1.0  0.82454  0.94097  0.94790  1.0000
  H   H13       1.0  0.68229  0.73735  0.08197  1.0000
  H   H14       1.0  0.26265  0.31771  0.41803  1.0000
  H   H15       1.0  0.31771  0.26265  0.91803  1.0000
  H   H16       1.0  0.73735  0.68229  0.58197  1.0000
  H   H17       1.0  0.46510  0.30263  0.13665  1.0000
  H   H18       1.0  0.69737  0.53491  0.36335  1.0000
  H   H19       1.0  0.53491  0.69737  0.86335  1.0000
  H   H20       1.0  0.30264  0.46510  0.63666  1.0000
  H   H21       1.0  0.70285  0.47718  0.11733  1.0000
  H   H22       1.0  0.52282  0.29715  0.38267  1.0000
  H   H23       1.0  0.29715  0.52281  0.88266  1.0000
  H   H24       1.0  0.47718  0.70286  0.61734  1.0000
  H   H25       1.0  0.92583  0.51499  0.09712  1.0000
  H   H26       1.0  0.48501  0.07418  0.40288  1.0000
  H   H27       1.0  0.07417  0.48501  0.90288  1.0000
  H   H28       1.0  0.51500  0.92583  0.59712  1.0000
  H   H29       1.0  0.06182  0.39908  0.09258  1.0000
  H   H30       1.0  0.60091  0.93819  0.40742  1.0000
  H   H31       1.0  0.93819  0.60091  0.90742  1.0000
  H   H32       1.0  0.39909  0.06181  0.59258  1.0000
  C   C1        1.0  0.97951  0.65052  0.26561  1.0000
  C   C2        1.0  0.34947  0.02049  0.23439  1.0000
  C   C3        1.0  0.02049  0.34948  0.73439  1.0000
  C   C4        1.0  0.65053  0.97951  0.76561  1.0000
  C   C5        1.0  0.87034  0.88632  0.32507  1.0000
  C   C6        1.0  0.11367  0.12966  0.17493  1.0000
  C   C7        1.0  0.12965  0.11367  0.67493  1.0000
  C   C8        1.0  0.88632  0.87034  0.82508  1.0000
  C   C9        1.0  0.86722  0.84430  0.23913  1.0000
  C   C10       1.0  0.15569  0.13278  0.26086  1.0000
  C   C11       1.0  0.13278  0.15569  0.76086  1.0000
  C   C12       1.0  0.84430  0.86722  0.73914  1.0000
  C   C13       1.0  0.93203  0.80052  0.37936  1.0000
  C   C14       1.0  0.19948  0.06797  0.12064  1.0000
  C   C15       1.0  0.06797  0.19949  0.62064  1.0000
  C   C16       1.0  0.80051  0.93202  0.87936  1.0000
  C   C17       1.0  0.58546  0.65460  0.09250  1.0000
  C   C18       1.0  0.34540  0.41455  0.40750  1.0000
  C   C19       1.0  0.41455  0.34540  0.90750  1.0000
  C   C20       1.0  0.65460  0.58546  0.59250  1.0000
  C   C21       1.0  0.33136  0.59626  0.09824  1.0000
  C   C22       1.0  0.40373  0.66864  0.40176  1.0000
  C   C23       1.0  0.66864  0.40373  0.90176  1.0000
  C   C24       1.0  0.59627  0.33136  0.59824  1.0000
  C   C25       1.0  0.46450  0.41641  0.12268  1.0000
  C   C26       1.0  0.58359  0.53552  0.37732  1.0000
  C   C27       1.0  0.53551  0.58358  0.87732  1.0000
  C   C28       1.0  0.41642  0.46450  0.62268  1.0000
  C   C29       1.0  0.59651  0.51275  0.11149  1.0000
  C   C30       1.0  0.48725  0.40350  0.38851  1.0000
  C   C31       1.0  0.40350  0.48724  0.88851  1.0000
  C   C32       1.0  0.51276  0.59651  0.61149  1.0000
  C   C33       1.0  0.03906  0.50478  0.12085  1.0000
  C   C34       1.0  0.49522  0.96095  0.37915  1.0000
  C   C35       1.0  0.96094  0.49522  0.87915  1.0000
  C   C36       1.0  0.50478  0.03906  0.62085  1.0000
  S   S1        1.0  0.05616  0.49739  0.23311  1.0000
  S   S2        1.0  0.50261  0.94384  0.26690  1.0000
  S   S3        1.0  0.94384  0.50261  0.76690  1.0000
  S   S4        1.0  0.49739  0.05616  0.73310  1.0000
  S   S5        1.0  0.16418  0.66099  0.08898  1.0000
  S   S6        1.0  0.33900  0.83583  0.41102  1.0000
  S   S7        1.0  0.83582  0.33900  0.91102  1.0000
  S   S8        1.0  0.66100  0.16418  0.58898  1.0000
  I   I1        1.0  0.90388  0.30125  0.41568  1.0000
  I   I2        1.0  0.69875  0.09612  0.08432  1.0000
  I   I3        1.0  0.09612  0.69875  0.58432  1.0000
  I   I4        1.0  0.30125  0.90389  0.91569  1.0000
  N   N1        1.0  0.98726  0.68205  0.35073  1.0000
  N   N2        1.0  0.31794  0.01274  0.14927  1.0000
  N   N3        1.0  0.01274  0.31795  0.64927  1.0000
  N   N4        1.0  0.68205  0.98726  0.85073  1.0000
  N   N5        1.0  0.92122  0.72656  0.20902  1.0000
  N   N6        1.0  0.27343  0.07878  0.29098  1.0000
  N   N7        1.0  0.07878  0.27343  0.79098  1.0000
  N   N8        1.0  0.72657  0.92122  0.70902  1.0000
  N   N9        1.0  0.45392  0.69928  0.08665  1.0000
  N   N10       1.0  0.30071  0.54609  0.41335  1.0000
  N   N11       1.0  0.54609  0.30071  0.91335  1.0000
  N   N12       1.0  0.69929  0.45392  0.58666  1.0000
  N   N13       1.0  0.33181  0.45732  0.11548  1.0000
  N   N14       1.0  0.54267  0.66820  0.38451  1.0000
  N   N15       1.0  0.66820  0.54267  0.88452  1.0000
  N   N16       1.0  0.45733  0.33181  0.61549  1.0000
