data_image0
_chemical_formula_structural       CdH10C14N8
_chemical_formula_sum              "Cd1 H10 C14 N8"
_cell_length_a       7.82983
_cell_length_b       7.92682
_cell_length_c       7.92675
_cell_angle_alpha    112.313
_cell_angle_beta     105.15
_cell_angle_gamma    105.15

_space_group_name_H-M_alt    "P 1"
_space_group_IT_number       1

loop_
  _space_group_symop_operation_xyz
  'x, y, z'

loop_
  _atom_site_type_symbol
  _atom_site_label
  _atom_site_symmetry_multiplicity
  _atom_site_fract_x
  _atom_site_fract_y
  _atom_site_fract_z
  _atom_site_occupancy
  Cd  Cd1       1.0  0.99998  1.00000  1.00000  1.0000
  H   H1        1.0  0.36416  0.79024  0.79025  1.0000
  H   H2        1.0  0.63587  0.20976  0.20975  1.0000
  H   H3        1.0  0.29325  0.79088  0.46233  1.0000
  H   H4        1.0  0.70677  0.53767  0.20912  1.0000
  H   H5        1.0  0.70678  0.20911  0.53767  1.0000
  H   H6        1.0  0.29324  0.46232  0.79089  1.0000
  H   H7        1.0  0.15355  0.46375  0.14956  1.0000
  H   H8        1.0  0.84646  0.85044  0.53625  1.0000
  H   H9        1.0  0.84647  0.53625  0.85044  1.0000
  H   H10       1.0  0.15354  0.14955  0.46375  1.0000
  C   C1        1.0  0.35253  0.84206  0.15890  1.0000
  C   C2        1.0  0.64743  0.84111  0.15795  1.0000
  C   C3        1.0  0.64744  0.15795  0.84110  1.0000
  C   C4        1.0  0.35253  0.15890  0.84206  1.0000
  C   C5        1.0  0.30481  0.65130  0.65131  1.0000
  C   C6        1.0  0.69521  0.34870  0.34869  1.0000
  C   C7        1.0  0.26570  0.65265  0.47000  1.0000
  C   C8        1.0  0.73432  0.53000  0.34734  1.0000
  C   C9        1.0  0.73433  0.34735  0.53000  1.0000
  C   C10       1.0  0.26570  0.46999  0.65265  1.0000
  C   C11       1.0  0.18792  0.47173  0.29562  1.0000
  C   C12       1.0  0.81209  0.70437  0.52826  1.0000
  C   C13       1.0  0.81210  0.52827  0.70438  1.0000
  C   C14       1.0  0.18791  0.29562  0.47173  1.0000
  N   N1        1.0  0.14970  0.29699  0.29699  1.0000
  N   N2        1.0  0.85031  0.70300  0.70300  1.0000
  N   N3        1.0  0.49998  0.79792  0.20209  1.0000
  N   N4        1.0  0.49999  0.20210  0.79792  1.0000
  N   N5        1.0  0.21022  0.87160  0.12980  1.0000
  N   N6        1.0  0.78973  0.87021  0.12839  1.0000
  N   N7        1.0  0.78974  0.12840  0.87020  1.0000
  N   N8        1.0  0.21024  0.12980  0.87161  1.0000
