data_image0
_chemical_formula_structural       La2H12C18Cl6O18
_chemical_formula_sum              "La2 H12 C18 Cl6 O18"
_cell_length_a       7.70616
_cell_length_b       8.95729
_cell_length_c       11.7737
_cell_angle_alpha    73.8274
_cell_angle_beta     73.9695
_cell_angle_gamma    83.427

_space_group_name_H-M_alt    "P 1"
_space_group_IT_number       1

loop_
  _space_group_symop_operation_xyz
  'x, y, z'

loop_
  _atom_site_type_symbol
  _atom_site_label
  _atom_site_symmetry_multiplicity
  _atom_site_fract_x
  _atom_site_fract_y
  _atom_site_fract_z
  _atom_site_occupancy
  La  La1       1.0  0.11382  0.40795  0.17904  1.0000
  La  La2       1.0  0.88618  0.59205  0.82096  1.0000
  H   H1        1.0  0.29682  0.56452  0.87468  1.0000
  H   H2        1.0  0.70320  0.43548  0.12531  1.0000
  H   H3        1.0  0.21975  0.39738  0.90898  1.0000
  H   H4        1.0  0.78027  0.60261  0.09101  1.0000
  H   H5        1.0  0.20377  0.42109  0.41787  1.0000
  H   H6        1.0  0.79623  0.57893  0.58213  1.0000
  H   H7        1.0  0.27787  0.58183  0.34091  1.0000
  H   H8        1.0  0.72216  0.41817  0.65907  1.0000
  H   H9        1.0  0.55363  0.33044  0.05002  1.0000
  H   H10       1.0  0.44637  0.66956  0.94998  1.0000
  H   H11       1.0  0.46803  0.26232  0.18939  1.0000
  H   H12       1.0  0.53198  0.73769  0.81061  1.0000
  C   C1        1.0  0.97955  0.05565  0.18616  1.0000
  C   C2        1.0  0.02044  0.94434  0.81385  1.0000
  C   C3        1.0  0.14303  0.08074  0.07410  1.0000
  C   C4        1.0  0.85696  0.91926  0.92590  1.0000
  C   C5        1.0  0.22543  0.95518  0.02605  1.0000
  C   C6        1.0  0.77456  0.04482  0.97396  1.0000
  C   C7        1.0  0.17354  0.80348  0.09050  1.0000
  C   C8        1.0  0.82645  0.19652  0.90950  1.0000
  C   C9        1.0  0.00612  0.77804  0.19875  1.0000
  C   C10       1.0  0.99387  0.22195  0.80125  1.0000
  C   C11       1.0  0.92250  0.90345  0.24570  1.0000
  C   C12       1.0  0.07749  0.09655  0.75431  1.0000
  C   C13       1.0  0.96902  0.16470  0.45390  1.0000
  C   C14       1.0  0.03099  0.83530  0.54610  1.0000
  C   C15       1.0  0.13230  0.07478  0.39179  1.0000
  C   C16       1.0  0.86771  0.92523  0.60821  1.0000
  C   C17       1.0  0.84791  0.08598  0.56134  1.0000
  C   C18       1.0  0.15209  0.91402  0.43866  1.0000
  Cl  Cl1       1.0  0.40141  0.98968  0.89644  1.0000
  Cl  Cl2       1.0  0.59857  0.01032  0.10357  1.0000
  Cl  Cl3       1.0  0.74398  0.86924  0.37368  1.0000
  Cl  Cl4       1.0  0.25602  0.13075  0.62633  1.0000
  Cl  Cl5       1.0  0.66670  0.18783  0.63266  1.0000
  Cl  Cl6       1.0  0.33331  0.81217  0.36734  1.0000
  O   O1        1.0  0.90875  0.17747  0.21732  1.0000
  O   O2        1.0  0.09124  0.82253  0.78268  1.0000
  O   O3        1.0  0.19558  0.21905  0.03268  1.0000
  O   O4        1.0  0.80441  0.78095  0.96733  1.0000
  O   O5        1.0  0.25508  0.67885  0.06712  1.0000
  O   O6        1.0  0.74491  0.32116  0.93288  1.0000
  O   O7        1.0  0.95343  0.63947  0.24104  1.0000
  O   O8        1.0  0.04656  0.36052  0.75897  1.0000
  O   O9        1.0  0.95434  0.30821  0.40238  1.0000
  O   O10       1.0  0.04566  0.69179  0.59762  1.0000
  O   O11       1.0  0.23857  0.15654  0.29762  1.0000
  O   O12       1.0  0.76144  0.84346  0.70238  1.0000
  O   O13       1.0  0.18381  0.50698  0.90759  1.0000
  O   O14       1.0  0.81621  0.49301  0.09240  1.0000
  O   O15       1.0  0.26796  0.47590  0.33544  1.0000
  O   O16       1.0  0.73205  0.52410  0.66456  1.0000
  O   O17       1.0  0.47718  0.36005  0.12480  1.0000
  O   O18       1.0  0.52282  0.63995  0.87520  1.0000
