data_image0
_chemical_formula_structural       Y2H12C18Cl6O18
_chemical_formula_sum              "Y2 H12 C18 Cl6 O18"
_cell_length_a       9.13736
_cell_length_b       10.0666
_cell_length_c       10.8135
_cell_angle_alpha    65.5302
_cell_angle_beta     67.6385
_cell_angle_gamma    70.9408

_space_group_name_H-M_alt    "P 1"
_space_group_IT_number       1

loop_
  _space_group_symop_operation_xyz
  'x, y, z'

loop_
  _atom_site_type_symbol
  _atom_site_label
  _atom_site_symmetry_multiplicity
  _atom_site_fract_x
  _atom_site_fract_y
  _atom_site_fract_z
  _atom_site_occupancy
  Y   Y1        1.0  0.26090  0.35516  0.31225  1.0000
  Y   Y2        1.0  0.73910  0.64484  0.68775  1.0000
  H   H1        1.0  0.94116  0.57589  0.36631  1.0000
  H   H2        1.0  0.05882  0.42416  0.63370  1.0000
  H   H3        1.0  0.06515  0.64358  0.37086  1.0000
  H   H4        1.0  0.93488  0.35648  0.62907  1.0000
  H   H5        1.0  0.48917  0.32916  0.01741  1.0000
  H   H6        1.0  0.51066  0.67073  0.98258  1.0000
  H   H7        1.0  0.43950  0.17614  0.12404  1.0000
  H   H8        1.0  0.56044  0.82374  0.87608  1.0000
  H   H9        1.0  0.60334  0.19684  0.32901  1.0000
  H   H10       1.0  0.39670  0.80320  0.67091  1.0000
  H   H11       1.0  0.48963  0.08359  0.38792  1.0000
  H   H12       1.0  0.51042  0.91641  0.61216  1.0000
  C   C1        1.0  0.02547  0.12421  0.51614  1.0000
  C   C2        1.0  0.97448  0.87583  0.48391  1.0000
  C   C3        1.0  0.15187  0.04451  0.41458  1.0000
  C   C4        1.0  0.84810  0.95550  0.58549  1.0000
  C   C5        1.0  0.88124  0.07375  0.59968  1.0000
  C   C6        1.0  0.11873  0.92628  0.40038  1.0000
  C   C7        1.0  0.37458  0.43315  0.51973  1.0000
  C   C8        1.0  0.62543  0.56685  0.48024  1.0000
  C   C9        1.0  0.47764  0.50729  0.37074  1.0000
  C   C10       1.0  0.52237  0.49273  0.62922  1.0000
  C   C11       1.0  0.40445  0.42386  0.64165  1.0000
  C   C12       1.0  0.59557  0.57614  0.35831  1.0000
  C   C13       1.0  0.12018  0.52808  0.03960  1.0000
  C   C14       1.0  0.87987  0.47191  0.96037  1.0000
  C   C15       1.0  0.03274  0.39711  0.12744  1.0000
  C   C16       1.0  0.96731  0.60288  0.87255  1.0000
  C   C17       1.0  0.07196  0.63255  0.92052  1.0000
  C   C18       1.0  0.92811  0.36744  0.07945  1.0000
  Cl  Cl1       1.0  0.74393  0.15830  0.71984  1.0000
  Cl  Cl2       1.0  0.25607  0.84171  0.28023  1.0000
  Cl  Cl3       1.0  0.29436  0.32620  0.80580  1.0000
  Cl  Cl4       1.0  0.70566  0.67378  0.19418  1.0000
  Cl  Cl5       1.0  0.15000  0.79310  0.82522  1.0000
  Cl  Cl6       1.0  0.85007  0.20687  0.17473  1.0000
  O   O1        1.0  0.06247  0.23485  0.51718  1.0000
  O   O2        1.0  0.93748  0.76519  0.48284  1.0000
  O   O3        1.0  0.28179  0.09403  0.34817  1.0000
  O   O4        1.0  0.71821  0.90596  0.65193  1.0000
  O   O5        1.0  0.26181  0.38359  0.52262  1.0000
  O   O6        1.0  0.73819  0.61642  0.47736  1.0000
  O   O7        1.0  0.44573  0.50152  0.26844  1.0000
  O   O8        1.0  0.55424  0.49851  0.73153  1.0000
  O   O9        1.0  0.23019  0.52958  0.08252  1.0000
  O   O10       1.0  0.76985  0.47041  0.91746  1.0000
  O   O11       1.0  0.06339  0.32053  0.24474  1.0000
  O   O12       1.0  0.93664  0.67946  0.75525  1.0000
  O   O13       1.0  0.05913  0.56812  0.33788  1.0000
  O   O14       1.0  0.94085  0.43192  0.66208  1.0000
  O   O15       1.0  0.46209  0.26758  0.11719  1.0000
  O   O16       1.0  0.53785  0.73235  0.88282  1.0000
  O   O17       1.0  0.49922  0.17337  0.39633  1.0000
  O   O18       1.0  0.50082  0.82670  0.60361  1.0000
