data_image0
_chemical_formula_structural       Mn4H24C8O24
_chemical_formula_sum              "Mn4 H24 C8 O24"
_cell_length_a       7.09193
_cell_length_b       8.80503
_cell_length_c       9.57454
_cell_angle_alpha    97.841
_cell_angle_beta     89.9972
_cell_angle_gamma    90.0028

_space_group_name_H-M_alt    "P 1"
_space_group_IT_number       1

loop_
  _space_group_symop_operation_xyz
  'x, y, z'

loop_
  _atom_site_type_symbol
  _atom_site_label
  _atom_site_symmetry_multiplicity
  _atom_site_fract_x
  _atom_site_fract_y
  _atom_site_fract_z
  _atom_site_occupancy
  Mn  Mn1       1.0  0.00000  1.00000  1.00000  1.0000
  Mn  Mn2       1.0  0.50000  0.00000  0.50000  1.0000
  Mn  Mn3       1.0  0.50000  0.50000  0.00000  1.0000
  Mn  Mn4       1.0  0.00001  0.50000  0.50000  1.0000
  H   H1        1.0  0.75498  0.08876  0.75289  1.0000
  H   H2        1.0  0.25502  0.91119  0.74716  1.0000
  H   H3        1.0  0.24500  0.91123  0.24712  1.0000
  H   H4        1.0  0.74497  0.08882  0.25283  1.0000
  H   H5        1.0  0.36949  0.76179  0.95460  1.0000
  H   H6        1.0  0.86946  0.23820  0.54543  1.0000
  H   H7        1.0  0.63051  0.23820  0.04539  1.0000
  H   H8        1.0  0.13054  0.76181  0.45458  1.0000
  H   H9        1.0  0.04431  0.33251  0.87505  1.0000
  H   H10       1.0  0.54429  0.66733  0.62486  1.0000
  H   H11       1.0  0.95569  0.66749  0.12495  1.0000
  H   H12       1.0  0.45570  0.33268  0.37514  1.0000
  H   H13       1.0  0.58886  0.79739  0.98263  1.0000
  H   H14       1.0  0.08882  0.20258  0.51743  1.0000
  H   H15       1.0  0.41114  0.20260  0.01737  1.0000
  H   H16       1.0  0.91118  0.79742  0.48258  1.0000
  H   H17       1.0  0.39716  0.29342  0.76765  1.0000
  H   H18       1.0  0.89694  0.70656  0.73222  1.0000
  H   H19       1.0  0.60284  0.70657  0.23235  1.0000
  H   H20       1.0  0.10305  0.29344  0.26778  1.0000
  H   H21       1.0  0.34688  0.45908  0.72413  1.0000
  H   H22       1.0  0.84678  0.54093  0.77582  1.0000
  H   H23       1.0  0.65313  0.54092  0.27587  1.0000
  H   H24       1.0  0.15322  0.45906  0.22418  1.0000
  C   C1        1.0  0.80962  0.97521  0.70814  1.0000
  C   C2        1.0  0.30963  0.02477  0.79184  1.0000
  C   C3        1.0  0.19038  0.02479  0.29186  1.0000
  C   C4        1.0  0.69036  0.97523  0.20815  1.0000
  C   C5        1.0  0.90262  0.33191  0.92319  1.0000
  C   C6        1.0  0.40260  0.66809  0.57683  1.0000
  C   C7        1.0  0.09739  0.66810  0.07680  1.0000
  C   C8        1.0  0.59740  0.33191  0.42317  1.0000
  O   O1        1.0  0.91473  0.90456  0.78515  1.0000
  O   O2        1.0  0.41480  0.09535  0.71483  1.0000
  O   O3        1.0  0.08526  0.09543  0.21486  1.0000
  O   O4        1.0  0.58520  0.90466  0.28517  1.0000
  O   O5        1.0  0.49978  0.72553  0.92701  1.0000
  O   O6        1.0  0.99974  0.27447  0.57301  1.0000
  O   O7        1.0  0.50023  0.27446  0.07299  1.0000
  O   O8        1.0  0.00026  0.72553  0.42699  1.0000
  O   O9        1.0  0.76124  0.92253  0.58287  1.0000
  O   O10       1.0  0.26116  0.07755  0.91708  1.0000
  O   O11       1.0  0.23876  0.07747  0.41713  1.0000
  O   O12       1.0  0.73884  0.92245  0.08291  1.0000
  O   O13       1.0  0.37119  0.40188  0.80563  1.0000
  O   O14       1.0  0.87084  0.59812  0.69426  1.0000
  O   O15       1.0  0.62882  0.59812  0.19437  1.0000
  O   O16       1.0  0.12916  0.40188  0.30574  1.0000
  O   O17       1.0  0.79244  0.44203  0.90832  1.0000
  O   O18       1.0  0.29223  0.55808  0.59176  1.0000
  O   O19       1.0  0.20755  0.55797  0.09167  1.0000
  O   O20       1.0  0.70777  0.44192  0.40824  1.0000
  O   O21       1.0  0.85927  0.22005  0.98932  1.0000
  O   O22       1.0  0.35935  0.77998  0.51069  1.0000
  O   O23       1.0  0.14072  0.77994  0.01069  1.0000
  O   O24       1.0  0.64065  0.22003  0.48932  1.0000
