data_image0
_chemical_formula_structural       MnH26C12O16
_chemical_formula_sum              "Mn1 H26 C12 O16"
_cell_length_a       5.60974
_cell_length_b       7.09735
_cell_length_c       11.1431
_cell_angle_alpha    86.2881
_cell_angle_beta     83.0284
_cell_angle_gamma    79.0669

_space_group_name_H-M_alt    "P 1"
_space_group_IT_number       1

loop_
  _space_group_symop_operation_xyz
  'x, y, z'

loop_
  _atom_site_type_symbol
  _atom_site_label
  _atom_site_symmetry_multiplicity
  _atom_site_fract_x
  _atom_site_fract_y
  _atom_site_fract_z
  _atom_site_occupancy
  Mn  Mn1       1.0  0.49006  0.99102  0.49384  1.0000
  H   H1        1.0  0.15052  0.33548  0.40427  1.0000
  H   H2        1.0  0.54001  0.16867  0.15787  1.0000
  H   H3        1.0  0.21400  0.41657  0.01335  1.0000
  H   H4        1.0  0.99206  0.84364  0.06226  1.0000
  H   H5        1.0  0.23102  0.10395  0.06561  1.0000
  H   H6        1.0  0.43194  0.54477  0.68044  1.0000
  H   H7        1.0  0.60045  0.54892  0.93354  1.0000
  H   H8        1.0  0.86626  0.24882  0.07462  1.0000
  H   H9        1.0  0.88445  0.79013  0.88525  1.0000
  H   H10       1.0  0.39309  0.24097  0.68839  1.0000
  H   H11       1.0  0.02417  0.01435  0.46097  1.0000
  H   H12       1.0  0.09866  0.81249  0.53088  1.0000
  H   H13       1.0  0.76681  0.68696  0.37141  1.0000
  H   H14       1.0  0.79518  0.85474  0.27470  1.0000
  H   H15       1.0  0.39338  0.54746  0.39872  1.0000
  H   H16       1.0  0.67402  0.52498  0.20587  1.0000
  H   H17       1.0  0.15370  0.45510  0.20245  1.0000
  H   H18       1.0  0.25499  0.76950  0.26863  1.0000
  H   H19       1.0  0.40478  0.81503  0.99716  1.0000
  H   H20       1.0  0.60938  0.78533  0.10954  1.0000
  H   H21       1.0  0.86933  0.32018  0.64374  1.0000
  H   H22       1.0  0.06968  0.44137  0.80060  1.0000
  H   H23       1.0  0.68754  0.21932  0.92728  1.0000
  H   H24       1.0  0.89498  0.03744  0.75173  1.0000
  H   H25       1.0  0.33799  0.87140  0.77147  1.0000
  H   H26       1.0  0.36671  0.06949  0.85524  1.0000
  C   C1        1.0  0.72043  0.33940  0.41531  1.0000
  C   C2        1.0  0.47916  0.40706  0.36184  1.0000
  C   C3        1.0  0.53912  0.42955  0.22265  1.0000
  C   C4        1.0  0.30977  0.51816  0.15980  1.0000
  C   C5        1.0  0.24552  0.73679  0.17427  1.0000
  C   C6        1.0  0.42066  0.84047  0.09181  1.0000
  C   C7        1.0  0.80587  0.62762  0.63800  1.0000
  C   C8        1.0  0.76994  0.43550  0.70215  1.0000
  C   C9        1.0  0.87988  0.42041  0.82223  1.0000
  C   C10       1.0  0.87853  0.23113  0.89601  1.0000
  C   C11       1.0  0.99366  0.04602  0.83035  1.0000
  C   C12       1.0  0.26788  0.02429  0.78581  1.0000
  O   O1        1.0  0.75448  0.17680  0.47236  1.0000
  O   O2        1.0  0.32767  0.26865  0.39482  1.0000
  O   O3        1.0  0.66025  0.24800  0.17862  1.0000
  O   O4        1.0  0.34833  0.47675  0.03325  1.0000
  O   O5        1.0  0.99883  0.81011  0.15029  1.0000
  O   O6        1.0  0.37236  0.04221  0.10905  1.0000
  O   O7        1.0  0.87833  0.44756  0.39840  1.0000
  O   O8        1.0  0.16327  0.90638  0.46772  1.0000
  O   O9        1.0  0.69375  0.82212  0.35004  1.0000
  O   O10       1.0  0.61275  0.73573  0.60621  1.0000
  O   O11       1.0  0.51452  0.42551  0.72038  1.0000
  O   O12       1.0  0.75916  0.57770  0.89472  1.0000
  O   O13       1.0  0.99848  0.24272  0.00233  1.0000
  O   O14       1.0  0.96223  0.88926  0.91545  1.0000
  O   O15       1.0  0.31592  0.12965  0.67333  1.0000
  O   O16       1.0  0.02043  0.66135  0.62449  1.0000
