data_image0
_chemical_formula_structural       Mn4H48C24O20
_chemical_formula_sum              "Mn4 H48 C24 O20"
_cell_length_a       6.46451
_cell_length_b       11.7215
_cell_length_c       13.8169
_cell_angle_alpha    112.343
_cell_angle_beta     90.0261
_cell_angle_gamma    105.991

_space_group_name_H-M_alt    "P 1"
_space_group_IT_number       1

loop_
  _space_group_symop_operation_xyz
  'x, y, z'

loop_
  _atom_site_type_symbol
  _atom_site_label
  _atom_site_symmetry_multiplicity
  _atom_site_fract_x
  _atom_site_fract_y
  _atom_site_fract_z
  _atom_site_occupancy
  Mn  Mn1       1.0  0.74464  0.52715  0.76381  1.0000
  Mn  Mn2       1.0  0.21751  0.47301  0.73637  1.0000
  Mn  Mn3       1.0  0.25535  0.47285  0.23619  1.0000
  Mn  Mn4       1.0  0.78249  0.52699  0.26363  1.0000
  H   H1        1.0  0.48786  0.30053  0.62338  1.0000
  H   H2        1.0  0.18761  0.69972  0.87671  1.0000
  H   H3        1.0  0.51214  0.69948  0.37661  1.0000
  H   H4        1.0  0.81238  0.30028  0.12329  1.0000
  H   H5        1.0  0.46002  0.40134  0.56871  1.0000
  H   H6        1.0  0.05914  0.59896  0.93150  1.0000
  H   H7        1.0  0.53998  0.59867  0.43129  1.0000
  H   H8        1.0  0.94085  0.40105  0.06850  1.0000
  H   H9        1.0  0.27479  0.29829  0.98043  1.0000
  H   H10       1.0  0.97635  0.70192  0.51979  1.0000
  H   H11       1.0  0.72520  0.70171  0.01957  1.0000
  H   H12       1.0  0.02365  0.29808  0.48021  1.0000
  H   H13       1.0  0.55775  0.31866  0.98681  1.0000
  H   H14       1.0  0.23860  0.68109  0.51310  1.0000
  H   H15       1.0  0.44225  0.68133  0.01319  1.0000
  H   H16       1.0  0.76140  0.31891  0.48691  1.0000
  H   H17       1.0  0.98738  0.18121  0.72555  1.0000
  H   H18       1.0  0.80620  0.81893  0.77449  1.0000
  H   H19       1.0  0.01263  0.81879  0.27444  1.0000
  H   H20       1.0  0.19379  0.18107  0.22551  1.0000
  H   H21       1.0  0.03862  0.16909  0.59893  1.0000
  H   H22       1.0  0.86959  0.83109  0.90110  1.0000
  H   H23       1.0  0.96138  0.83090  0.40107  1.0000
  H   H24       1.0  0.13041  0.16891  0.09891  1.0000
  H   H25       1.0  0.49897  0.14011  0.80364  1.0000
  H   H26       1.0  0.35957  0.85962  0.69623  1.0000
  H   H27       1.0  0.50102  0.85988  0.19636  1.0000
  H   H28       1.0  0.64043  0.14038  0.30377  1.0000
  H   H29       1.0  0.21712  0.11868  0.80069  1.0000
  H   H30       1.0  0.09945  0.88146  0.69949  1.0000
  H   H31       1.0  0.78287  0.88131  0.19931  1.0000
  H   H32       1.0  0.90055  0.11854  0.30051  1.0000
  H   H33       1.0  0.35197  0.08357  0.89339  1.0000
  H   H34       1.0  0.26897  0.91636  0.60661  1.0000
  H   H35       1.0  0.64802  0.91642  0.10660  1.0000
  H   H36       1.0  0.73103  0.08364  0.39338  1.0000
  H   H37       1.0  0.88816  0.94783  0.59380  1.0000
  H   H38       1.0  0.94037  0.05224  0.90619  1.0000
  H   H39       1.0  0.11185  0.05217  0.40620  1.0000
  H   H40       1.0  0.05964  0.94776  0.09381  1.0000
  H   H41       1.0  0.69096  0.97583  0.52252  1.0000
  H   H42       1.0  0.71525  0.02436  0.97743  1.0000
  H   H43       1.0  0.30904  0.02417  0.47749  1.0000
  H   H44       1.0  0.28476  0.97565  0.02257  1.0000
  H   H45       1.0  0.65716  0.98484  0.65160  1.0000
  H   H46       1.0  0.67237  0.01531  0.84826  1.0000
  H   H47       1.0  0.34285  0.01516  0.34840  1.0000
  H   H48       1.0  0.32764  0.98470  0.15174  1.0000
  C   C1        1.0  0.43762  0.37962  0.87675  1.0000
  C   C2        1.0  0.05800  0.62040  0.62332  1.0000
  C   C3        1.0  0.56237  0.62037  0.12325  1.0000
  C   C4        1.0  0.94200  0.37960  0.37669  1.0000
  C   C5        1.0  0.41044  0.28927  0.93316  1.0000
  C   C6        1.0  0.12113  0.71072  0.56691  1.0000
  C   C7        1.0  0.58956  0.71072  0.06684  1.0000
  C   C8        1.0  0.87887  0.28929  0.43309  1.0000
  C   C9        1.0  0.36702  0.14973  0.85325  1.0000
  C   C10       1.0  0.21790  0.85024  0.64677  1.0000
  C   C11       1.0  0.63298  0.85027  0.14675  1.0000
  C   C12       1.0  0.78211  0.14976  0.35323  1.0000
  C   C13       1.0  0.77575  0.24092  0.65309  1.0000
  C   C14       1.0  0.53499  0.75924  0.84692  1.0000
  C   C15       1.0  0.22425  0.75909  0.34690  1.0000
  C   C16       1.0  0.46502  0.24076  0.15308  1.0000
  C   C17       1.0  0.90559  0.14920  0.64568  1.0000
  C   C18       1.0  0.75636  0.85098  0.85433  1.0000
  C   C19       1.0  0.09441  0.85080  0.35432  1.0000
  C   C20       1.0  0.24365  0.14902  0.14568  1.0000
  C   C21       1.0  0.77826  0.00648  0.60054  1.0000
  C   C22       1.0  0.77177  0.99369  0.89942  1.0000
  C   C23       1.0  0.22174  0.99352  0.39946  1.0000
  C   C24       1.0  0.22824  0.00631  0.10058  1.0000
  O   O1        1.0  0.44070  0.38391  0.63221  1.0000
  O   O2        1.0  0.05738  0.61618  0.86788  1.0000
  O   O3        1.0  0.55930  0.61609  0.36778  1.0000
  O   O4        1.0  0.94261  0.38382  0.13212  1.0000
  O   O5        1.0  0.62976  0.43856  0.86811  1.0000
  O   O6        1.0  0.19092  0.56121  0.63184  1.0000
  O   O7        1.0  0.37024  0.56143  0.13189  1.0000
  O   O8        1.0  0.80908  0.43879  0.36816  1.0000
  O   O9        1.0  0.87813  0.61320  0.66257  1.0000
  O   O10       1.0  0.26497  0.38708  0.83764  1.0000
  O   O11       1.0  0.12188  0.38680  0.33744  1.0000
  O   O12       1.0  0.73503  0.61291  0.16236  1.0000
  O   O13       1.0  0.88050  0.36310  0.69143  1.0000
  O   O14       1.0  0.51784  0.63711  0.80877  1.0000
  O   O15       1.0  0.11950  0.63690  0.30857  1.0000
  O   O16       1.0  0.48217  0.36290  0.19123  1.0000
  O   O17       1.0  0.57474  0.19879  0.62237  1.0000
  O   O18       1.0  0.37596  0.80129  0.87751  1.0000
  O   O19       1.0  0.42526  0.80121  0.37763  1.0000
  O   O20       1.0  0.62403  0.19871  0.12250  1.0000
