data_image0
_chemical_formula_structural       Cu6H24C48O24
_chemical_formula_sum              "Cu6 H24 C48 O24"
_cell_length_a       9.13138
_cell_length_b       9.13234
_cell_length_c       16.0201
_cell_angle_alpha    89.991
_cell_angle_beta     89.9927
_cell_angle_gamma    119.986

_space_group_name_H-M_alt    "P 1"
_space_group_IT_number       1

loop_
  _space_group_symop_operation_xyz
  'x, y, z'

loop_
  _atom_site_type_symbol
  _atom_site_label
  _atom_site_symmetry_multiplicity
  _atom_site_fract_x
  _atom_site_fract_y
  _atom_site_fract_z
  _atom_site_occupancy
  Cu  Cu1       1.0  0.50000  0.50000  1.00000  1.0000
  Cu  Cu2       1.0  0.50000  0.00000  1.00000  1.0000
  Cu  Cu3       1.0  0.00000  0.50000  0.00000  1.0000
  Cu  Cu4       1.0  0.50000  0.00000  0.50000  1.0000
  Cu  Cu5       1.0  1.00000  0.50000  0.50000  1.0000
  Cu  Cu6       1.0  0.50000  0.50000  0.50000  1.0000
  H   H1        1.0  0.13072  0.75845  0.11550  1.0000
  H   H2        1.0  0.24137  0.37220  0.11554  1.0000
  H   H3        1.0  0.62790  0.86929  0.11553  1.0000
  H   H4        1.0  0.75858  0.62784  0.61550  1.0000
  H   H5        1.0  0.37228  0.13075  0.61553  1.0000
  H   H6        1.0  0.86922  0.24137  0.61554  1.0000
  H   H7        1.0  0.86928  0.24155  0.88450  1.0000
  H   H8        1.0  0.75864  0.62781  0.88446  1.0000
  H   H9        1.0  0.37211  0.13071  0.88447  1.0000
  H   H10       1.0  0.24143  0.37216  0.38450  1.0000
  H   H11       1.0  0.62773  0.86926  0.38447  1.0000
  H   H12       1.0  0.13078  0.75863  0.38446  1.0000
  H   H13       1.0  0.28575  0.82881  0.24995  1.0000
  H   H14       1.0  0.17107  0.45684  0.25005  1.0000
  H   H15       1.0  0.54310  0.71433  0.25000  1.0000
  H   H16       1.0  0.82893  0.54316  0.74995  1.0000
  H   H17       1.0  0.45690  0.28567  0.75000  1.0000
  H   H18       1.0  0.71425  0.17119  0.75005  1.0000
  H   H19       1.0  0.65921  0.54235  0.25004  1.0000
  H   H20       1.0  0.45766  0.11684  0.24998  1.0000
  H   H21       1.0  0.88305  0.34076  0.24998  1.0000
  H   H22       1.0  0.54234  0.88317  0.75002  1.0000
  H   H23       1.0  0.11696  0.65925  0.75002  1.0000
  H   H24       1.0  0.34079  0.45766  0.74996  1.0000
  C   C1        1.0  0.78330  0.59752  0.09586  1.0000
  C   C2        1.0  0.40295  0.18612  0.09589  1.0000
  C   C3        1.0  0.81394  0.21691  0.09587  1.0000
  C   C4        1.0  0.59708  0.81400  0.59589  1.0000
  C   C5        1.0  0.18584  0.78336  0.59584  1.0000
  C   C6        1.0  0.21685  0.40299  0.59588  1.0000
  C   C7        1.0  0.21670  0.40247  0.90414  1.0000
  C   C8        1.0  0.59705  0.81388  0.90411  1.0000
  C   C9        1.0  0.18605  0.78309  0.90413  1.0000
  C   C10       1.0  0.40293  0.18600  0.40411  1.0000
  C   C11       1.0  0.81416  0.21665  0.40416  1.0000
  C   C12       1.0  0.78315  0.59701  0.40412  1.0000
  C   C13       1.0  0.88391  0.64392  0.17424  1.0000
  C   C14       1.0  0.35617  0.24011  0.17424  1.0000
  C   C15       1.0  0.75988  0.11613  0.17422  1.0000
  C   C16       1.0  0.64386  0.76000  0.67423  1.0000
  C   C17       1.0  0.24005  0.88393  0.67424  1.0000
  C   C18       1.0  0.11607  0.35627  0.67423  1.0000
  C   C19       1.0  0.11609  0.35607  0.82576  1.0000
  C   C20       1.0  0.64381  0.75987  0.82577  1.0000
  C   C21       1.0  0.24012  0.88387  0.82578  1.0000
  C   C22       1.0  0.35614  0.24000  0.32578  1.0000
  C   C23       1.0  0.75995  0.11606  0.32576  1.0000
  C   C24       1.0  0.88391  0.64373  0.32577  1.0000
  C   C25       1.0  0.06092  0.72421  0.17427  1.0000
  C   C26       1.0  0.27571  0.33672  0.17430  1.0000
  C   C27       1.0  0.66330  0.93912  0.17428  1.0000
  C   C28       1.0  0.72427  0.66335  0.67427  1.0000
  C   C29       1.0  0.33674  0.06094  0.67430  1.0000
  C   C30       1.0  0.93904  0.27580  0.67430  1.0000
  C   C31       1.0  0.93907  0.27579  0.82573  1.0000
  C   C32       1.0  0.72429  0.66328  0.82570  1.0000
  C   C33       1.0  0.33670  0.06087  0.82572  1.0000
  C   C34       1.0  0.27574  0.33664  0.32573  1.0000
  C   C35       1.0  0.66327  0.93907  0.32570  1.0000
  C   C36       1.0  0.06097  0.72420  0.32570  1.0000
  C   C37       1.0  0.14823  0.76440  0.24998  1.0000
  C   C38       1.0  0.23547  0.38371  0.25003  1.0000
  C   C39       1.0  0.61620  0.85184  0.24999  1.0000
  C   C40       1.0  0.76452  0.61628  0.74997  1.0000
  C   C41       1.0  0.38380  0.14816  0.75000  1.0000
  C   C42       1.0  0.85177  0.23560  0.75002  1.0000
  C   C43       1.0  0.79651  0.60553  0.25002  1.0000
  C   C44       1.0  0.39445  0.19093  0.24999  1.0000
  C   C45       1.0  0.80898  0.20349  0.24999  1.0000
  C   C46       1.0  0.60554  0.80906  0.75000  1.0000
  C   C47       1.0  0.19103  0.79652  0.75001  1.0000
  C   C48       1.0  0.20349  0.39448  0.74998  1.0000
  O   O1        1.0  0.63596  0.58114  0.10117  1.0000
  O   O2        1.0  0.41903  0.05506  0.10106  1.0000
  O   O3        1.0  0.94470  0.36416  0.10110  1.0000
  O   O4        1.0  0.58053  0.94480  0.60113  1.0000
  O   O5        1.0  0.05490  0.63608  0.60114  1.0000
  O   O6        1.0  0.36403  0.41911  0.60108  1.0000
  O   O7        1.0  0.36405  0.41890  0.89883  1.0000
  O   O8        1.0  0.58096  0.94493  0.89893  1.0000
  O   O9        1.0  0.05530  0.63586  0.89890  1.0000
  O   O10       1.0  0.41944  0.05521  0.39887  1.0000
  O   O11       1.0  0.94511  0.36391  0.39886  1.0000
  O   O12       1.0  0.63597  0.58087  0.39893  1.0000
  O   O13       1.0  0.83757  0.57477  0.02629  1.0000
  O   O14       1.0  0.42652  0.26354  0.02635  1.0000
  O   O15       1.0  0.73675  0.16280  0.02630  1.0000
  O   O16       1.0  0.57390  0.73674  0.52636  1.0000
  O   O17       1.0  0.26289  0.83761  0.52628  1.0000
  O   O18       1.0  0.16301  0.42648  0.52633  1.0000
  O   O19       1.0  0.16241  0.42524  0.97370  1.0000
  O   O20       1.0  0.57351  0.73648  0.97365  1.0000
  O   O21       1.0  0.26325  0.83719  0.97370  1.0000
  O   O22       1.0  0.42605  0.26323  0.47365  1.0000
  O   O23       1.0  0.73712  0.16235  0.47372  1.0000
  O   O24       1.0  0.83702  0.57354  0.47367  1.0000
