data_image0
_chemical_formula_structural       Zn4H40C40N8O24
_chemical_formula_sum              "Zn4 H40 C40 N8 O24"
_cell_length_a       7.92588
_cell_length_b       10.3413
_cell_length_c       15.1663
_cell_angle_alpha    89.9998
_cell_angle_beta     90
_cell_angle_gamma    91.6483

_space_group_name_H-M_alt    "P 1"
_space_group_IT_number       1

loop_
  _space_group_symop_operation_xyz
  'x, y, z'

loop_
  _atom_site_type_symbol
  _atom_site_label
  _atom_site_symmetry_multiplicity
  _atom_site_fract_x
  _atom_site_fract_y
  _atom_site_fract_z
  _atom_site_occupancy
  Zn  Zn1       1.0  0.10309  0.40897  0.42249  1.0000
  Zn  Zn2       1.0  0.89691  0.09103  0.92249  1.0000
  Zn  Zn3       1.0  0.89691  0.59104  0.57751  1.0000
  Zn  Zn4       1.0  0.10309  0.90897  0.07751  1.0000
  H   H1        1.0  0.62933  0.51001  0.44914  1.0000
  H   H2        1.0  0.37067  0.98999  0.94914  1.0000
  H   H3        1.0  0.37067  0.48999  0.55087  1.0000
  H   H4        1.0  0.62933  0.01001  0.05086  1.0000
  H   H5        1.0  0.01796  0.69303  0.30990  1.0000
  H   H6        1.0  0.98204  0.80696  0.80990  1.0000
  H   H7        1.0  0.98204  0.30696  0.69010  1.0000
  H   H8        1.0  0.01796  0.19303  0.19010  1.0000
  H   H9        1.0  0.15604  0.12031  0.35092  1.0000
  H   H10       1.0  0.84396  0.37969  0.85092  1.0000
  H   H11       1.0  0.84396  0.87969  0.64908  1.0000
  H   H12       1.0  0.15604  0.62031  0.14908  1.0000
  H   H13       1.0  0.34767  0.09983  0.56736  1.0000
  H   H14       1.0  0.65233  0.40017  0.06736  1.0000
  H   H15       1.0  0.65233  0.90017  0.43264  1.0000
  H   H16       1.0  0.34767  0.59983  0.93264  1.0000
  H   H17       1.0  0.35786  0.92533  0.56152  1.0000
  H   H18       1.0  0.64213  0.57467  0.06152  1.0000
  H   H19       1.0  0.64214  0.07467  0.43848  1.0000
  H   H20       1.0  0.35787  0.42533  0.93848  1.0000
  H   H21       1.0  0.16859  0.99962  0.59401  1.0000
  H   H22       1.0  0.83140  0.50038  0.09401  1.0000
  H   H23       1.0  0.83141  0.00038  0.40599  1.0000
  H   H24       1.0  0.16860  0.49962  0.90599  1.0000
  H   H25       1.0  0.18078  0.91087  0.34077  1.0000
  H   H26       1.0  0.81922  0.58913  0.84077  1.0000
  H   H27       1.0  0.81922  0.08913  0.65923  1.0000
  H   H28       1.0  0.18078  0.41087  0.15923  1.0000
  H   H29       1.0  0.13728  0.82118  0.44029  1.0000
  H   H30       1.0  0.86272  0.67882  0.94029  1.0000
  H   H31       1.0  0.86272  0.17882  0.55971  1.0000
  H   H32       1.0  0.13728  0.32118  0.05971  1.0000
  H   H33       1.0  0.34914  0.85044  0.40603  1.0000
  H   H34       1.0  0.65086  0.64956  0.90603  1.0000
  H   H35       1.0  0.65086  0.14956  0.59397  1.0000
  H   H36       1.0  0.34914  0.35044  0.09397  1.0000
  H   H37       1.0  0.50840  0.70985  0.20667  1.0000
  H   H38       1.0  0.49160  0.79015  0.70667  1.0000
  H   H39       1.0  0.49160  0.29015  0.79333  1.0000
  H   H40       1.0  0.50840  0.20985  0.29333  1.0000
  C   C1        1.0  0.36033  0.56619  0.33917  1.0000
  C   C2        1.0  0.63967  0.93381  0.83918  1.0000
  C   C3        1.0  0.63967  0.43381  0.66083  1.0000
  C   C4        1.0  0.36033  0.06619  0.16082  1.0000
  C   C5        1.0  0.54419  0.60682  0.32900  1.0000
  C   C6        1.0  0.45581  0.89319  0.82900  1.0000
  C   C7        1.0  0.45581  0.39319  0.67100  1.0000
  C   C8        1.0  0.54419  0.10681  0.17100  1.0000
  C   C9        1.0  0.76982  0.71381  0.24819  1.0000
  C   C10       1.0  0.23018  0.78619  0.74819  1.0000
  C   C11       1.0  0.23017  0.28619  0.75181  1.0000
  C   C12       1.0  0.76983  0.21381  0.25181  1.0000
  C   C13       1.0  0.66106  0.56795  0.39143  1.0000
  C   C14       1.0  0.33894  0.93205  0.89143  1.0000
  C   C15       1.0  0.33894  0.43205  0.60857  1.0000
  C   C16       1.0  0.66106  0.06795  0.10857  1.0000
  C   C17       1.0  0.88222  0.67462  0.31240  1.0000
  C   C18       1.0  0.11778  0.82538  0.81240  1.0000
  C   C19       1.0  0.11778  0.32538  0.68760  1.0000
  C   C20       1.0  0.88222  0.17461  0.18760  1.0000
  C   C21       1.0  0.18673  0.12453  0.42173  1.0000
  C   C22       1.0  0.81326  0.37547  0.92173  1.0000
  C   C23       1.0  0.81327  0.87547  0.57827  1.0000
  C   C24       1.0  0.18673  0.62453  0.07827  1.0000
  C   C25       1.0  0.83864  0.78871  0.17014  1.0000
  C   C26       1.0  0.16136  0.71129  0.67015  1.0000
  C   C27       1.0  0.16135  0.21129  0.82985  1.0000
  C   C28       1.0  0.83864  0.28871  0.32985  1.0000
  C   C29       1.0  0.27959  0.00935  0.55067  1.0000
  C   C30       1.0  0.72041  0.49065  0.05067  1.0000
  C   C31       1.0  0.72042  0.99066  0.44933  1.0000
  C   C32       1.0  0.27959  0.50935  0.94933  1.0000
  C   C33       1.0  0.22319  0.89199  0.40826  1.0000
  C   C34       1.0  0.77681  0.60801  0.90826  1.0000
  C   C35       1.0  0.77681  0.10801  0.59174  1.0000
  C   C36       1.0  0.22319  0.39199  0.09174  1.0000
  C   C37       1.0  0.59863  0.68002  0.25640  1.0000
  C   C38       1.0  0.40137  0.81998  0.75640  1.0000
  C   C39       1.0  0.40137  0.31998  0.74360  1.0000
  C   C40       1.0  0.59863  0.18002  0.24360  1.0000
  N   N1        1.0  0.22943  0.01265  0.45815  1.0000
  N   N2        1.0  0.77057  0.48735  0.95815  1.0000
  N   N3        1.0  0.77057  0.98735  0.54185  1.0000
  N   N4        1.0  0.22943  0.51265  0.04185  1.0000
  N   N5        1.0  0.82582  0.60346  0.38176  1.0000
  N   N6        1.0  0.17418  0.89655  0.88176  1.0000
  N   N7        1.0  0.17417  0.39654  0.61824  1.0000
  N   N8        1.0  0.82583  0.10345  0.11824  1.0000
  O   O1        1.0  0.93960  0.56841  0.44180  1.0000
  O   O2        1.0  0.06040  0.93158  0.94180  1.0000
  O   O3        1.0  0.06040  0.43158  0.55820  1.0000
  O   O4        1.0  0.93960  0.06842  0.05820  1.0000
  O   O5        1.0  0.33058  0.48660  0.40327  1.0000
  O   O6        1.0  0.66942  0.01340  0.90327  1.0000
  O   O7        1.0  0.66942  0.51340  0.59673  1.0000
  O   O8        1.0  0.33058  0.98660  0.09673  1.0000
  O   O9        1.0  0.25562  0.60976  0.28631  1.0000
  O   O10       1.0  0.74438  0.89024  0.78631  1.0000
  O   O11       1.0  0.74438  0.39024  0.71369  1.0000
  O   O12       1.0  0.25562  0.10976  0.21369  1.0000
  O   O13       1.0  0.98572  0.84318  0.18409  1.0000
  O   O14       1.0  0.01428  0.65682  0.68409  1.0000
  O   O15       1.0  0.01427  0.15682  0.81591  1.0000
  O   O16       1.0  0.98573  0.34318  0.31591  1.0000
  O   O17       1.0  0.18519  0.22822  0.46531  1.0000
  O   O18       1.0  0.81481  0.27178  0.96531  1.0000
  O   O19       1.0  0.81481  0.77179  0.53469  1.0000
  O   O20       1.0  0.18519  0.72822  0.03469  1.0000
  O   O21       1.0  0.75560  0.79150  0.10049  1.0000
  O   O22       1.0  0.24440  0.70850  0.60049  1.0000
  O   O23       1.0  0.24440  0.20850  0.89951  1.0000
  O   O24       1.0  0.75560  0.29150  0.39951  1.0000
