data_image0
_chemical_formula_structural       Sn2H30C24N4O6
_chemical_formula_sum              "Sn2 H30 C24 N4 O6"
_cell_length_a       8.30873
_cell_length_b       8.83033
_cell_length_c       9.65265
_cell_angle_alpha    67.7611
_cell_angle_beta     80.2445
_cell_angle_gamma    74.727

_space_group_name_H-M_alt    "P 1"
_space_group_IT_number       1

loop_
  _space_group_symop_operation_xyz
  'x, y, z'

loop_
  _atom_site_type_symbol
  _atom_site_label
  _atom_site_symmetry_multiplicity
  _atom_site_fract_x
  _atom_site_fract_y
  _atom_site_fract_z
  _atom_site_occupancy
  Sn  Sn1       1.0  0.35034  0.03043  0.85138  1.0000
  Sn  Sn2       1.0  0.64966  0.96957  0.14862  1.0000
  H   H1        1.0  0.17019  0.59766  0.94536  1.0000
  H   H2        1.0  0.82981  0.40234  0.05465  1.0000
  H   H3        1.0  0.09574  0.14030  0.41268  1.0000
  H   H4        1.0  0.90426  0.85970  0.58732  1.0000
  H   H5        1.0  0.91619  0.16119  0.53363  1.0000
  H   H6        1.0  0.08382  0.83881  0.46637  1.0000
  H   H7        1.0  0.58524  0.35616  0.44761  1.0000
  H   H8        1.0  0.41476  0.64384  0.55239  1.0000
  H   H9        1.0  0.62379  0.14152  0.69251  1.0000
  H   H10       1.0  0.37621  0.85848  0.30750  1.0000
  H   H11       1.0  0.53934  0.04763  0.59352  1.0000
  H   H12       1.0  0.46066  0.95237  0.40648  1.0000
  H   H13       1.0  0.66192  0.91755  0.75022  1.0000
  H   H14       1.0  0.33807  0.08245  0.24978  1.0000
  H   H15       1.0  0.35380  0.25008  0.40906  1.0000
  H   H16       1.0  0.64619  0.74992  0.59094  1.0000
  H   H17       1.0  0.20485  0.40077  0.17460  1.0000
  H   H18       1.0  0.79515  0.59923  0.82541  1.0000
  H   H19       1.0  0.77498  0.49063  0.47088  1.0000
  H   H20       1.0  0.22503  0.50937  0.52913  1.0000
  H   H21       1.0  0.91624  0.58686  0.32327  1.0000
  H   H22       1.0  0.08376  0.41314  0.67673  1.0000
  H   H23       1.0  0.85147  0.40721  0.32152  1.0000
  H   H24       1.0  0.14853  0.59279  0.67849  1.0000
  H   H25       1.0  0.18831  0.20494  0.02856  1.0000
  H   H26       1.0  0.81169  0.79506  0.97144  1.0000
  H   H27       1.0  0.13546  0.00331  0.09817  1.0000
  H   H28       1.0  0.86454  0.99668  0.90183  1.0000
  H   H29       1.0  0.04122  0.16514  0.93704  1.0000
  H   H30       1.0  0.95878  0.83486  0.06297  1.0000
  C   C1        1.0  0.13243  0.01069  0.64376  1.0000
  C   C2        1.0  0.86757  0.98931  0.35624  1.0000
  C   C3        1.0  0.24747  0.67379  0.95887  1.0000
  C   C4        1.0  0.75253  0.32621  0.04114  1.0000
  C   C5        1.0  0.45628  0.67474  0.12106  1.0000
  C   C6        1.0  0.54372  0.32526  0.87894  1.0000
  C   C7        1.0  0.33429  0.60422  0.09327  1.0000
  C   C8        1.0  0.66571  0.39578  0.90674  1.0000
  C   C9        1.0  0.55107  0.57520  0.24806  1.0000
  C   C10       1.0  0.44893  0.42480  0.75195  1.0000
  C   C11       1.0  0.02687  0.06882  0.51344  1.0000
  C   C12       1.0  0.97314  0.93118  0.48656  1.0000
  C   C13       1.0  0.51354  0.42620  0.34987  1.0000
  C   C14       1.0  0.48646  0.57380  0.65013  1.0000
  C   C15       1.0  0.57221  0.03539  0.70294  1.0000
  C   C16       1.0  0.42779  0.96461  0.29706  1.0000
  C   C17       1.0  0.38520  0.36453  0.32636  1.0000
  C   C18       1.0  0.61480  0.63547  0.67364  1.0000
  C   C19       1.0  0.30036  0.45040  0.19813  1.0000
  C   C20       1.0  0.69964  0.54959  0.80187  1.0000
  C   C21       1.0  0.81403  0.52120  0.35059  1.0000
  C   C22       1.0  0.18597  0.47880  0.64941  1.0000
  C   C23       1.0  0.15445  0.11102  0.99785  1.0000
  C   C24       1.0  0.84555  0.88898  0.00215  1.0000
  N   N1        1.0  0.15462  0.85153  0.73309  1.0000
  N   N2        1.0  0.84538  0.14847  0.26691  1.0000
  N   N3        1.0  0.24912  0.81718  0.85042  1.0000
  N   N4        1.0  0.75088  0.18283  0.14958  1.0000
  O   O1        1.0  0.49087  0.82129  0.03411  1.0000
  O   O2        1.0  0.50913  0.17871  0.96590  1.0000
  O   O3        1.0  0.19117  0.12489  0.66056  1.0000
  O   O4        1.0  0.80884  0.87511  0.33944  1.0000
  O   O5        1.0  0.68075  0.63793  0.26107  1.0000
  O   O6        1.0  0.31925  0.36207  0.73893  1.0000
