data_image0
_chemical_formula_structural       Gd2P2H6C2O12
_chemical_formula_sum              "Gd2 P2 H6 C2 O12"
_cell_length_a       6.54107
_cell_length_b       6.95459
_cell_length_c       8.18563
_cell_angle_alpha    114.394
_cell_angle_beta     98.7407
_cell_angle_gamma    90.2107

_space_group_name_H-M_alt    "P 1"
_space_group_IT_number       1

loop_
  _space_group_symop_operation_xyz
  'x, y, z'

loop_
  _atom_site_type_symbol
  _atom_site_label
  _atom_site_symmetry_multiplicity
  _atom_site_fract_x
  _atom_site_fract_y
  _atom_site_fract_z
  _atom_site_occupancy
  Gd  Gd1       1.0  0.12064  0.21798  0.93443  1.0000
  Gd  Gd2       1.0  0.87935  0.78203  0.06557  1.0000
  P   P1        1.0  0.67030  0.25311  0.01063  1.0000
  P   P2        1.0  0.32969  0.74688  0.98936  1.0000
  H   H1        1.0  0.64918  0.33706  0.19576  1.0000
  H   H2        1.0  0.35081  0.66294  0.80424  1.0000
  H   H3        1.0  0.10763  0.28809  0.30534  1.0000
  H   H4        1.0  0.89237  0.71192  0.69466  1.0000
  H   H5        1.0  0.11568  0.51546  0.30677  1.0000
  H   H6        1.0  0.88432  0.48453  0.69323  1.0000
  C   C1        1.0  0.99318  0.10996  0.49919  1.0000
  C   C2        1.0  0.00683  0.89006  0.50082  1.0000
  O   O1        1.0  0.80494  0.06071  0.97258  1.0000
  O   O2        1.0  0.19506  0.93929  0.02743  1.0000
  O   O3        1.0  0.45445  0.20007  0.89728  1.0000
  O   O4        1.0  0.54556  0.79993  0.10271  1.0000
  O   O5        1.0  0.80572  0.41575  0.98128  1.0000
  O   O6        1.0  0.19428  0.58425  0.01872  1.0000
  O   O7        1.0  0.02191  0.26676  0.65287  1.0000
  O   O8        1.0  0.97811  0.73323  0.34714  1.0000
  O   O9        1.0  0.04468  0.88524  0.65514  1.0000
  O   O10       1.0  0.95530  0.11476  0.34486  1.0000
  O   O11       1.0  0.17656  0.37622  0.25734  1.0000
  O   O12       1.0  0.82343  0.62379  0.74267  1.0000
