data_image0
_chemical_formula_structural       Pr2P2H6C2O12
_chemical_formula_sum              "Pr2 P2 H6 C2 O12"
_cell_length_a       6.73177
_cell_length_b       7.13936
_cell_length_c       8.32345
_cell_angle_alpha    114.268
_cell_angle_beta     95.622
_cell_angle_gamma    90.4336

_space_group_name_H-M_alt    "P 1"
_space_group_IT_number       1

loop_
  _space_group_symop_operation_xyz
  'x, y, z'

loop_
  _atom_site_type_symbol
  _atom_site_label
  _atom_site_symmetry_multiplicity
  _atom_site_fract_x
  _atom_site_fract_y
  _atom_site_fract_z
  _atom_site_occupancy
  Pr  Pr1       1.0  0.12815  0.21788  0.93269  1.0000
  Pr  Pr2       1.0  0.87186  0.78210  0.06731  1.0000
  P   P1        1.0  0.67373  0.25280  0.01421  1.0000
  P   P2        1.0  0.32628  0.74719  0.98574  1.0000
  H   H1        1.0  0.64187  0.33019  0.19479  1.0000
  H   H2        1.0  0.35810  0.66985  0.80528  1.0000
  H   H3        1.0  0.08231  0.29252  0.30939  1.0000
  H   H4        1.0  0.91769  0.70748  0.69061  1.0000
  H   H5        1.0  0.09518  0.51468  0.31059  1.0000
  H   H6        1.0  0.90483  0.48532  0.68942  1.0000
  C   C1        1.0  0.99134  0.10776  0.49935  1.0000
  C   C2        1.0  0.00869  0.89219  0.50064  1.0000
  O   O1        1.0  0.80556  0.06479  0.97552  1.0000
  O   O2        1.0  0.19447  0.93516  0.02450  1.0000
  O   O3        1.0  0.47091  0.20279  0.90447  1.0000
  O   O4        1.0  0.52902  0.79719  0.09551  1.0000
  O   O5        1.0  0.80564  0.41538  0.98864  1.0000
  O   O6        1.0  0.19439  0.58471  0.01137  1.0000
  O   O7        1.0  0.02586  0.26105  0.64750  1.0000
  O   O8        1.0  0.97411  0.73894  0.35245  1.0000
  O   O9        1.0  0.05529  0.88667  0.64954  1.0000
  O   O10       1.0  0.94471  0.11335  0.35049  1.0000
  O   O11       1.0  0.15282  0.37733  0.26132  1.0000
  O   O12       1.0  0.84719  0.62269  0.73869  1.0000
