data_image0
_chemical_formula_structural       Nd2P2H6C2O12
_chemical_formula_sum              "Nd2 P2 H6 C2 O12"
_cell_length_a       6.70034
_cell_length_b       7.09516
_cell_length_c       8.31534
_cell_angle_alpha    114.394
_cell_angle_beta     97.6156
_cell_angle_gamma    90.2568

_space_group_name_H-M_alt    "P 1"
_space_group_IT_number       1

loop_
  _space_group_symop_operation_xyz
  'x, y, z'

loop_
  _atom_site_type_symbol
  _atom_site_label
  _atom_site_symmetry_multiplicity
  _atom_site_fract_x
  _atom_site_fract_y
  _atom_site_fract_z
  _atom_site_occupancy
  Nd  Nd1       1.0  0.12564  0.21827  0.93446  1.0000
  Nd  Nd2       1.0  0.87438  0.78172  0.06553  1.0000
  P   P1        1.0  0.67424  0.25305  0.01172  1.0000
  P   P2        1.0  0.32577  0.74692  0.98828  1.0000
  H   H1        1.0  0.65210  0.33488  0.19399  1.0000
  H   H2        1.0  0.34789  0.66512  0.80598  1.0000
  H   H3        1.0  0.09322  0.29231  0.30967  1.0000
  H   H4        1.0  0.90678  0.70771  0.69033  1.0000
  H   H5        1.0  0.10237  0.51571  0.31085  1.0000
  H   H6        1.0  0.89763  0.48430  0.68917  1.0000
  C   C1        1.0  0.99306  0.10819  0.49909  1.0000
  C   C2        1.0  0.00695  0.89183  0.50089  1.0000
  O   O1        1.0  0.80517  0.06356  0.97368  1.0000
  O   O2        1.0  0.19484  0.93643  0.02634  1.0000
  O   O3        1.0  0.46499  0.20202  0.90273  1.0000
  O   O4        1.0  0.53499  0.79800  0.09729  1.0000
  O   O5        1.0  0.80541  0.41402  0.98300  1.0000
  O   O6        1.0  0.19456  0.58598  0.01702  1.0000
  O   O7        1.0  0.02372  0.26253  0.64929  1.0000
  O   O8        1.0  0.97629  0.73747  0.35069  1.0000
  O   O9        1.0  0.04717  0.88674  0.65198  1.0000
  O   O10       1.0  0.95284  0.11327  0.34803  1.0000
  O   O11       1.0  0.16131  0.37857  0.26220  1.0000
  O   O12       1.0  0.83870  0.62141  0.73782  1.0000
