data_image0
_chemical_formula_structural       Ho2P2H6C2O12
_chemical_formula_sum              "Ho2 P2 H6 C2 O12"
_cell_length_a       6.45969
_cell_length_b       6.86731
_cell_length_c       8.14646
_cell_angle_alpha    114.344
_cell_angle_beta     101.446
_cell_angle_gamma    90.1721

_space_group_name_H-M_alt    "P 1"
_space_group_IT_number       1

loop_
  _space_group_symop_operation_xyz
  'x, y, z'

loop_
  _atom_site_type_symbol
  _atom_site_label
  _atom_site_symmetry_multiplicity
  _atom_site_fract_x
  _atom_site_fract_y
  _atom_site_fract_z
  _atom_site_occupancy
  Ho  Ho1       1.0  0.11453  0.21832  0.93564  1.0000
  Ho  Ho2       1.0  0.88547  0.78167  0.06437  1.0000
  P   P1        1.0  0.66848  0.25270  0.00884  1.0000
  P   P2        1.0  0.33152  0.74729  0.99115  1.0000
  H   H1        1.0  0.66024  0.33945  0.19688  1.0000
  H   H2        1.0  0.33976  0.66056  0.80310  1.0000
  H   H3        1.0  0.12803  0.28776  0.30667  1.0000
  H   H4        1.0  0.87195  0.71223  0.69334  1.0000
  H   H5        1.0  0.13414  0.51715  0.30797  1.0000
  H   H6        1.0  0.86587  0.48284  0.69204  1.0000
  C   C1        1.0  0.99393  0.11125  0.49910  1.0000
  C   C2        1.0  0.00605  0.88875  0.50091  1.0000
  O   O1        1.0  0.80282  0.05775  0.96967  1.0000
  O   O2        1.0  0.19719  0.94225  0.03033  1.0000
  O   O3        1.0  0.44265  0.19861  0.89465  1.0000
  O   O4        1.0  0.55736  0.80138  0.10533  1.0000
  O   O5        1.0  0.80410  0.41557  0.97723  1.0000
  O   O6        1.0  0.19591  0.58443  0.02276  1.0000
  O   O7        1.0  0.01424  0.26942  0.65457  1.0000
  O   O8        1.0  0.98574  0.73058  0.34543  1.0000
  O   O9        1.0  0.03495  0.88411  0.65732  1.0000
  O   O10       1.0  0.96505  0.11590  0.34270  1.0000
  O   O11       1.0  0.19415  0.37686  0.25782  1.0000
  O   O12       1.0  0.80585  0.62316  0.74219  1.0000
