data_image0
_chemical_formula_structural       Er2P2H6C2O12
_chemical_formula_sum              "Er2 P2 H6 C2 O12"
_cell_length_a       6.43476
_cell_length_b       6.84898
_cell_length_c       8.12075
_cell_angle_alpha    114.291
_cell_angle_beta     101.825
_cell_angle_gamma    90.1833

_space_group_name_H-M_alt    "P 1"
_space_group_IT_number       1

loop_
  _space_group_symop_operation_xyz
  'x, y, z'

loop_
  _atom_site_type_symbol
  _atom_site_label
  _atom_site_symmetry_multiplicity
  _atom_site_fract_x
  _atom_site_fract_y
  _atom_site_fract_z
  _atom_site_occupancy
  Er  Er1       1.0  0.11394  0.21831  0.93552  1.0000
  Er  Er2       1.0  0.88605  0.78166  0.06444  1.0000
  P   P1        1.0  0.66805  0.25241  0.00849  1.0000
  P   P2        1.0  0.33194  0.74757  0.99149  1.0000
  H   H1        1.0  0.65968  0.33848  0.19692  1.0000
  H   H2        1.0  0.34028  0.66147  0.80307  1.0000
  H   H3        1.0  0.13377  0.28734  0.30656  1.0000
  H   H4        1.0  0.86623  0.71265  0.69344  1.0000
  H   H5        1.0  0.13947  0.51743  0.30764  1.0000
  H   H6        1.0  0.86057  0.48255  0.69235  1.0000
  C   C1        1.0  0.99342  0.11142  0.49894  1.0000
  C   C2        1.0  0.00657  0.88868  0.50109  1.0000
  O   O1        1.0  0.80308  0.05738  0.96917  1.0000
  O   O2        1.0  0.19692  0.94260  0.03082  1.0000
  O   O3        1.0  0.44070  0.19807  0.89307  1.0000
  O   O4        1.0  0.55930  0.80191  0.10690  1.0000
  O   O5        1.0  0.80452  0.41609  0.97770  1.0000
  O   O6        1.0  0.19548  0.58390  0.02231  1.0000
  O   O7        1.0  0.01042  0.26948  0.65478  1.0000
  O   O8        1.0  0.98960  0.73060  0.34527  1.0000
  O   O9        1.0  0.03287  0.88387  0.65789  1.0000
  O   O10       1.0  0.96710  0.11612  0.34209  1.0000
  O   O11       1.0  0.19918  0.37669  0.25724  1.0000
  O   O12       1.0  0.80086  0.62329  0.74277  1.0000
