data_image0
_chemical_formula_structural       Yb2P2H6C2O12
_chemical_formula_sum              "Yb2 P2 H6 C2 O12"
_cell_length_a       6.38164
_cell_length_b       6.81345
_cell_length_c       8.05114
_cell_angle_alpha    114.314
_cell_angle_beta     101.129
_cell_angle_gamma    90.2055

_space_group_name_H-M_alt    "P 1"
_space_group_IT_number       1

loop_
  _space_group_symop_operation_xyz
  'x, y, z'

loop_
  _atom_site_type_symbol
  _atom_site_label
  _atom_site_symmetry_multiplicity
  _atom_site_fract_x
  _atom_site_fract_y
  _atom_site_fract_z
  _atom_site_occupancy
  Yb  Yb1       1.0  0.11399  0.21831  0.93553  1.0000
  Yb  Yb2       1.0  0.88601  0.78168  0.06446  1.0000
  P   P1        1.0  0.66708  0.25286  0.00929  1.0000
  P   P2        1.0  0.33291  0.74713  0.99069  1.0000
  H   H1        1.0  0.65517  0.33883  0.19874  1.0000
  H   H2        1.0  0.34483  0.66116  0.80126  1.0000
  H   H3        1.0  0.12978  0.28535  0.30413  1.0000
  H   H4        1.0  0.87024  0.71468  0.69586  1.0000
  H   H5        1.0  0.13710  0.51654  0.30540  1.0000
  H   H6        1.0  0.86292  0.48343  0.69459  1.0000
  C   C1        1.0  0.99306  0.11146  0.49892  1.0000
  C   C2        1.0  0.00694  0.88854  0.50108  1.0000
  O   O1        1.0  0.80470  0.05754  0.96971  1.0000
  O   O2        1.0  0.19530  0.94246  0.03029  1.0000
  O   O3        1.0  0.43995  0.19725  0.89234  1.0000
  O   O4        1.0  0.56006  0.80274  0.10766  1.0000
  O   O5        1.0  0.80519  0.41749  0.97844  1.0000
  O   O6        1.0  0.19480  0.58251  0.02155  1.0000
  O   O7        1.0  0.01349  0.27048  0.65622  1.0000
  O   O8        1.0  0.98650  0.72952  0.34378  1.0000
  O   O9        1.0  0.03689  0.88425  0.65930  1.0000
  O   O10       1.0  0.96311  0.11576  0.34070  1.0000
  O   O11       1.0  0.19746  0.37483  0.25459  1.0000
  O   O12       1.0  0.80251  0.62518  0.74545  1.0000
