data_image0
_chemical_formula_structural       Cu2H30C46N6O8F8
_chemical_formula_sum              "Cu2 H30 C46 N6 O8 F8"
_cell_length_a       8.66749
_cell_length_b       8.76152
_cell_length_c       16.3945
_cell_angle_alpha    97.1938
_cell_angle_beta     90.0024
_cell_angle_gamma    119.638

_space_group_name_H-M_alt    "P 1"
_space_group_IT_number       1

loop_
  _space_group_symop_operation_xyz
  'x, y, z'

loop_
  _atom_site_type_symbol
  _atom_site_label
  _atom_site_symmetry_multiplicity
  _atom_site_fract_x
  _atom_site_fract_y
  _atom_site_fract_z
  _atom_site_occupancy
  Cu  Cu1       1.0  0.52268  0.00004  0.75003  1.0000
  Cu  Cu2       1.0  0.47732  0.99996  0.24997  1.0000
  H   H1        1.0  0.28599  0.89690  0.88714  1.0000
  H   H2        1.0  0.38913  0.10307  0.61285  1.0000
  H   H3        1.0  0.71402  0.10311  0.11286  1.0000
  H   H4        1.0  0.61086  0.89692  0.38714  1.0000
  H   H5        1.0  0.08153  0.61183  0.94050  1.0000
  H   H6        1.0  0.46952  0.38805  0.55947  1.0000
  H   H7        1.0  0.91848  0.38817  0.05950  1.0000
  H   H8        1.0  0.53048  0.61195  0.44052  1.0000
  H   H9        1.0  0.09419  0.33859  0.88573  1.0000
  H   H10       1.0  0.75541  0.66145  0.61423  1.0000
  H   H11       1.0  0.90581  0.66141  0.11427  1.0000
  H   H12       1.0  0.24459  0.33854  0.38577  1.0000
  H   H13       1.0  0.31868  0.36331  0.78259  1.0000
  H   H14       1.0  0.95528  0.63668  0.71732  1.0000
  H   H15       1.0  0.68133  0.63670  0.21741  1.0000
  H   H16       1.0  0.04472  0.36331  0.28268  1.0000
  H   H17       1.0  0.50564  0.65556  0.73296  1.0000
  H   H18       1.0  0.85008  0.34459  0.76703  1.0000
  H   H19       1.0  0.49437  0.34445  0.26704  1.0000
  H   H20       1.0  0.14991  0.65540  0.23297  1.0000
  H   H21       1.0  0.76350  0.99113  0.87551  1.0000
  H   H22       1.0  0.77220  0.00881  0.62453  1.0000
  H   H23       1.0  0.23650  0.00887  0.12449  1.0000
  H   H24       1.0  0.22780  0.99119  0.37547  1.0000
  H   H25       1.0  0.05034  0.98669  0.88077  1.0000
  H   H26       1.0  0.06359  0.01336  0.61916  1.0000
  H   H27       1.0  0.94967  0.01332  0.11923  1.0000
  H   H28       1.0  0.93641  0.98665  0.38084  1.0000
  H   H29       1.0  0.20449  0.00010  0.74999  1.0000
  H   H30       1.0  0.79552  0.99991  0.25001  1.0000
  C   C1        1.0  0.58692  0.25696  0.89586  1.0000
  C   C2        1.0  0.33004  0.74313  0.60415  1.0000
  C   C3        1.0  0.41304  0.74303  0.10413  1.0000
  C   C4        1.0  0.66994  0.25688  0.39586  1.0000
  C   C5        1.0  0.54245  0.38203  0.95015  1.0000
  C   C6        1.0  0.16050  0.61805  0.54981  1.0000
  C   C7        1.0  0.45755  0.61797  0.04985  1.0000
  C   C8        1.0  0.83950  0.38195  0.45019  1.0000
  C   C9        1.0  0.39691  0.31976  0.99832  1.0000
  C   C10       1.0  0.07701  0.68024  0.50172  1.0000
  C   C11       1.0  0.60308  0.68023  0.00168  1.0000
  C   C12       1.0  0.92299  0.31976  0.49828  1.0000
  C   C13       1.0  0.35526  0.43451  0.04702  1.0000
  C   C14       1.0  0.92053  0.56542  0.45307  1.0000
  C   C15       1.0  0.64474  0.56549  0.95298  1.0000
  C   C16       1.0  0.07948  0.43458  0.54693  1.0000
  C   C17       1.0  0.28604  0.77426  0.86558  1.0000
  C   C18       1.0  0.51176  0.22574  0.63441  1.0000
  C   C19       1.0  0.71397  0.22574  0.13443  1.0000
  C   C20       1.0  0.48823  0.77425  0.36558  1.0000
  C   C21       1.0  0.17345  0.61571  0.89463  1.0000
  C   C22       1.0  0.55761  0.38427  0.60535  1.0000
  C   C23       1.0  0.82655  0.38429  0.10537  1.0000
  C   C24       1.0  0.44240  0.61573  0.39465  1.0000
  C   C25       1.0  0.18246  0.46453  0.86450  1.0000
  C   C26       1.0  0.71776  0.53550  0.63546  1.0000
  C   C27       1.0  0.81754  0.53548  0.13550  1.0000
  C   C28       1.0  0.28224  0.46450  0.36454  1.0000
  C   C29       1.0  0.30528  0.47740  0.80686  1.0000
  C   C30       1.0  0.82777  0.52262  0.69307  1.0000
  C   C31       1.0  0.69473  0.52260  0.19313  1.0000
  C   C32       1.0  0.17223  0.47737  0.30694  1.0000
  C   C33       1.0  0.41213  0.64002  0.77990  1.0000
  C   C34       1.0  0.77206  0.36006  0.72009  1.0000
  C   C35       1.0  0.58787  0.35998  0.22010  1.0000
  C   C36       1.0  0.22794  0.63993  0.27991  1.0000
  C   C37       1.0  0.83389  0.99302  0.82035  1.0000
  C   C38       1.0  0.84082  0.00697  0.67965  1.0000
  C   C39       1.0  0.16612  0.00699  0.17965  1.0000
  C   C40       1.0  0.15918  0.99303  0.32035  1.0000
  C   C41       1.0  0.99389  0.99232  0.82267  1.0000
  C   C42       1.0  0.00158  0.00782  0.67729  1.0000
  C   C43       1.0  0.00611  0.00768  0.17733  1.0000
  C   C44       1.0  0.99842  0.99219  0.32271  1.0000
  C   C45       1.0  0.07935  0.00014  0.74998  1.0000
  C   C46       1.0  0.92066  0.99987  0.25002  1.0000
  N   N1        1.0  0.40189  0.78556  0.80857  1.0000
  N   N2        1.0  0.61631  0.21449  0.69146  1.0000
  N   N3        1.0  0.59811  0.21444  0.19143  1.0000
  N   N4        1.0  0.38369  0.78550  0.30854  1.0000
  N   N5        1.0  0.75909  0.99997  0.75002  1.0000
  N   N6        1.0  0.24091  0.00003  0.24999  1.0000
  O   O1        1.0  0.46150  0.15170  0.84057  1.0000
  O   O2        1.0  0.30989  0.84831  0.65948  1.0000
  O   O3        1.0  0.53848  0.84830  0.15942  1.0000
  O   O4        1.0  0.69011  0.15168  0.34052  1.0000
  O   O5        1.0  0.73406  0.26820  0.90825  1.0000
  O   O6        1.0  0.46599  0.73192  0.59176  1.0000
  O   O7        1.0  0.26593  0.73178  0.09175  1.0000
  O   O8        1.0  0.53403  0.26809  0.40825  1.0000
  F   F1        1.0  0.29191  0.14167  0.99892  1.0000
  F   F2        1.0  0.15015  0.85831  0.50102  1.0000
  F   F3        1.0  0.70808  0.85833  0.00108  1.0000
  F   F4        1.0  0.84985  0.14168  0.49898  1.0000
  F   F5        1.0  0.21281  0.36454  0.09348  1.0000
  F   F6        1.0  0.84809  0.63534  0.40652  1.0000
  F   F7        1.0  0.78719  0.63547  0.90652  1.0000
  F   F8        1.0  0.15191  0.36466  0.59348  1.0000
