data_image0
_chemical_formula_structural       Ni6H28C16O28
_chemical_formula_sum              "Ni6 H28 C16 O28"
_cell_length_a       6.30228
_cell_length_b       8.00688
_cell_length_c       15.5802
_cell_angle_alpha    90
_cell_angle_beta     94.2834
_cell_angle_gamma    90.0001

_space_group_name_H-M_alt    "P 1"
_space_group_IT_number       1

loop_
  _space_group_symop_operation_xyz
  'x, y, z'

loop_
  _atom_site_type_symbol
  _atom_site_label
  _atom_site_symmetry_multiplicity
  _atom_site_fract_x
  _atom_site_fract_y
  _atom_site_fract_z
  _atom_site_occupancy
  Ni  Ni1       1.0  0.51369  0.81173  0.52301  1.0000
  Ni  Ni2       1.0  0.51369  0.68827  0.02301  1.0000
  Ni  Ni3       1.0  0.48631  0.18827  0.47699  1.0000
  Ni  Ni4       1.0  0.48631  0.31173  0.97699  1.0000
  Ni  Ni5       1.0  1.00000  0.00000  0.50000  1.0000
  Ni  Ni6       1.0  0.00000  0.50000  1.00000  1.0000
  H   H1        1.0  0.24444  0.63740  0.25607  1.0000
  H   H2        1.0  0.24444  0.86260  0.75607  1.0000
  H   H3        1.0  0.75555  0.36260  0.74393  1.0000
  H   H4        1.0  0.75556  0.13740  0.24393  1.0000
  H   H5        1.0  0.79183  0.73869  0.30033  1.0000
  H   H6        1.0  0.79183  0.76130  0.80033  1.0000
  H   H7        1.0  0.20817  0.26131  0.69967  1.0000
  H   H8        1.0  0.20817  0.23869  0.19967  1.0000
  H   H9        1.0  0.32634  0.04440  0.59758  1.0000
  H   H10       1.0  0.32634  0.45560  0.09758  1.0000
  H   H11       1.0  0.67366  0.95560  0.40242  1.0000
  H   H12       1.0  0.67366  0.54440  0.90242  1.0000
  H   H13       1.0  0.85610  0.66761  0.48532  1.0000
  H   H14       1.0  0.85610  0.83239  0.98532  1.0000
  H   H15       1.0  0.14390  0.33239  0.51468  1.0000
  H   H16       1.0  0.14390  0.16761  0.01469  1.0000
  H   H17       1.0  0.68995  0.52580  0.47165  1.0000
  H   H18       1.0  0.68995  0.97420  0.97165  1.0000
  H   H19       1.0  0.31005  0.47420  0.52835  1.0000
  H   H20       1.0  0.31005  0.02580  0.02835  1.0000
  H   H21       1.0  0.19262  0.72196  0.60891  1.0000
  H   H22       1.0  0.19262  0.77804  0.10891  1.0000
  H   H23       1.0  0.80738  0.27804  0.39109  1.0000
  H   H24       1.0  0.80738  0.22196  0.89109  1.0000
  H   H25       1.0  0.41111  0.65137  0.65172  1.0000
  H   H26       1.0  0.41112  0.84863  0.15171  1.0000
  H   H27       1.0  0.58889  0.34863  0.34828  1.0000
  H   H28       1.0  0.58889  0.15137  0.84829  1.0000
  C   C1        1.0  0.18327  0.73511  0.38393  1.0000
  C   C2        1.0  0.18328  0.76489  0.88393  1.0000
  C   C3        1.0  0.81673  0.26490  0.61607  1.0000
  C   C4        1.0  0.81673  0.23511  0.11607  1.0000
  C   C5        1.0  0.11821  0.68254  0.29443  1.0000
  C   C6        1.0  0.11821  0.81746  0.79443  1.0000
  C   C7        1.0  0.88178  0.31746  0.70557  1.0000
  C   C8        1.0  0.88179  0.18254  0.20557  1.0000
  C   C9        1.0  0.85039  0.65812  0.16924  1.0000
  C   C10       1.0  0.85039  0.84187  0.66924  1.0000
  C   C11       1.0  0.14961  0.34188  0.83076  1.0000
  C   C12       1.0  0.14961  0.15812  0.33076  1.0000
  C   C13       1.0  0.91688  0.69746  0.26037  1.0000
  C   C14       1.0  0.91688  0.80254  0.76037  1.0000
  C   C15       1.0  0.08312  0.30254  0.73963  1.0000
  C   C16       1.0  0.08312  0.19746  0.23963  1.0000
  O   O1        1.0  0.03698  0.77532  0.43290  1.0000
  O   O2        1.0  0.03699  0.72468  0.93290  1.0000
  O   O3        1.0  0.96301  0.22468  0.56710  1.0000
  O   O4        1.0  0.96302  0.27532  0.06710  1.0000
  O   O5        1.0  0.38235  0.74144  0.40416  1.0000
  O   O6        1.0  0.38236  0.75857  0.90416  1.0000
  O   O7        1.0  0.61765  0.25857  0.59584  1.0000
  O   O8        1.0  0.61764  0.24144  0.09584  1.0000
  O   O9        1.0  0.65148  0.64527  0.14944  1.0000
  O   O10       1.0  0.65148  0.85473  0.64944  1.0000
  O   O11       1.0  0.34852  0.35473  0.85056  1.0000
  O   O12       1.0  0.34852  0.14527  0.35056  1.0000
  O   O13       1.0  0.99666  0.64056  0.11692  1.0000
  O   O14       1.0  0.99665  0.85944  0.61692  1.0000
  O   O15       1.0  0.00334  0.35944  0.88308  1.0000
  O   O16       1.0  0.00334  0.14056  0.38308  1.0000
  O   O17       1.0  0.31424  0.01455  0.53675  1.0000
  O   O18       1.0  0.31424  0.48545  0.03675  1.0000
  O   O19       1.0  0.68576  0.98545  0.46325  1.0000
  O   O20       1.0  0.68576  0.51455  0.96325  1.0000
  O   O21       1.0  0.73490  0.61544  0.51274  1.0000
  O   O22       1.0  0.73491  0.88456  0.01274  1.0000
  O   O23       1.0  0.26509  0.38456  0.48726  1.0000
  O   O24       1.0  0.26509  0.11544  0.98726  1.0000
  O   O25       1.0  0.31961  0.65041  0.59834  1.0000
  O   O26       1.0  0.31961  0.84959  0.09834  1.0000
  O   O27       1.0  0.68039  0.34959  0.40166  1.0000
  O   O28       1.0  0.68039  0.15041  0.90166  1.0000
