data_image0
_chemical_formula_structural       Cu2H28C48Br4N4O8
_chemical_formula_sum              "Cu2 H28 C48 Br4 N4 O8"
_cell_length_a       4.64742
_cell_length_b       12.6184
_cell_length_c       18.9549
_cell_angle_alpha    90.0003
_cell_angle_beta     89.9997
_cell_angle_gamma    94.7173

_space_group_name_H-M_alt    "P 1"
_space_group_IT_number       1

loop_
  _space_group_symop_operation_xyz
  'x, y, z'

loop_
  _atom_site_type_symbol
  _atom_site_label
  _atom_site_symmetry_multiplicity
  _atom_site_fract_x
  _atom_site_fract_y
  _atom_site_fract_z
  _atom_site_occupancy
  Cu  Cu1       1.0  0.00000  0.00000  1.00000  1.0000
  Cu  Cu2       1.0  0.50000  0.50000  0.50000  1.0000
  H   H1        1.0  0.83302  0.80349  0.17636  1.0000
  H   H2        1.0  0.66697  0.69651  0.67636  1.0000
  H   H3        1.0  0.16697  0.19651  0.82364  1.0000
  H   H4        1.0  0.33303  0.30349  0.32364  1.0000
  H   H5        1.0  0.75913  0.72922  0.29615  1.0000
  H   H6        1.0  0.74087  0.77078  0.79615  1.0000
  H   H7        1.0  0.24087  0.27078  0.70385  1.0000
  H   H8        1.0  0.25914  0.22922  0.20385  1.0000
  H   H9        1.0  0.13612  0.95697  0.33717  1.0000
  H   H10       1.0  0.36388  0.54303  0.83716  1.0000
  H   H11       1.0  0.86387  0.04303  0.66283  1.0000
  H   H12       1.0  0.63613  0.45697  0.16283  1.0000
  H   H13       1.0  0.21768  0.03124  0.21695  1.0000
  H   H14       1.0  0.28230  0.46876  0.71694  1.0000
  H   H15       1.0  0.78231  0.96876  0.78305  1.0000
  H   H16       1.0  0.71769  0.53124  0.28306  1.0000
  H   H17       1.0  0.52706  0.63708  0.37578  1.0000
  H   H18       1.0  0.97294  0.86292  0.87578  1.0000
  H   H19       1.0  0.47293  0.36292  0.62422  1.0000
  H   H20       1.0  0.02707  0.13708  0.12422  1.0000
  H   H21       1.0  0.26767  0.94286  0.44486  1.0000
  H   H22       1.0  0.23233  0.55714  0.94486  1.0000
  H   H23       1.0  0.73232  0.05714  0.55514  1.0000
  H   H24       1.0  0.76766  0.44286  0.05514  1.0000
  H   H25       1.0  0.31616  0.67497  0.58515  1.0000
  H   H26       1.0  0.18383  0.82503  0.08515  1.0000
  H   H27       1.0  0.68383  0.32503  0.41485  1.0000
  H   H28       1.0  0.81617  0.17497  0.91485  1.0000
  C   C1        1.0  0.58594  0.97321  0.11749  1.0000
  C   C2        1.0  0.91407  0.52679  0.61749  1.0000
  C   C3        1.0  0.41407  0.02679  0.88251  1.0000
  C   C4        1.0  0.08593  0.47321  0.38251  1.0000
  C   C5        1.0  0.53297  0.92333  0.18929  1.0000
  C   C6        1.0  0.96703  0.57666  0.68929  1.0000
  C   C7        1.0  0.46703  0.07667  0.81071  1.0000
  C   C8        1.0  0.03297  0.42334  0.31071  1.0000
  C   C9        1.0  0.67911  0.83645  0.21177  1.0000
  C   C10       1.0  0.82089  0.66355  0.71177  1.0000
  C   C11       1.0  0.32088  0.16355  0.78823  1.0000
  C   C12       1.0  0.17912  0.33645  0.28824  1.0000
  C   C13       1.0  0.63476  0.79432  0.27910  1.0000
  C   C14       1.0  0.86524  0.70568  0.77910  1.0000
  C   C15       1.0  0.36524  0.20568  0.72090  1.0000
  C   C16       1.0  0.13476  0.29432  0.22090  1.0000
  C   C17       1.0  0.44296  0.83834  0.32622  1.0000
  C   C18       1.0  0.05705  0.66166  0.82622  1.0000
  C   C19       1.0  0.55704  0.16166  0.67378  1.0000
  C   C20       1.0  0.94296  0.33834  0.17378  1.0000
  C   C21       1.0  0.29374  0.92418  0.30268  1.0000
  C   C22       1.0  0.20626  0.57582  0.80268  1.0000
  C   C23       1.0  0.70626  0.07583  0.69732  1.0000
  C   C24       1.0  0.79374  0.42417  0.19732  1.0000
  C   C25       1.0  0.33701  0.96578  0.23532  1.0000
  C   C26       1.0  0.16299  0.53421  0.73532  1.0000
  C   C27       1.0  0.66299  0.03422  0.76468  1.0000
  C   C28       1.0  0.83702  0.46578  0.26468  1.0000
  C   C29       1.0  0.45348  0.69158  0.41505  1.0000
  C   C30       1.0  0.04652  0.80842  0.91504  1.0000
  C   C31       1.0  0.54651  0.30843  0.58496  1.0000
  C   C32       1.0  0.95348  0.19158  0.08495  1.0000
  C   C33       1.0  0.40073  0.79663  0.39856  1.0000
  C   C34       1.0  0.09928  0.70337  0.89856  1.0000
  C   C35       1.0  0.59927  0.20337  0.60144  1.0000
  C   C36       1.0  0.90073  0.29663  0.10144  1.0000
  C   C37       1.0  0.30765  0.86006  0.45376  1.0000
  C   C38       1.0  0.19236  0.63994  0.95376  1.0000
  C   C39       1.0  0.69234  0.13995  0.54624  1.0000
  C   C40       1.0  0.80765  0.36006  0.04624  1.0000
  C   C41       1.0  0.27368  0.81576  0.52063  1.0000
  C   C42       1.0  0.22633  0.68424  0.02063  1.0000
  C   C43       1.0  0.72631  0.18425  0.47937  1.0000
  C   C44       1.0  0.77368  0.31576  0.97937  1.0000
  C   C45       1.0  0.33305  0.71116  0.53312  1.0000
  C   C46       1.0  0.16695  0.78884  0.03312  1.0000
  C   C47       1.0  0.66694  0.28884  0.46688  1.0000
  C   C48       1.0  0.83305  0.21116  0.96688  1.0000
  Br  Br1       1.0  0.15598  0.89776  0.59809  1.0000
  Br  Br2       1.0  0.34402  0.60225  0.09809  1.0000
  Br  Br3       1.0  0.84401  0.10224  0.40191  1.0000
  Br  Br4       1.0  0.65597  0.39776  0.90192  1.0000
  N   N1        1.0  0.42098  0.65130  0.48015  1.0000
  N   N2        1.0  0.07903  0.84870  0.98015  1.0000
  N   N3        1.0  0.57902  0.34870  0.51985  1.0000
  N   N4        1.0  0.92098  0.15130  0.01985  1.0000
  O   O1        1.0  0.81295  0.94285  0.08641  1.0000
  O   O2        1.0  0.68705  0.55715  0.58641  1.0000
  O   O3        1.0  0.18705  0.05715  0.91359  1.0000
  O   O4        1.0  0.31294  0.44285  0.41359  1.0000
  O   O5        1.0  0.41962  0.03807  0.09434  1.0000
  O   O6        1.0  0.08039  0.46193  0.59433  1.0000
  O   O7        1.0  0.58038  0.96193  0.90566  1.0000
  O   O8        1.0  0.91961  0.53807  0.40566  1.0000
