data_image0
_chemical_formula_structural       Tb2H12C18N6O14
_chemical_formula_sum              "Tb2 H12 C18 N6 O14"
_cell_length_a       7.08913
_cell_length_b       7.84988
_cell_length_c       10.3187
_cell_angle_alpha    90.7873
_cell_angle_beta     102.521
_cell_angle_gamma    102.662

_space_group_name_H-M_alt    "P 1"
_space_group_IT_number       1

loop_
  _space_group_symop_operation_xyz
  'x, y, z'

loop_
  _atom_site_type_symbol
  _atom_site_label
  _atom_site_symmetry_multiplicity
  _atom_site_fract_x
  _atom_site_fract_y
  _atom_site_fract_z
  _atom_site_occupancy
  Tb  Tb1       1.0  0.28194  0.29462  0.42355  1.0000
  Tb  Tb2       1.0  0.71806  0.70539  0.57646  1.0000
  H   H1        1.0  0.51906  0.97702  0.11562  1.0000
  H   H2        1.0  0.48094  0.02297  0.88438  1.0000
  H   H3        1.0  0.16294  0.48640  0.81419  1.0000
  H   H4        1.0  0.83707  0.51360  0.18581  1.0000
  H   H5        1.0  0.14094  0.08009  0.09180  1.0000
  H   H6        1.0  0.85906  0.91990  0.90820  1.0000
  H   H7        1.0  0.08037  0.16852  0.85446  1.0000
  H   H8        1.0  0.91964  0.83148  0.14554  1.0000
  H   H9        1.0  0.89061  0.05633  0.37341  1.0000
  H   H10       1.0  0.10940  0.94367  0.62659  1.0000
  H   H11       1.0  0.87568  0.15871  0.24234  1.0000
  H   H12       1.0  0.12431  0.84129  0.75766  1.0000
  C   C1        1.0  0.99403  0.54675  0.43430  1.0000
  C   C2        1.0  0.00598  0.45325  0.56570  1.0000
  C   C3        1.0  0.19638  0.44217  0.91424  1.0000
  C   C4        1.0  0.80362  0.55782  0.08576  1.0000
  C   C5        1.0  0.33012  0.50070  0.15081  1.0000
  C   C6        1.0  0.66989  0.49929  0.84919  1.0000
  C   C7        1.0  0.18396  0.21654  0.06915  1.0000
  C   C8        1.0  0.81604  0.78346  0.93085  1.0000
  C   C9        1.0  0.44015  0.62248  0.26312  1.0000
  C   C10       1.0  0.55985  0.37752  0.73688  1.0000
  C   C11       1.0  0.35163  0.75005  0.00761  1.0000
  C   C12       1.0  0.64837  0.24995  0.99239  1.0000
  C   C13       1.0  0.28939  0.56302  0.02283  1.0000
  C   C14       1.0  0.71061  0.43697  0.97717  1.0000
  C   C15       1.0  0.14679  0.26614  0.93742  1.0000
  C   C16       1.0  0.85321  0.73385  0.06258  1.0000
  C   C17       1.0  0.58722  0.04947  0.47070  1.0000
  C   C18       1.0  0.41276  0.95054  0.52930  1.0000
  N   N1        1.0  0.27202  0.32970  0.17404  1.0000
  N   N2        1.0  0.72798  0.67030  0.82596  1.0000
  N   N3        1.0  0.45049  0.84641  0.12222  1.0000
  N   N4        1.0  0.54951  0.15359  0.87778  1.0000
  N   N5        1.0  0.49740  0.79020  0.24639  1.0000
  N   N6        1.0  0.50260  0.20979  0.75361  1.0000
  O   O1        1.0  0.07953  0.49459  0.35100  1.0000
  O   O2        1.0  0.92046  0.50542  0.64900  1.0000
  O   O3        1.0  0.74161  0.98704  0.49064  1.0000
  O   O4        1.0  0.25838  0.01296  0.50936  1.0000
  O   O5        1.0  0.48406  0.56289  0.38155  1.0000
  O   O6        1.0  0.51593  0.43711  0.61846  1.0000
  O   O7        1.0  0.56310  0.18311  0.40849  1.0000
  O   O8        1.0  0.43688  0.81689  0.59151  1.0000
  O   O9        1.0  0.32167  0.82187  0.89796  1.0000
  O   O10       1.0  0.67833  0.17813  0.10204  1.0000
  O   O11       1.0  0.96971  0.11142  0.30964  1.0000
  O   O12       1.0  0.03030  0.88858  0.69036  1.0000
  O   O13       1.0  0.89873  0.66644  0.41907  1.0000
  O   O14       1.0  0.10126  0.33357  0.58093  1.0000
