data_image0
_chemical_formula_structural       La4H44C44O36
_chemical_formula_sum              "La4 H44 C44 O36"
_cell_length_a       7.91842
_cell_length_b       12.3915
_cell_length_c       12.9971
_cell_angle_alpha    89.664
_cell_angle_beta     89.9999
_cell_angle_gamma    90

_space_group_name_H-M_alt    "P 1"
_space_group_IT_number       1

loop_
  _space_group_symop_operation_xyz
  'x, y, z'

loop_
  _atom_site_type_symbol
  _atom_site_label
  _atom_site_symmetry_multiplicity
  _atom_site_fract_x
  _atom_site_fract_y
  _atom_site_fract_z
  _atom_site_occupancy
  La  La1       1.0  0.93416  0.52447  0.68480  1.0000
  La  La2       1.0  0.43416  0.47553  0.81520  1.0000
  La  La3       1.0  0.06584  0.47553  0.31520  1.0000
  La  La4       1.0  0.56583  0.52447  0.18481  1.0000
  H   H1        1.0  0.44656  0.92620  0.90357  1.0000
  H   H2        1.0  0.94657  0.07380  0.59642  1.0000
  H   H3        1.0  0.55343  0.07380  0.09643  1.0000
  H   H4        1.0  0.05344  0.92620  0.40357  1.0000
  H   H5        1.0  0.63598  0.76615  0.89839  1.0000
  H   H6        1.0  0.13599  0.23385  0.60160  1.0000
  H   H7        1.0  0.36402  0.23385  0.10161  1.0000
  H   H8        1.0  0.86402  0.76615  0.39839  1.0000
  H   H9        1.0  0.06419  0.97821  0.85862  1.0000
  H   H10       1.0  0.56420  0.02179  0.64137  1.0000
  H   H11       1.0  0.93580  0.02179  0.14137  1.0000
  H   H12       1.0  0.43580  0.97821  0.35863  1.0000
  H   H13       1.0  0.56468  0.11288  0.88472  1.0000
  H   H14       1.0  0.06468  0.88712  0.61528  1.0000
  H   H15       1.0  0.43532  0.88712  0.11528  1.0000
  H   H16       1.0  0.93532  0.11289  0.38472  1.0000
  H   H17       1.0  0.11210  0.13404  0.79502  1.0000
  H   H18       1.0  0.61210  0.86596  0.70498  1.0000
  H   H19       1.0  0.88790  0.86596  0.20499  1.0000
  H   H20       1.0  0.38790  0.13404  0.29501  1.0000
  H   H21       1.0  0.11537  0.15771  0.93029  1.0000
  H   H22       1.0  0.61537  0.84229  0.56971  1.0000
  H   H23       1.0  0.88463  0.84229  0.06971  1.0000
  H   H24       1.0  0.38463  0.15771  0.43029  1.0000
  H   H25       1.0  0.18168  0.82467  0.93898  1.0000
  H   H26       1.0  0.68169  0.17533  0.56102  1.0000
  H   H27       1.0  0.81832  0.17533  0.06102  1.0000
  H   H28       1.0  0.31832  0.82467  0.43899  1.0000
  H   H29       1.0  0.17544  0.82888  0.80107  1.0000
  H   H30       1.0  0.67544  0.17112  0.69893  1.0000
  H   H31       1.0  0.82456  0.17112  0.19893  1.0000
  H   H32       1.0  0.32456  0.82888  0.30107  1.0000
  H   H33       1.0  0.90807  0.57237  0.96182  1.0000
  H   H34       1.0  0.40806  0.42763  0.53818  1.0000
  H   H35       1.0  0.09194  0.42763  0.03818  1.0000
  H   H36       1.0  0.59194  0.57237  0.46182  1.0000
  H   H37       1.0  0.23518  0.67773  0.63226  1.0000
  H   H38       1.0  0.73518  0.32227  0.86774  1.0000
  H   H39       1.0  0.76481  0.32227  0.36774  1.0000
  H   H40       1.0  0.26482  0.67773  0.13226  1.0000
  H   H41       1.0  0.11434  0.67848  0.53466  1.0000
  H   H42       1.0  0.61434  0.32152  0.96534  1.0000
  H   H43       1.0  0.88567  0.32152  0.46534  1.0000
  H   H44       1.0  0.38566  0.67848  0.03466  1.0000
  C   C1        1.0  0.58195  0.93750  0.89292  1.0000
  C   C2        1.0  0.08195  0.06250  0.60708  1.0000
  C   C3        1.0  0.41805  0.06250  0.10708  1.0000
  C   C4        1.0  0.91805  0.93751  0.39292  1.0000
  C   C5        1.0  0.68691  0.84728  0.89050  1.0000
  C   C6        1.0  0.18691  0.15272  0.60949  1.0000
  C   C7        1.0  0.31309  0.15272  0.10950  1.0000
  C   C8        1.0  0.81309  0.84728  0.39051  1.0000
  C   C9        1.0  0.86067  0.86248  0.87637  1.0000
  C   C10       1.0  0.36068  0.13752  0.62362  1.0000
  C   C11       1.0  0.13932  0.13752  0.12363  1.0000
  C   C12       1.0  0.63933  0.86249  0.37637  1.0000
  C   C13       1.0  0.92932  0.96632  0.86784  1.0000
  C   C14       1.0  0.42933  0.03368  0.63215  1.0000
  C   C15       1.0  0.07067  0.03368  0.13216  1.0000
  C   C16       1.0  0.57067  0.96632  0.36784  1.0000
  C   C17       1.0  0.82038  0.05537  0.87093  1.0000
  C   C18       1.0  0.32038  0.94463  0.62906  1.0000
  C   C19       1.0  0.17962  0.94463  0.12907  1.0000
  C   C20       1.0  0.67962  0.05538  0.37093  1.0000
  C   C21       1.0  0.64579  0.04188  0.88263  1.0000
  C   C22       1.0  0.14580  0.95812  0.61737  1.0000
  C   C23       1.0  0.35421  0.95812  0.11738  1.0000
  C   C24       1.0  0.85420  0.04188  0.38262  1.0000
  C   C25       1.0  0.05269  0.17996  0.85757  1.0000
  C   C26       1.0  0.55269  0.82004  0.64243  1.0000
  C   C27       1.0  0.94731  0.82003  0.14244  1.0000
  C   C28       1.0  0.44731  0.17996  0.35756  1.0000
  C   C29       1.0  0.08528  0.29865  0.83451  1.0000
  C   C30       1.0  0.58528  0.70135  0.66549  1.0000
  C   C31       1.0  0.91472  0.70135  0.16550  1.0000
  C   C32       1.0  0.41472  0.29865  0.33451  1.0000
  C   C33       1.0  0.13501  0.78295  0.86999  1.0000
  C   C34       1.0  0.63502  0.21705  0.63001  1.0000
  C   C35       1.0  0.86499  0.21705  0.13001  1.0000
  C   C36       1.0  0.36499  0.78295  0.36999  1.0000
  C   C37       1.0  0.21898  0.67343  0.86316  1.0000
  C   C38       1.0  0.71899  0.32657  0.63684  1.0000
  C   C39       1.0  0.78102  0.32657  0.13685  1.0000
  C   C40       1.0  0.28103  0.67343  0.36316  1.0000
  C   C41       1.0  0.77727  0.55563  0.93677  1.0000
  C   C42       1.0  0.27727  0.44437  0.56323  1.0000
  C   C43       1.0  0.22273  0.44437  0.06323  1.0000
  C   C44       1.0  0.72273  0.55562  0.43676  1.0000
  O   O1        1.0  0.87543  0.15999  0.86265  1.0000
  O   O2        1.0  0.37543  0.84001  0.63735  1.0000
  O   O3        1.0  0.12457  0.84001  0.13735  1.0000
  O   O4        1.0  0.62457  0.16000  0.36265  1.0000
  O   O5        1.0  0.96218  0.36260  0.81820  1.0000
  O   O6        1.0  0.46219  0.63739  0.68181  1.0000
  O   O7        1.0  0.03782  0.63739  0.18181  1.0000
  O   O8        1.0  0.53780  0.36261  0.31819  1.0000
  O   O9        1.0  0.24027  0.32279  0.83277  1.0000
  O   O10       1.0  0.74028  0.67721  0.66723  1.0000
  O   O11       1.0  0.75973  0.67721  0.16724  1.0000
  O   O12       1.0  0.25971  0.32279  0.33277  1.0000
  O   O13       1.0  0.95661  0.77036  0.87308  1.0000
  O   O14       1.0  0.45661  0.22964  0.62692  1.0000
  O   O15       1.0  0.04339  0.22965  0.12692  1.0000
  O   O16       1.0  0.54339  0.77036  0.37308  1.0000
  O   O17       1.0  0.14438  0.59412  0.82042  1.0000
  O   O18       1.0  0.64438  0.40588  0.67958  1.0000
  O   O19       1.0  0.85562  0.40587  0.17958  1.0000
  O   O20       1.0  0.35562  0.59412  0.32042  1.0000
  O   O21       1.0  0.36830  0.66560  0.89807  1.0000
  O   O22       1.0  0.86831  0.33439  0.60194  1.0000
  O   O23       1.0  0.63169  0.33439  0.10195  1.0000
  O   O24       1.0  0.13170  0.66560  0.39806  1.0000
  O   O25       1.0  0.74909  0.54787  0.84026  1.0000
  O   O26       1.0  0.24909  0.45214  0.65974  1.0000
  O   O27       1.0  0.25091  0.45213  0.15974  1.0000
  O   O28       1.0  0.75091  0.54787  0.34025  1.0000
  O   O29       1.0  0.11552  0.67399  0.61075  1.0000
  O   O30       1.0  0.61552  0.32601  0.88926  1.0000
  O   O31       1.0  0.88447  0.32601  0.38926  1.0000
  O   O32       1.0  0.38448  0.67399  0.11075  1.0000
  O   O33       1.0  0.66200  0.54431  0.00227  1.0000
  O   O34       1.0  0.16199  0.45568  0.49773  1.0000
  O   O35       1.0  0.33801  0.45568  0.99773  1.0000
  O   O36       1.0  0.83802  0.54431  0.50227  1.0000
