data_image0
_chemical_formula_structural       Nd4H44C44O36
_chemical_formula_sum              "Nd4 H44 C44 O36"
_cell_length_a       7.79781
_cell_length_b       12.3313
_cell_length_c       12.9763
_cell_angle_alpha    91.1673
_cell_angle_beta     90.0001
_cell_angle_gamma    90.0001

_space_group_name_H-M_alt    "P 1"
_space_group_IT_number       1

loop_
  _space_group_symop_operation_xyz
  'x, y, z'

loop_
  _atom_site_type_symbol
  _atom_site_label
  _atom_site_symmetry_multiplicity
  _atom_site_fract_x
  _atom_site_fract_y
  _atom_site_fract_z
  _atom_site_occupancy
  Nd  Nd1       1.0  0.92312  0.52493  0.30982  1.0000
  Nd  Nd2       1.0  0.42312  0.47508  0.19018  1.0000
  Nd  Nd3       1.0  0.07688  0.47508  0.69018  1.0000
  Nd  Nd4       1.0  0.57688  0.52493  0.80982  1.0000
  H   H1        1.0  0.43034  0.92432  0.09877  1.0000
  H   H2        1.0  0.93034  0.07567  0.40123  1.0000
  H   H3        1.0  0.56966  0.07567  0.90123  1.0000
  H   H4        1.0  0.06966  0.92432  0.59877  1.0000
  H   H5        1.0  0.62287  0.76378  0.10152  1.0000
  H   H6        1.0  0.12287  0.23622  0.39848  1.0000
  H   H7        1.0  0.37713  0.23622  0.89848  1.0000
  H   H8        1.0  0.87713  0.76378  0.60152  1.0000
  H   H9        1.0  0.05851  0.97711  0.13855  1.0000
  H   H10       1.0  0.55851  0.02288  0.36145  1.0000
  H   H11       1.0  0.94149  0.02288  0.86145  1.0000
  H   H12       1.0  0.44149  0.97711  0.63855  1.0000
  H   H13       1.0  0.55008  0.11209  0.11785  1.0000
  H   H14       1.0  0.05008  0.88791  0.38215  1.0000
  H   H15       1.0  0.44992  0.88791  0.88215  1.0000
  H   H16       1.0  0.94992  0.11209  0.61785  1.0000
  H   H17       1.0  0.10901  0.15838  0.06998  1.0000
  H   H18       1.0  0.60901  0.84162  0.43003  1.0000
  H   H19       1.0  0.89099  0.84162  0.93003  1.0000
  H   H20       1.0  0.39099  0.15838  0.56997  1.0000
  H   H21       1.0  0.10501  0.13230  0.20482  1.0000
  H   H22       1.0  0.60500  0.86771  0.29518  1.0000
  H   H23       1.0  0.89499  0.86770  0.79518  1.0000
  H   H24       1.0  0.39500  0.13230  0.70482  1.0000
  H   H25       1.0  0.16947  0.82836  0.19675  1.0000
  H   H26       1.0  0.66947  0.17164  0.30325  1.0000
  H   H27       1.0  0.83053  0.17164  0.80325  1.0000
  H   H28       1.0  0.33053  0.82836  0.69675  1.0000
  H   H29       1.0  0.17885  0.81888  0.05870  1.0000
  H   H30       1.0  0.67885  0.18112  0.44130  1.0000
  H   H31       1.0  0.82115  0.18112  0.94130  1.0000
  H   H32       1.0  0.32115  0.81888  0.55870  1.0000
  H   H33       1.0  0.91211  0.56474  0.04367  1.0000
  H   H34       1.0  0.41211  0.43526  0.45633  1.0000
  H   H35       1.0  0.08789  0.43526  0.95633  1.0000
  H   H36       1.0  0.58789  0.56474  0.54367  1.0000
  H   H37       1.0  0.10044  0.67276  0.46730  1.0000
  H   H38       1.0  0.60044  0.32724  0.03271  1.0000
  H   H39       1.0  0.89956  0.32724  0.53270  1.0000
  H   H40       1.0  0.39956  0.67276  0.96730  1.0000
  H   H41       1.0  0.22174  0.67721  0.36966  1.0000
  H   H42       1.0  0.72174  0.32279  0.13034  1.0000
  H   H43       1.0  0.77826  0.32279  0.63034  1.0000
  H   H44       1.0  0.27826  0.67721  0.86966  1.0000
  C   C1        1.0  0.56795  0.93586  0.10838  1.0000
  C   C2        1.0  0.06795  0.06414  0.39162  1.0000
  C   C3        1.0  0.43205  0.06414  0.89162  1.0000
  C   C4        1.0  0.93205  0.93586  0.60838  1.0000
  C   C5        1.0  0.67473  0.84536  0.10905  1.0000
  C   C6        1.0  0.17473  0.15463  0.39095  1.0000
  C   C7        1.0  0.32527  0.15463  0.89095  1.0000
  C   C8        1.0  0.82527  0.84537  0.60905  1.0000
  C   C9        1.0  0.85137  0.86078  0.12190  1.0000
  C   C10       1.0  0.35137  0.13921  0.37810  1.0000
  C   C11       1.0  0.14863  0.13921  0.87810  1.0000
  C   C12       1.0  0.64863  0.86078  0.62190  1.0000
  C   C13       1.0  0.92129  0.96522  0.13054  1.0000
  C   C14       1.0  0.42129  0.03478  0.36946  1.0000
  C   C15       1.0  0.07871  0.03478  0.86946  1.0000
  C   C16       1.0  0.57871  0.96522  0.63054  1.0000
  C   C17       1.0  0.81017  0.05465  0.12922  1.0000
  C   C18       1.0  0.31017  0.94535  0.37078  1.0000
  C   C19       1.0  0.18983  0.94535  0.87078  1.0000
  C   C20       1.0  0.68983  0.05465  0.62922  1.0000
  C   C21       1.0  0.63277  0.04084  0.11906  1.0000
  C   C22       1.0  0.13277  0.95916  0.38093  1.0000
  C   C23       1.0  0.36723  0.95916  0.88093  1.0000
  C   C24       1.0  0.86723  0.04084  0.61906  1.0000
  C   C25       1.0  0.04553  0.17969  0.14346  1.0000
  C   C26       1.0  0.54553  0.82031  0.35654  1.0000
  C   C27       1.0  0.95446  0.82031  0.85654  1.0000
  C   C28       1.0  0.45447  0.17969  0.64346  1.0000
  C   C29       1.0  0.08069  0.29831  0.16951  1.0000
  C   C30       1.0  0.58068  0.70170  0.33049  1.0000
  C   C31       1.0  0.91931  0.70170  0.83049  1.0000
  C   C32       1.0  0.41932  0.29831  0.66951  1.0000
  C   C33       1.0  0.12940  0.77988  0.12828  1.0000
  C   C34       1.0  0.62940  0.22012  0.37172  1.0000
  C   C35       1.0  0.87060  0.22012  0.87172  1.0000
  C   C36       1.0  0.37060  0.77988  0.62828  1.0000
  C   C37       1.0  0.21364  0.67000  0.13829  1.0000
  C   C38       1.0  0.71364  0.33000  0.36171  1.0000
  C   C39       1.0  0.78636  0.33000  0.86171  1.0000
  C   C40       1.0  0.28636  0.67000  0.63829  1.0000
  C   C41       1.0  0.77457  0.55276  0.06034  1.0000
  C   C42       1.0  0.27457  0.44724  0.43966  1.0000
  C   C43       1.0  0.22543  0.44724  0.93966  1.0000
  C   C44       1.0  0.72543  0.55276  0.56034  1.0000
  O   O1        1.0  0.86553  0.16011  0.13777  1.0000
  O   O2        1.0  0.36552  0.83989  0.36223  1.0000
  O   O3        1.0  0.13448  0.83989  0.86223  1.0000
  O   O4        1.0  0.63447  0.16011  0.63777  1.0000
  O   O5        1.0  0.23848  0.31976  0.17624  1.0000
  O   O6        1.0  0.73848  0.68024  0.32376  1.0000
  O   O7        1.0  0.76152  0.68024  0.82376  1.0000
  O   O8        1.0  0.26152  0.31976  0.67624  1.0000
  O   O9        1.0  0.95687  0.36456  0.18280  1.0000
  O   O10       1.0  0.45687  0.63544  0.31720  1.0000
  O   O11       1.0  0.04313  0.63544  0.81720  1.0000
  O   O12       1.0  0.54313  0.36456  0.68280  1.0000
  O   O13       1.0  0.94840  0.76800  0.12402  1.0000
  O   O14       1.0  0.44840  0.23200  0.37598  1.0000
  O   O15       1.0  0.05160  0.23200  0.87598  1.0000
  O   O16       1.0  0.55160  0.76800  0.62402  1.0000
  O   O17       1.0  0.13658  0.59199  0.18230  1.0000
  O   O18       1.0  0.63658  0.40801  0.31771  1.0000
  O   O19       1.0  0.86342  0.40802  0.81771  1.0000
  O   O20       1.0  0.36342  0.59199  0.68230  1.0000
  O   O21       1.0  0.36597  0.65996  0.10540  1.0000
  O   O22       1.0  0.86597  0.34004  0.39460  1.0000
  O   O23       1.0  0.63403  0.34005  0.89460  1.0000
  O   O24       1.0  0.13403  0.65996  0.60539  1.0000
  O   O25       1.0  0.73221  0.54391  0.15522  1.0000
  O   O26       1.0  0.23221  0.45610  0.34478  1.0000
  O   O27       1.0  0.26779  0.45610  0.84478  1.0000
  O   O28       1.0  0.76779  0.54391  0.65522  1.0000
  O   O29       1.0  0.10057  0.67211  0.39108  1.0000
  O   O30       1.0  0.60057  0.32789  0.10892  1.0000
  O   O31       1.0  0.89943  0.32789  0.60892  1.0000
  O   O32       1.0  0.39943  0.67211  0.89108  1.0000
  O   O33       1.0  0.66891  0.54794  0.98774  1.0000
  O   O34       1.0  0.16891  0.45206  0.51226  1.0000
  O   O35       1.0  0.33109  0.45206  0.01226  1.0000
  O   O36       1.0  0.83109  0.54794  0.48774  1.0000
