data_image0
_chemical_formula_structural       Pr4H44C44O36
_chemical_formula_sum              "Pr4 H44 C44 O36"
_cell_length_a       7.83804
_cell_length_b       12.349
_cell_length_c       13.015
_cell_angle_alpha    90.3466
_cell_angle_beta     90
_cell_angle_gamma    90.0001

_space_group_name_H-M_alt    "P 1"
_space_group_IT_number       1

loop_
  _space_group_symop_operation_xyz
  'x, y, z'

loop_
  _atom_site_type_symbol
  _atom_site_label
  _atom_site_symmetry_multiplicity
  _atom_site_fract_x
  _atom_site_fract_y
  _atom_site_fract_z
  _atom_site_occupancy
  Pr  Pr1       1.0  0.92578  0.97539  0.68900  1.0000
  Pr  Pr2       1.0  0.42578  0.02461  0.81100  1.0000
  Pr  Pr3       1.0  0.07422  0.02461  0.31100  1.0000
  Pr  Pr4       1.0  0.57422  0.97539  0.18900  1.0000
  H   H1        1.0  0.43549  0.57499  0.90199  1.0000
  H   H2        1.0  0.93549  0.42501  0.59801  1.0000
  H   H3        1.0  0.56451  0.42501  0.09801  1.0000
  H   H4        1.0  0.06451  0.57499  0.40199  1.0000
  H   H5        1.0  0.62706  0.73524  0.89885  1.0000
  H   H6        1.0  0.12706  0.26476  0.60115  1.0000
  H   H7        1.0  0.37294  0.26476  0.10115  1.0000
  H   H8        1.0  0.87294  0.73524  0.39885  1.0000
  H   H9        1.0  0.05988  0.52220  0.86051  1.0000
  H   H10       1.0  0.55988  0.47780  0.63949  1.0000
  H   H11       1.0  0.94012  0.47780  0.13949  1.0000
  H   H12       1.0  0.44012  0.52220  0.36051  1.0000
  H   H13       1.0  0.55393  0.38746  0.88242  1.0000
  H   H14       1.0  0.05393  0.61254  0.61758  1.0000
  H   H15       1.0  0.44607  0.61254  0.11758  1.0000
  H   H16       1.0  0.94607  0.38746  0.38242  1.0000
  H   H17       1.0  0.10949  0.34009  0.92938  1.0000
  H   H18       1.0  0.60949  0.65991  0.57062  1.0000
  H   H19       1.0  0.89051  0.65991  0.07062  1.0000
  H   H20       1.0  0.39051  0.34009  0.42938  1.0000
  H   H21       1.0  0.10601  0.36807  0.79482  1.0000
  H   H22       1.0  0.60601  0.63193  0.70518  1.0000
  H   H23       1.0  0.89398  0.63193  0.20518  1.0000
  H   H24       1.0  0.39399  0.36807  0.29482  1.0000
  H   H25       1.0  0.17134  0.67190  0.80325  1.0000
  H   H26       1.0  0.67134  0.32810  0.69675  1.0000
  H   H27       1.0  0.82866  0.32810  0.19675  1.0000
  H   H28       1.0  0.32866  0.67190  0.30325  1.0000
  H   H29       1.0  0.17945  0.67782  0.94112  1.0000
  H   H30       1.0  0.67945  0.32218  0.55888  1.0000
  H   H31       1.0  0.82055  0.32218  0.05888  1.0000
  H   H32       1.0  0.32055  0.67782  0.44112  1.0000
  H   H33       1.0  0.58817  0.93228  0.45756  1.0000
  H   H34       1.0  0.08817  0.06772  0.04244  1.0000
  H   H35       1.0  0.41183  0.06772  0.54244  1.0000
  H   H36       1.0  0.91183  0.93228  0.95756  1.0000
  H   H37       1.0  0.10380  0.82542  0.53421  1.0000
  H   H38       1.0  0.60380  0.17458  0.96579  1.0000
  H   H39       1.0  0.89620  0.17458  0.46579  1.0000
  H   H40       1.0  0.39620  0.82542  0.03421  1.0000
  H   H41       1.0  0.22399  0.82167  0.63179  1.0000
  H   H42       1.0  0.72399  0.17833  0.86821  1.0000
  H   H43       1.0  0.77601  0.17833  0.36821  1.0000
  H   H44       1.0  0.27601  0.82167  0.13179  1.0000
  C   C1        1.0  0.57220  0.56341  0.89203  1.0000
  C   C2        1.0  0.07220  0.43659  0.60797  1.0000
  C   C3        1.0  0.42780  0.43659  0.10797  1.0000
  C   C4        1.0  0.92780  0.56341  0.39203  1.0000
  C   C5        1.0  0.67850  0.65377  0.89121  1.0000
  C   C6        1.0  0.17850  0.34623  0.60879  1.0000
  C   C7        1.0  0.32150  0.34623  0.10879  1.0000
  C   C8        1.0  0.82150  0.65377  0.39121  1.0000
  C   C9        1.0  0.85410  0.63826  0.87794  1.0000
  C   C10       1.0  0.35410  0.36174  0.62206  1.0000
  C   C11       1.0  0.14590  0.36174  0.12206  1.0000
  C   C12       1.0  0.64590  0.63826  0.37794  1.0000
  C   C13       1.0  0.92333  0.53400  0.86897  1.0000
  C   C14       1.0  0.42333  0.46601  0.63103  1.0000
  C   C15       1.0  0.07667  0.46600  0.13103  1.0000
  C   C16       1.0  0.57667  0.53399  0.36897  1.0000
  C   C17       1.0  0.81256  0.44475  0.87032  1.0000
  C   C18       1.0  0.31256  0.55525  0.62967  1.0000
  C   C19       1.0  0.18744  0.55525  0.12967  1.0000
  C   C20       1.0  0.68744  0.44475  0.37033  1.0000
  C   C21       1.0  0.63616  0.45861  0.88102  1.0000
  C   C22       1.0  0.13616  0.54139  0.61898  1.0000
  C   C23       1.0  0.36384  0.54139  0.11898  1.0000
  C   C24       1.0  0.86384  0.45861  0.38102  1.0000
  C   C25       1.0  0.04668  0.31994  0.85600  1.0000
  C   C26       1.0  0.54668  0.68006  0.64400  1.0000
  C   C27       1.0  0.95332  0.68006  0.14400  1.0000
  C   C28       1.0  0.45332  0.31994  0.35600  1.0000
  C   C29       1.0  0.08135  0.20180  0.83008  1.0000
  C   C30       1.0  0.58134  0.79820  0.66992  1.0000
  C   C31       1.0  0.91866  0.79820  0.16992  1.0000
  C   C32       1.0  0.41866  0.20180  0.33008  1.0000
  C   C33       1.0  0.13108  0.71859  0.87191  1.0000
  C   C34       1.0  0.63108  0.28141  0.62808  1.0000
  C   C35       1.0  0.86892  0.28141  0.12808  1.0000
  C   C36       1.0  0.36892  0.71859  0.37192  1.0000
  C   C37       1.0  0.21512  0.82849  0.86307  1.0000
  C   C38       1.0  0.71512  0.17151  0.63692  1.0000
  C   C39       1.0  0.78488  0.17151  0.13693  1.0000
  C   C40       1.0  0.28488  0.82849  0.36308  1.0000
  C   C41       1.0  0.72404  0.94639  0.43927  1.0000
  C   C42       1.0  0.22404  0.05361  0.06073  1.0000
  C   C43       1.0  0.27596  0.05361  0.56073  1.0000
  C   C44       1.0  0.77596  0.94639  0.93927  1.0000
  O   O1        1.0  0.86751  0.33956  0.86138  1.0000
  O   O2        1.0  0.36751  0.66044  0.63862  1.0000
  O   O3        1.0  0.13249  0.66044  0.13862  1.0000
  O   O4        1.0  0.63249  0.33956  0.36139  1.0000
  O   O5        1.0  0.23830  0.17984  0.82467  1.0000
  O   O6        1.0  0.73830  0.82016  0.67534  1.0000
  O   O7        1.0  0.76170  0.82016  0.17534  1.0000
  O   O8        1.0  0.26170  0.17984  0.32466  1.0000
  O   O9        1.0  0.95763  0.13655  0.81569  1.0000
  O   O10       1.0  0.45763  0.86345  0.68431  1.0000
  O   O11       1.0  0.04237  0.86345  0.18431  1.0000
  O   O12       1.0  0.54237  0.13655  0.31569  1.0000
  O   O13       1.0  0.95098  0.73084  0.87572  1.0000
  O   O14       1.0  0.45098  0.26916  0.62428  1.0000
  O   O15       1.0  0.04902  0.26916  0.12428  1.0000
  O   O16       1.0  0.54902  0.73084  0.37572  1.0000
  O   O17       1.0  0.13911  0.90715  0.81896  1.0000
  O   O18       1.0  0.63911  0.09285  0.68104  1.0000
  O   O19       1.0  0.86089  0.09285  0.18104  1.0000
  O   O20       1.0  0.36089  0.90715  0.31896  1.0000
  O   O21       1.0  0.36614  0.83778  0.89690  1.0000
  O   O22       1.0  0.86614  0.16223  0.60310  1.0000
  O   O23       1.0  0.63386  0.16222  0.10310  1.0000
  O   O24       1.0  0.13386  0.83778  0.39690  1.0000
  O   O25       1.0  0.83132  0.95370  0.51025  1.0000
  O   O26       1.0  0.33132  0.04629  0.98975  1.0000
  O   O27       1.0  0.16868  0.04630  0.48975  1.0000
  O   O28       1.0  0.66868  0.95370  0.01025  1.0000
  O   O29       1.0  0.10355  0.82714  0.61022  1.0000
  O   O30       1.0  0.60355  0.17286  0.88979  1.0000
  O   O31       1.0  0.89645  0.17286  0.38978  1.0000
  O   O32       1.0  0.39645  0.82714  0.11022  1.0000
  O   O33       1.0  0.76368  0.95496  0.34418  1.0000
  O   O34       1.0  0.26368  0.04504  0.15582  1.0000
  O   O35       1.0  0.23632  0.04504  0.65582  1.0000
  O   O36       1.0  0.73632  0.95496  0.84418  1.0000
