data_image0
_chemical_formula_structural       Tb2MnH40C56N8O24
_chemical_formula_sum              "Tb2 Mn1 H40 C56 N8 O24"
_cell_length_a       10.1103
_cell_length_b       10.8037
_cell_length_c       13.5892
_cell_angle_alpha    79.1897
_cell_angle_beta     78.7912
_cell_angle_gamma    86.1711

_space_group_name_H-M_alt    "P 1"
_space_group_IT_number       1

loop_
  _space_group_symop_operation_xyz
  'x, y, z'

loop_
  _atom_site_type_symbol
  _atom_site_label
  _atom_site_symmetry_multiplicity
  _atom_site_fract_x
  _atom_site_fract_y
  _atom_site_fract_z
  _atom_site_occupancy
  Tb  Tb1       1.0  0.31775  0.91445  0.30171  1.0000
  Tb  Tb2       1.0  0.68225  0.08555  0.69829  1.0000
  Mn  Mn1       1.0  0.00000  0.50000  0.50000  1.0000
  H   H1        1.0  0.80558  0.89606  0.30093  1.0000
  H   H2        1.0  0.19441  0.10394  0.69908  1.0000
  H   H3        1.0  0.10227  0.82962  0.04105  1.0000
  H   H4        1.0  0.89773  0.17037  0.95896  1.0000
  H   H5        1.0  0.67965  0.86210  0.02280  1.0000
  H   H6        1.0  0.32035  0.13790  0.97721  1.0000
  H   H7        1.0  0.03733  0.84347  0.70169  1.0000
  H   H8        1.0  0.96267  0.15653  0.29831  1.0000
  H   H9        1.0  0.05109  0.75001  0.54754  1.0000
  H   H10       1.0  0.94892  0.24999  0.45246  1.0000
  H   H11       1.0  0.99591  0.38944  0.71912  1.0000
  H   H12       1.0  0.00409  0.61056  0.28088  1.0000
  H   H13       1.0  0.99821  0.46640  0.87937  1.0000
  H   H14       1.0  0.00179  0.53360  0.12064  1.0000
  H   H15       1.0  0.33028  0.68078  0.15903  1.0000
  H   H16       1.0  0.66972  0.31923  0.84097  1.0000
  H   H17       1.0  0.33631  0.31459  0.07464  1.0000
  H   H18       1.0  0.66369  0.68542  0.92536  1.0000
  H   H19       1.0  0.28477  0.34634  0.39046  1.0000
  H   H20       1.0  0.71523  0.65366  0.60954  1.0000
  H   H21       1.0  0.36042  0.78299  0.86663  1.0000
  H   H22       1.0  0.63958  0.21701  0.13336  1.0000
  H   H23       1.0  0.36822  0.90407  0.69281  1.0000
  H   H24       1.0  0.63178  0.09593  0.30719  1.0000
  H   H25       1.0  0.34908  0.58231  0.57225  1.0000
  H   H26       1.0  0.65092  0.41769  0.42774  1.0000
  H   H27       1.0  0.34832  0.44280  0.74436  1.0000
  H   H28       1.0  0.65168  0.55720  0.25564  1.0000
  H   H29       1.0  0.85267  0.83196  0.87730  1.0000
  H   H30       1.0  0.14734  0.16803  0.12270  1.0000
  H   H31       1.0  0.35135  0.66040  0.99224  1.0000
  H   H32       1.0  0.64865  0.33961  0.00776  1.0000
  H   H33       1.0  0.02867  0.25622  0.60003  1.0000
  H   H34       1.0  0.97134  0.74378  0.39998  1.0000
  H   H35       1.0  0.15647  0.29482  0.51310  1.0000
  H   H36       1.0  0.84353  0.70517  0.48690  1.0000
  H   H37       1.0  0.31877  0.83716  0.53310  1.0000
  H   H38       1.0  0.68123  0.16284  0.46690  1.0000
  H   H39       1.0  0.29396  0.98660  0.48889  1.0000
  H   H40       1.0  0.70604  0.01341  0.51111  1.0000
  C   C1        1.0  0.58503  0.89950  0.21299  1.0000
  C   C2        1.0  0.41497  0.10050  0.78702  1.0000
  C   C3        1.0  0.72960  0.88377  0.16529  1.0000
  C   C4        1.0  0.27039  0.11623  0.83471  1.0000
  C   C5        1.0  0.83160  0.88238  0.22204  1.0000
  C   C6        1.0  0.16840  0.11762  0.77796  1.0000
  C   C7        1.0  0.96598  0.86358  0.17620  1.0000
  C   C8        1.0  0.03402  0.13642  0.82380  1.0000
  C   C9        1.0  0.99736  0.84284  0.07541  1.0000
  C   C10       1.0  0.00264  0.15716  0.92460  1.0000
  C   C11       1.0  0.89487  0.83870  0.02049  1.0000
  C   C12       1.0  0.10513  0.16129  0.97952  1.0000
  C   C13       1.0  0.76109  0.86321  0.06451  1.0000
  C   C14       1.0  0.23891  0.13679  0.93549  1.0000
  C   C15       1.0  0.08043  0.86511  0.23051  1.0000
  C   C16       1.0  0.91957  0.13490  0.76949  1.0000
  C   C17       1.0  0.00977  0.70512  0.90351  1.0000
  C   C18       1.0  0.99024  0.29487  0.09650  1.0000
  C   C19       1.0  0.01261  0.66248  0.80476  1.0000
  C   C20       1.0  0.98739  0.33751  0.19525  1.0000
  C   C21       1.0  0.02706  0.74208  0.70966  1.0000
  C   C22       1.0  0.97294  0.25791  0.29034  1.0000
  C   C23       1.0  0.03260  0.69056  0.62257  1.0000
  C   C24       1.0  0.96740  0.30944  0.37743  1.0000
  C   C25       1.0  0.00508  0.48926  0.71807  1.0000
  C   C26       1.0  0.99492  0.51073  0.28193  1.0000
  C   C27       1.0  0.00631  0.53258  0.80737  1.0000
  C   C28       1.0  0.99369  0.46742  0.19263  1.0000
  C   C29       1.0  0.26956  0.60348  0.36215  1.0000
  C   C30       1.0  0.73044  0.39652  0.63785  1.0000
  C   C31       1.0  0.30101  0.52218  0.28282  1.0000
  C   C32       1.0  0.69899  0.47782  0.71718  1.0000
  C   C33       1.0  0.32535  0.57836  0.17981  1.0000
  C   C34       1.0  0.67464  0.42164  0.82019  1.0000
  C   C35       1.0  0.33602  0.50382  0.10422  1.0000
  C   C36       1.0  0.66398  0.49619  0.89577  1.0000
  C   C37       1.0  0.32824  0.37258  0.13260  1.0000
  C   C38       1.0  0.67176  0.62742  0.86740  1.0000
  C   C39       1.0  0.31011  0.31743  0.23565  1.0000
  C   C40       1.0  0.68988  0.68257  0.76435  1.0000
  C   C41       1.0  0.29716  0.39120  0.31077  1.0000
  C   C42       1.0  0.70284  0.60880  0.68923  1.0000
  C   C43       1.0  0.29799  0.17885  0.26492  1.0000
  C   C44       1.0  0.70202  0.82116  0.73508  1.0000
  C   C45       1.0  0.34596  0.51194  0.91955  1.0000
  C   C46       1.0  0.65404  0.48805  0.08045  1.0000
  C   C47       1.0  0.35313  0.60054  0.81941  1.0000
  C   C48       1.0  0.64687  0.39946  0.18058  1.0000
  C   C49       1.0  0.35925  0.73186  0.80477  1.0000
  C   C50       1.0  0.64075  0.26814  0.19522  1.0000
  C   C51       1.0  0.36246  0.80145  0.70722  1.0000
  C   C52       1.0  0.63754  0.19854  0.29278  1.0000
  C   C53       1.0  0.35440  0.62147  0.63976  1.0000
  C   C54       1.0  0.64560  0.37853  0.36024  1.0000
  C   C55       1.0  0.35231  0.54494  0.73441  1.0000
  C   C56       1.0  0.64768  0.45506  0.26559  1.0000
  N   N1        1.0  0.92396  0.80487  0.92303  1.0000
  N   N2        1.0  0.07604  0.19513  0.07697  1.0000
  N   N3        1.0  0.01613  0.56595  0.62567  1.0000
  N   N4        1.0  0.98387  0.43404  0.37434  1.0000
  N   N5        1.0  0.35212  0.56490  0.00259  1.0000
  N   N6        1.0  0.64788  0.43510  0.99741  1.0000
  N   N7        1.0  0.35925  0.74747  0.62645  1.0000
  N   N8        1.0  0.64075  0.25253  0.37355  1.0000
  O   O1        1.0  0.55319  0.91474  0.30669  1.0000
  O   O2        1.0  0.44681  0.08526  0.69331  1.0000
  O   O3        1.0  0.49322  0.89691  0.16089  1.0000
  O   O4        1.0  0.50678  0.10309  0.83912  1.0000
  O   O5        1.0  0.06051  0.86359  0.32788  1.0000
  O   O6        1.0  0.93948  0.13641  0.67212  1.0000
  O   O7        1.0  0.19972  0.86921  0.17855  1.0000
  O   O8        1.0  0.80028  0.13081  0.82145  1.0000
  O   O9        1.0  0.08022  0.64770  0.96385  1.0000
  O   O10       1.0  0.91978  0.35230  0.03615  1.0000
  O   O11       1.0  0.33507  0.70383  0.34858  1.0000
  O   O12       1.0  0.66492  0.29617  0.65142  1.0000
  O   O13       1.0  0.17779  0.57242  0.44051  1.0000
  O   O14       1.0  0.82221  0.42758  0.55949  1.0000
  O   O15       1.0  0.30798  0.12283  0.35459  1.0000
  O   O16       1.0  0.69200  0.87717  0.64541  1.0000
  O   O17       1.0  0.27738  0.11508  0.19847  1.0000
  O   O18       1.0  0.72262  0.88492  0.80153  1.0000
  O   O19       1.0  0.33773  0.39749  0.92313  1.0000
  O   O20       1.0  0.66226  0.60251  0.07687  1.0000
  O   O21       1.0  0.08580  0.32965  0.56081  1.0000
  O   O22       1.0  0.91421  0.67034  0.43919  1.0000
  O   O23       1.0  0.27901  0.90232  0.47836  1.0000
  O   O24       1.0  0.72099  0.09769  0.52164  1.0000
