data_image0
_chemical_formula_structural       Zn2H38C50Br2N8O8
_chemical_formula_sum              "Zn2 H38 C50 Br2 N8 O8"
_cell_length_a       9.53972
_cell_length_b       10.311
_cell_length_c       13.6769
_cell_angle_alpha    73.3753
_cell_angle_beta     79.5633
_cell_angle_gamma    65.6965

_space_group_name_H-M_alt    "P 1"
_space_group_IT_number       1

loop_
  _space_group_symop_operation_xyz
  'x, y, z'

loop_
  _atom_site_type_symbol
  _atom_site_label
  _atom_site_symmetry_multiplicity
  _atom_site_fract_x
  _atom_site_fract_y
  _atom_site_fract_z
  _atom_site_occupancy
  Zn  Zn1       1.0  0.82439  0.38026  0.24693  1.0000
  Zn  Zn2       1.0  0.17561  0.61973  0.75307  1.0000
  H   H1        1.0  0.86603  0.85001  0.27839  1.0000
  H   H2        1.0  0.13396  0.14999  0.72161  1.0000
  H   H3        1.0  0.75204  0.78958  0.00820  1.0000
  H   H4        1.0  0.24796  0.21041  0.99180  1.0000
  H   H5        1.0  0.80030  0.19155  0.00249  1.0000
  H   H6        1.0  0.19969  0.80846  0.99751  1.0000
  H   H7        1.0  0.46860  0.56532  0.20399  1.0000
  H   H8        1.0  0.53140  0.43468  0.79600  1.0000
  H   H9        1.0  0.18287  0.63444  0.23327  1.0000
  H   H10       1.0  0.81713  0.36556  0.76673  1.0000
  H   H11       1.0  0.06468  0.54116  0.39784  1.0000
  H   H12       1.0  0.93532  0.45885  0.60216  1.0000
  H   H13       1.0  0.22501  0.38105  0.54670  1.0000
  H   H14       1.0  0.77499  0.61895  0.45330  1.0000
  H   H15       1.0  0.80315  0.23485  0.49149  1.0000
  H   H16       1.0  0.19685  0.76515  0.50851  1.0000
  H   H17       1.0  0.46803  0.29419  0.66666  1.0000
  H   H18       1.0  0.53197  0.70581  0.33334  1.0000
  H   H19       1.0  0.66256  0.17357  0.65210  1.0000
  H   H20       1.0  0.33744  0.82643  0.34789  1.0000
  H   H21       1.0  0.46386  0.05494  0.72130  1.0000
  H   H22       1.0  0.53614  0.94506  0.27870  1.0000
  H   H23       1.0  0.38243  0.13343  0.60313  1.0000
  H   H24       1.0  0.61757  0.86657  0.39687  1.0000
  H   H25       1.0  0.54276  0.89709  0.58410  1.0000
  H   H26       1.0  0.45724  0.10290  0.41590  1.0000
  H   H27       1.0  0.66732  0.99072  0.52600  1.0000
  H   H28       1.0  0.33268  0.00928  0.47400  1.0000
  H   H29       1.0  0.92995  0.87106  0.58964  1.0000
  H   H30       1.0  0.07005  0.12893  0.41036  1.0000
  H   H31       1.0  0.44207  0.82615  0.78448  1.0000
  H   H32       1.0  0.55792  0.17385  0.21552  1.0000
  H   H33       1.0  0.46285  0.64140  0.94892  1.0000
  H   H34       1.0  0.53714  0.35860  0.05108  1.0000
  H   H35       1.0  0.71849  0.47815  0.01739  1.0000
  H   H36       1.0  0.28151  0.52185  0.98262  1.0000
  H   H37       1.0  0.96048  0.49672  0.92247  1.0000
  H   H38       1.0  0.03951  0.50328  0.07754  1.0000
  C   C1        1.0  0.84427  0.12847  0.20666  1.0000
  C   C2        1.0  0.15573  0.87154  0.79334  1.0000
  C   C3        1.0  0.83394  0.03086  0.14685  1.0000
  C   C4        1.0  0.16606  0.96914  0.85314  1.0000
  C   C5        1.0  0.84100  0.89056  0.19821  1.0000
  C   C6        1.0  0.15900  0.10945  0.80179  1.0000
  C   C7        1.0  0.81122  0.80396  0.14902  1.0000
  C   C8        1.0  0.18879  0.19604  0.85098  1.0000
  C   C9        1.0  0.77738  0.85630  0.04602  1.0000
  C   C10       1.0  0.22262  0.14369  0.95397  1.0000
  C   C11       1.0  0.77621  0.99453  0.99493  1.0000
  C   C12       1.0  0.22379  0.00547  0.00507  1.0000
  C   C13       1.0  0.80390  0.08288  0.04314  1.0000
  C   C14       1.0  0.19610  0.91712  0.95686  1.0000
  C   C15       1.0  0.81250  0.65686  0.20922  1.0000
  C   C16       1.0  0.18751  0.34314  0.79078  1.0000
  C   C17       1.0  0.50655  0.42946  0.35845  1.0000
  C   C18       1.0  0.49344  0.57054  0.64155  1.0000
  C   C19       1.0  0.41614  0.52378  0.27731  1.0000
  C   C20       1.0  0.58387  0.47622  0.72268  1.0000
  C   C21       1.0  0.25738  0.56207  0.29461  1.0000
  C   C22       1.0  0.74262  0.43794  0.70539  1.0000
  C   C23       1.0  0.18955  0.50889  0.38971  1.0000
  C   C24       1.0  0.81045  0.49111  0.61028  1.0000
  C   C25       1.0  0.27779  0.41641  0.47172  1.0000
  C   C26       1.0  0.72221  0.58359  0.52828  1.0000
  C   C27       1.0  0.43736  0.37764  0.45392  1.0000
  C   C28       1.0  0.56264  0.62236  0.54608  1.0000
  C   C29       1.0  0.69119  0.29262  0.46000  1.0000
  C   C30       1.0  0.30881  0.70738  0.54000  1.0000
  C   C31       1.0  0.54782  0.21411  0.62377  1.0000
  C   C32       1.0  0.45218  0.78589  0.37623  1.0000
  C   C33       1.0  0.49173  0.09024  0.63907  1.0000
  C   C34       1.0  0.50827  0.90976  0.36093  1.0000
  C   C35       1.0  0.60534  0.95775  0.59863  1.0000
  C   C36       1.0  0.39466  0.04225  0.40137  1.0000
  C   C37       1.0  0.87567  0.81618  0.65530  1.0000
  C   C38       1.0  0.12433  0.18381  0.34471  1.0000
  C   C39       1.0  0.83660  0.67320  0.80005  1.0000
  C   C40       1.0  0.16340  0.32680  0.19995  1.0000
  C   C41       1.0  0.69076  0.76526  0.76215  1.0000
  C   C42       1.0  0.30923  0.23473  0.23785  1.0000
  C   C43       1.0  0.55405  0.75617  0.81407  1.0000
  C   C44       1.0  0.44595  0.24383  0.18594  1.0000
  C   C45       1.0  0.56750  0.65141  0.90628  1.0000
  C   C46       1.0  0.43249  0.34859  0.09373  1.0000
  C   C47       1.0  0.71213  0.55870  0.94484  1.0000
  C   C48       1.0  0.28786  0.44130  0.05517  1.0000
  C   C49       1.0  0.84861  0.56801  0.89268  1.0000
  C   C50       1.0  0.15139  0.43199  0.10733  1.0000
  Br  Br1       1.0  0.73003  0.06809  0.85479  1.0000
  Br  Br2       1.0  0.26998  0.93190  0.14521  1.0000
  N   N1        1.0  0.66568  0.37349  0.36532  1.0000
  N   N2        1.0  0.33432  0.62651  0.63467  1.0000
  N   N3        1.0  0.55908  0.29068  0.51663  1.0000
  N   N4        1.0  0.44093  0.70932  0.48337  1.0000
  N   N5        1.0  0.72027  0.85445  0.66985  1.0000
  N   N6        1.0  0.27973  0.14555  0.33015  1.0000
  N   N7        1.0  0.94928  0.70866  0.73080  1.0000
  N   N8        1.0  0.05072  0.29133  0.26920  1.0000
  O   O1        1.0  0.81448  0.26368  0.15646  1.0000
  O   O2        1.0  0.18552  0.73633  0.84354  1.0000
  O   O3        1.0  0.87169  0.07908  0.29922  1.0000
  O   O4        1.0  0.12830  0.92093  0.70078  1.0000
  O   O5        1.0  0.84594  0.61234  0.30066  1.0000
  O   O6        1.0  0.15406  0.38766  0.69934  1.0000
  O   O7        1.0  0.77835  0.58273  0.16136  1.0000
  O   O8        1.0  0.22165  0.41727  0.83864  1.0000
