data_image0
_chemical_formula_structural       Cu4H36C36N8Cl4O8
_chemical_formula_sum              "Cu4 H36 C36 N8 Cl4 O8"
_cell_length_a       7.73201
_cell_length_b       9.83404
_cell_length_c       13.4461
_cell_angle_alpha    90.0002
_cell_angle_beta     104.883
_cell_angle_gamma    90.0225

_space_group_name_H-M_alt    "P 1"
_space_group_IT_number       1

loop_
  _space_group_symop_operation_xyz
  'x, y, z'

loop_
  _atom_site_type_symbol
  _atom_site_label
  _atom_site_symmetry_multiplicity
  _atom_site_fract_x
  _atom_site_fract_y
  _atom_site_fract_z
  _atom_site_occupancy
  Cu  Cu1       1.0  0.30042  0.62347  0.68861  1.0000
  Cu  Cu2       1.0  0.69966  0.12346  0.81139  1.0000
  Cu  Cu3       1.0  0.69944  0.37649  0.31141  1.0000
  Cu  Cu4       1.0  0.30052  0.87651  0.18862  1.0000
  H   H1        1.0  0.34007  0.63309  0.40897  1.0000
  H   H2        1.0  0.65989  0.13302  0.09104  1.0000
  H   H3        1.0  0.65995  0.36693  0.59104  1.0000
  H   H4        1.0  0.34013  0.86701  0.90897  1.0000
  H   H5        1.0  0.42180  0.84749  0.47276  1.0000
  H   H6        1.0  0.57815  0.34745  0.02724  1.0000
  H   H7        1.0  0.57817  0.15248  0.52726  1.0000
  H   H8        1.0  0.42169  0.65259  0.97271  1.0000
  H   H9        1.0  0.57689  0.81577  0.59474  1.0000
  H   H10       1.0  0.42320  0.31557  0.90523  1.0000
  H   H11       1.0  0.42305  0.18415  0.40530  1.0000
  H   H12       1.0  0.57687  0.68443  0.09465  1.0000
  H   H13       1.0  0.20446  0.39862  0.34776  1.0000
  H   H14       1.0  0.79546  0.89869  0.15222  1.0000
  H   H15       1.0  0.79552  0.60139  0.65219  1.0000
  H   H16       1.0  0.20446  0.10137  0.84780  1.0000
  H   H17       1.0  0.12928  0.33602  0.69791  1.0000
  H   H18       1.0  0.87072  0.83618  0.80208  1.0000
  H   H19       1.0  0.87063  0.66395  0.30202  1.0000
  H   H20       1.0  0.12950  0.16386  0.19800  1.0000
  H   H21       1.0  0.06942  0.17885  0.39004  1.0000
  H   H22       1.0  0.93042  0.67895  0.10992  1.0000
  H   H23       1.0  0.93059  0.82114  0.60989  1.0000
  H   H24       1.0  0.06937  0.32103  0.89012  1.0000
  H   H25       1.0  0.03249  0.14871  0.57123  1.0000
  H   H26       1.0  0.96740  0.64886  0.92873  1.0000
  H   H27       1.0  0.96747  0.85125  0.42870  1.0000
  H   H28       1.0  0.03258  0.35113  0.07135  1.0000
  H   H29       1.0  0.39671  0.03121  0.59002  1.0000
  H   H30       1.0  0.60342  0.53116  0.91000  1.0000
  H   H31       1.0  0.60340  0.96875  0.41002  1.0000
  H   H32       1.0  0.39663  0.46887  0.08997  1.0000
  H   H33       1.0  0.20085  0.93150  0.57011  1.0000
  H   H34       1.0  0.79925  0.43152  0.92989  1.0000
  H   H35       1.0  0.79915  0.06861  0.42983  1.0000
  H   H36       1.0  0.20083  0.56853  0.07020  1.0000
  C   C1        1.0  0.23637  0.47780  0.50016  1.0000
  C   C2        1.0  0.76362  0.97786  0.99984  1.0000
  C   C3        1.0  0.76359  0.52219  0.49981  1.0000
  C   C4        1.0  0.23648  0.02219  0.00020  1.0000
  C   C5        1.0  0.37900  0.91585  0.72051  1.0000
  C   C6        1.0  0.62103  0.41580  0.77951  1.0000
  C   C7        1.0  0.62084  0.08419  0.27948  1.0000
  C   C8        1.0  0.37916  0.58421  0.22053  1.0000
  C   C9        1.0  0.31554  0.60796  0.48391  1.0000
  C   C10       1.0  0.68448  0.10796  0.01611  1.0000
  C   C11       1.0  0.68441  0.39204  0.51608  1.0000
  C   C12       1.0  0.31560  0.89210  0.98391  1.0000
  C   C13       1.0  0.43407  0.82183  0.55398  1.0000
  C   C14       1.0  0.56599  0.32174  0.94604  1.0000
  C   C15       1.0  0.56589  0.17813  0.44603  1.0000
  C   C16       1.0  0.43402  0.67828  0.05393  1.0000
  C   C17       1.0  0.18421  0.37923  0.42377  1.0000
  C   C18       1.0  0.81575  0.87932  0.07623  1.0000
  C   C19       1.0  0.81579  0.62075  0.57618  1.0000
  C   C20       1.0  0.18423  0.12074  0.92381  1.0000
  C   C21       1.0  0.14501  0.34372  0.61988  1.0000
  C   C22       1.0  0.85498  0.84386  0.88011  1.0000
  C   C23       1.0  0.85494  0.65623  0.38007  1.0000
  C   C24       1.0  0.14514  0.15618  0.11995  1.0000
  C   C25       1.0  0.10950  0.25829  0.44809  1.0000
  C   C26       1.0  0.89041  0.75843  0.05188  1.0000
  C   C27       1.0  0.89051  0.74170  0.55185  1.0000
  C   C28       1.0  0.10951  0.24160  0.94816  1.0000
  C   C29       1.0  0.09134  0.23993  0.54760  1.0000
  C   C30       1.0  0.90860  0.74006  0.95237  1.0000
  C   C31       1.0  0.90861  0.76004  0.45235  1.0000
  C   C32       1.0  0.09142  0.25995  0.04768  1.0000
  C   C33       1.0  0.34621  0.93115  0.60467  1.0000
  C   C34       1.0  0.65386  0.43112  0.89536  1.0000
  C   C35       1.0  0.65377  0.06885  0.39534  1.0000
  C   C36       1.0  0.34622  0.56892  0.10466  1.0000
  N   N1        1.0  0.21470  0.45992  0.59655  1.0000
  N   N2        1.0  0.78527  0.96004  0.90343  1.0000
  N   N3        1.0  0.78526  0.54005  0.40343  1.0000
  N   N4        1.0  0.21484  0.04003  0.09660  1.0000
  N   N5        1.0  0.35368  0.69032  0.56077  1.0000
  N   N6        1.0  0.64640  0.19032  0.93928  1.0000
  N   N7        1.0  0.64620  0.30965  0.43923  1.0000
  N   N8        1.0  0.35368  0.80973  0.06075  1.0000
  Cl  Cl1       1.0  0.17382  0.55096  0.81439  1.0000
  Cl  Cl2       1.0  0.82622  0.05107  0.68560  1.0000
  Cl  Cl3       1.0  0.82621  0.44884  0.18562  1.0000
  Cl  Cl4       1.0  0.17378  0.94886  0.31437  1.0000
  O   O1        1.0  0.41381  0.02045  0.77592  1.0000
  O   O2        1.0  0.58608  0.52032  0.72406  1.0000
  O   O3        1.0  0.58610  0.97957  0.22408  1.0000
  O   O4        1.0  0.41396  0.47964  0.27592  1.0000
  O   O5        1.0  0.36996  0.79719  0.76071  1.0000
  O   O6        1.0  0.63015  0.29714  0.73932  1.0000
  O   O7        1.0  0.62970  0.20280  0.23927  1.0000
  O   O8        1.0  0.37015  0.70285  0.26073  1.0000
