data_image0
_chemical_formula_structural       Cu4H40C36N8Cl8O8
_chemical_formula_sum              "Cu4 H40 C36 N8 Cl8 O8"
_cell_length_a       8.49687
_cell_length_b       10.0063
_cell_length_c       13.9611
_cell_angle_alpha    90.0002
_cell_angle_beta     89.9998
_cell_angle_gamma    105.486

_space_group_name_H-M_alt    "P 1"
_space_group_IT_number       1

loop_
  _space_group_symop_operation_xyz
  'x, y, z'

loop_
  _atom_site_type_symbol
  _atom_site_label
  _atom_site_symmetry_multiplicity
  _atom_site_fract_x
  _atom_site_fract_y
  _atom_site_fract_z
  _atom_site_occupancy
  Cu  Cu1       1.0  0.67028  0.64768  0.44133  1.0000
  Cu  Cu2       1.0  0.82972  0.85233  0.94134  1.0000
  Cu  Cu3       1.0  0.32973  0.35231  0.55867  1.0000
  Cu  Cu4       1.0  0.17028  0.14768  0.05866  1.0000
  H   H1        1.0  0.57678  0.16403  0.09998  1.0000
  H   H2        1.0  0.92323  0.33598  0.59998  1.0000
  H   H3        1.0  0.42323  0.83597  0.90002  1.0000
  H   H4        1.0  0.07676  0.66402  0.40003  1.0000
  H   H5        1.0  0.61977  0.50713  0.16757  1.0000
  H   H6        1.0  0.88023  0.99288  0.66758  1.0000
  H   H7        1.0  0.38024  0.49287  0.83243  1.0000
  H   H8        1.0  0.11977  0.00712  0.33242  1.0000
  H   H9        1.0  0.67674  0.43641  0.27358  1.0000
  H   H10       1.0  0.82326  0.06360  0.77358  1.0000
  H   H11       1.0  0.32326  0.56359  0.72642  1.0000
  H   H12       1.0  0.17674  0.93640  0.22642  1.0000
  H   H13       1.0  0.33943  0.48227  0.23557  1.0000
  H   H14       1.0  0.16057  0.01773  0.73557  1.0000
  H   H15       1.0  0.66057  0.51772  0.76443  1.0000
  H   H16       1.0  0.83943  0.98227  0.26443  1.0000
  H   H17       1.0  0.39084  0.39869  0.33860  1.0000
  H   H18       1.0  0.10916  0.10131  0.83859  1.0000
  H   H19       1.0  0.60916  0.60130  0.66141  1.0000
  H   H20       1.0  0.89085  0.89870  0.16141  1.0000
  H   H21       1.0  0.38796  0.71212  0.23760  1.0000
  H   H22       1.0  0.11203  0.78788  0.73759  1.0000
  H   H23       1.0  0.61203  0.28787  0.76241  1.0000
  H   H24       1.0  0.88798  0.21212  0.26241  1.0000
  H   H25       1.0  0.42583  0.97306  0.25921  1.0000
  H   H26       1.0  0.07416  0.52694  0.75921  1.0000
  H   H27       1.0  0.57417  0.02693  0.74080  1.0000
  H   H28       1.0  0.92583  0.47306  0.24080  1.0000
  H   H29       1.0  0.55674  0.19051  0.35283  1.0000
  H   H30       1.0  0.94326  0.30950  0.85283  1.0000
  H   H31       1.0  0.44326  0.80949  0.64717  1.0000
  H   H32       1.0  0.05671  0.69050  0.14717  1.0000
  H   H33       1.0  0.75888  0.17936  0.47947  1.0000
  H   H34       1.0  0.74113  0.32065  0.97947  1.0000
  H   H35       1.0  0.24113  0.82064  0.52053  1.0000
  H   H36       1.0  0.25885  0.67936  0.02052  1.0000
  H   H37       1.0  0.80915  0.94781  0.51861  1.0000
  H   H38       1.0  0.69086  0.55220  0.01861  1.0000
  H   H39       1.0  0.19086  0.05218  0.48139  1.0000
  H   H40       1.0  0.30915  0.44782  0.98138  1.0000
  C   C1        1.0  0.51302  0.28898  0.18583  1.0000
  C   C2        1.0  0.98698  0.21103  0.68582  1.0000
  C   C3        1.0  0.48699  0.71101  0.81417  1.0000
  C   C4        1.0  0.01301  0.78898  0.31418  1.0000
  C   C5        1.0  0.57277  0.43304  0.22577  1.0000
  C   C6        1.0  0.92724  0.06697  0.72577  1.0000
  C   C7        1.0  0.42723  0.56696  0.77424  1.0000
  C   C8        1.0  0.07276  0.93303  0.27423  1.0000
  C   C9        1.0  0.44079  0.47558  0.28266  1.0000
  C   C10       1.0  0.05921  0.02443  0.78266  1.0000
  C   C11       1.0  0.55921  0.52441  0.71734  1.0000
  C   C12       1.0  0.94079  0.97558  0.21734  1.0000
  C   C13       1.0  0.47206  0.71638  0.29768  1.0000
  C   C14       1.0  0.02794  0.78362  0.79768  1.0000
  C   C15       1.0  0.52793  0.28360  0.70233  1.0000
  C   C16       1.0  0.97207  0.21639  0.20233  1.0000
  C   C17       1.0  0.54346  0.84829  0.34473  1.0000
  C   C18       1.0  0.95654  0.65171  0.84473  1.0000
  C   C19       1.0  0.45655  0.15170  0.65526  1.0000
  C   C20       1.0  0.04346  0.34829  0.15527  1.0000
  C   C21       1.0  0.50943  0.97188  0.31807  1.0000
  C   C22       1.0  0.99057  0.52812  0.81808  1.0000
  C   C23       1.0  0.49058  0.02812  0.68193  1.0000
  C   C24       1.0  0.00942  0.47188  0.18193  1.0000
  C   C25       1.0  0.58424  0.09253  0.36835  1.0000
  C   C26       1.0  0.91576  0.40747  0.86835  1.0000
  C   C27       1.0  0.41577  0.90746  0.63166  1.0000
  C   C28       1.0  0.08422  0.59253  0.13165  1.0000
  C   C29       1.0  0.69519  0.08672  0.44050  1.0000
  C   C30       1.0  0.80481  0.41328  0.94050  1.0000
  C   C31       1.0  0.30481  0.91327  0.55950  1.0000
  C   C32       1.0  0.19518  0.58673  0.05950  1.0000
  C   C33       1.0  0.72345  0.95923  0.46312  1.0000
  C   C34       1.0  0.77655  0.54078  0.96312  1.0000
  C   C35       1.0  0.27655  0.04076  0.53688  1.0000
  C   C36       1.0  0.22345  0.45923  0.03688  1.0000
  N   N1        1.0  0.51041  0.60846  0.32844  1.0000
  N   N2        1.0  0.98959  0.89155  0.82844  1.0000
  N   N3        1.0  0.48959  0.39153  0.67156  1.0000
  N   N4        1.0  0.01041  0.10846  0.17156  1.0000
  N   N5        1.0  0.64736  0.84245  0.41745  1.0000
  N   N6        1.0  0.85264  0.65756  0.91745  1.0000
  N   N7        1.0  0.35263  0.15754  0.58255  1.0000
  N   N8        1.0  0.14737  0.34245  0.08255  1.0000
  Cl  Cl1       1.0  0.67373  0.42527  0.46174  1.0000
  Cl  Cl2       1.0  0.82628  0.07474  0.96175  1.0000
  Cl  Cl3       1.0  0.32628  0.57472  0.53826  1.0000
  Cl  Cl4       1.0  0.17372  0.92527  0.03825  1.0000
  Cl  Cl5       1.0  0.86719  0.72176  0.55482  1.0000
  Cl  Cl6       1.0  0.63280  0.77825  0.05482  1.0000
  Cl  Cl7       1.0  0.13281  0.27824  0.44518  1.0000
  Cl  Cl8       1.0  0.36719  0.22176  0.94518  1.0000
  O   O1        1.0  0.62724  0.25324  0.13154  1.0000
  O   O2        1.0  0.87276  0.24677  0.63154  1.0000
  O   O3        1.0  0.37277  0.74677  0.86846  1.0000
  O   O4        1.0  0.12722  0.75323  0.36846  1.0000
  O   O5        1.0  0.37796  0.20981  0.20104  1.0000
  O   O6        1.0  0.12204  0.29020  0.70104  1.0000
  O   O7        1.0  0.62204  0.79019  0.79895  1.0000
  O   O8        1.0  0.87796  0.70980  0.29895  1.0000
