data_image0
_chemical_formula_structural       Zn2H8C16N8O4
_chemical_formula_sum              "Zn2 H8 C16 N8 O4"
_cell_length_a       4.84558
_cell_length_b       8.20708
_cell_length_c       10.5762
_cell_angle_alpha    89.9998
_cell_angle_beta     97.1757
_cell_angle_gamma    90

_space_group_name_H-M_alt    "P 1"
_space_group_IT_number       1

loop_
  _space_group_symop_operation_xyz
  'x, y, z'

loop_
  _atom_site_type_symbol
  _atom_site_label
  _atom_site_symmetry_multiplicity
  _atom_site_fract_x
  _atom_site_fract_y
  _atom_site_fract_z
  _atom_site_occupancy
  Zn  Zn1       1.0  0.81644  0.18778  0.54007  1.0000
  Zn  Zn2       1.0  0.81644  0.81222  0.04007  1.0000
  H   H1        1.0  0.62117  0.38612  0.32780  1.0000
  H   H2        1.0  0.62118  0.61388  0.82780  1.0000
  H   H3        1.0  0.84726  0.62407  0.24694  1.0000
  H   H4        1.0  0.84725  0.37593  0.74694  1.0000
  H   H5        1.0  0.41461  0.93768  0.48713  1.0000
  H   H6        1.0  0.41462  0.06232  0.98713  1.0000
  H   H7        1.0  0.20125  0.69646  0.57251  1.0000
  H   H8        1.0  0.20126  0.30354  0.07251  1.0000
  C   C1        1.0  0.40446  0.52448  0.45946  1.0000
  C   C2        1.0  0.40447  0.47553  0.95946  1.0000
  C   C3        1.0  0.57906  0.50636  0.36440  1.0000
  C   C4        1.0  0.57906  0.49365  0.86440  1.0000
  C   C5        1.0  0.70134  0.64201  0.31614  1.0000
  C   C6        1.0  0.70133  0.35799  0.81614  1.0000
  C   C7        1.0  0.64866  0.79879  0.36115  1.0000
  C   C8        1.0  0.64866  0.20121  0.86115  1.0000
  C   C9        1.0  0.46606  0.81711  0.45353  1.0000
  C   C10       1.0  0.46606  0.18288  0.95353  1.0000
  C   C11       1.0  0.34398  0.68083  0.50173  1.0000
  C   C12       1.0  0.34398  0.31917  0.00173  1.0000
  C   C13       1.0  0.28136  0.37821  0.51413  1.0000
  C   C14       1.0  0.28137  0.62179  0.01413  1.0000
  C   C15       1.0  0.78836  0.93889  0.31229  1.0000
  C   C16       1.0  0.78836  0.06111  0.81228  1.0000
  N   N1        1.0  0.87796  0.94691  0.19665  1.0000
  N   N2        1.0  0.87796  0.05308  0.69664  1.0000
  N   N3        1.0  0.00404  0.09308  0.18827  1.0000
  N   N4        1.0  0.00404  0.90692  0.68827  1.0000
  N   N5        1.0  0.99290  0.17273  0.29339  1.0000
  N   N6        1.0  0.99290  0.82727  0.79339  1.0000
  N   N7        1.0  0.85942  0.07981  0.37339  1.0000
  N   N8        1.0  0.85941  0.92019  0.87339  1.0000
  O   O1        1.0  0.41484  0.24391  0.52820  1.0000
  O   O2        1.0  0.41485  0.75609  0.02820  1.0000
  O   O3        1.0  0.03485  0.39191  0.54413  1.0000
  O   O4        1.0  0.03485  0.60809  0.04413  1.0000
