data_image0
_chemical_formula_structural       Mn3H28C46N2O12
_chemical_formula_sum              "Mn3 H28 C46 N2 O12"
_cell_length_a       8.56137
_cell_length_b       10.0928
_cell_length_c       11.4436
_cell_angle_alpha    78.8915
_cell_angle_beta     83.8858
_cell_angle_gamma    78.0881

_space_group_name_H-M_alt    "P 1"
_space_group_IT_number       1

loop_
  _space_group_symop_operation_xyz
  'x, y, z'

loop_
  _atom_site_type_symbol
  _atom_site_label
  _atom_site_symmetry_multiplicity
  _atom_site_fract_x
  _atom_site_fract_y
  _atom_site_fract_z
  _atom_site_occupancy
  Mn  Mn1       1.0  0.99938  0.49918  0.00041  1.0000
  Mn  Mn2       1.0  0.30912  0.57368  0.09684  1.0000
  Mn  Mn3       1.0  0.69137  0.42562  0.90319  1.0000
  H   H1        1.0  0.02047  0.63741  0.47176  1.0000
  H   H2        1.0  0.97990  0.36289  0.52792  1.0000
  H   H3        1.0  0.76828  0.67586  0.60117  1.0000
  H   H4        1.0  0.23236  0.32491  0.39870  1.0000
  H   H5        1.0  0.49438  0.70686  0.29862  1.0000
  H   H6        1.0  0.50541  0.29356  0.70173  1.0000
  H   H7        1.0  0.74593  0.67194  0.17078  1.0000
  H   H8        1.0  0.25368  0.32783  0.82943  1.0000
  H   H9        1.0  0.57093  0.54513  0.67232  1.0000
  H   H10       1.0  0.42960  0.45521  0.32773  1.0000
  H   H11       1.0  0.07974  0.71962  0.75566  1.0000
  H   H12       1.0  0.92111  0.28078  0.24498  1.0000
  H   H13       1.0  0.07476  0.87512  0.55841  1.0000
  H   H14       1.0  0.92556  0.12531  0.44199  1.0000
  H   H15       1.0  0.53986  0.96370  0.41118  1.0000
  H   H16       1.0  0.46009  0.03709  0.58918  1.0000
  H   H17       1.0  0.49820  0.17171  0.25480  1.0000
  H   H18       1.0  0.50140  0.82883  0.74522  1.0000
  H   H19       1.0  0.04778  0.08513  0.18915  1.0000
  H   H20       1.0  0.95249  0.91404  0.81082  1.0000
  H   H21       1.0  0.08680  0.87782  0.34822  1.0000
  H   H22       1.0  0.91375  0.12175  0.65216  1.0000
  H   H23       1.0  0.21735  0.05873  0.83090  1.0000
  H   H24       1.0  0.78181  0.94136  0.16910  1.0000
  H   H25       1.0  0.37235  0.08186  0.91200  1.0000
  H   H26       1.0  0.62812  0.91748  0.08713  1.0000
  H   H27       1.0  0.16977  0.11572  0.97182  1.0000
  H   H28       1.0  0.83120  0.88398  0.02845  1.0000
  C   C1        1.0  0.04531  0.61758  0.23603  1.0000
  C   C2        1.0  0.95370  0.38169  0.76331  1.0000
  C   C3        1.0  0.89864  0.65015  0.31305  1.0000
  C   C4        1.0  0.10123  0.34982  0.68688  1.0000
  C   C5        1.0  0.90461  0.65398  0.43455  1.0000
  C   C6        1.0  0.09565  0.34640  0.56526  1.0000
  C   C7        1.0  0.76329  0.67493  0.50659  1.0000
  C   C8        1.0  0.23713  0.32575  0.49334  1.0000
  C   C9        1.0  0.61332  0.69388  0.45924  1.0000
  C   C10       1.0  0.38697  0.30675  0.54090  1.0000
  C   C11       1.0  0.60882  0.69465  0.33677  1.0000
  C   C12       1.0  0.39105  0.30581  0.66344  1.0000
  C   C13       1.0  0.74942  0.67330  0.26517  1.0000
  C   C14       1.0  0.25022  0.32677  0.73498  1.0000
  C   C15       1.0  0.46385  0.70707  0.53735  1.0000
  C   C16       1.0  0.53661  0.29347  0.46287  1.0000
  C   C17       1.0  0.46270  0.61938  0.64809  1.0000
  C   C18       1.0  0.53786  0.38106  0.35212  1.0000
  C   C19       1.0  0.32663  0.62501  0.72798  1.0000
  C   C20       1.0  0.67398  0.37552  0.27211  1.0000
  C   C21       1.0  0.33271  0.53915  0.84837  1.0000
  C   C22       1.0  0.66739  0.46071  0.15170  1.0000
  C   C23       1.0  0.18545  0.71612  0.69358  1.0000
  C   C24       1.0  0.81516  0.28443  0.30683  1.0000
  C   C25       1.0  0.18368  0.80150  0.58279  1.0000
  C   C26       1.0  0.81667  0.19899  0.41761  1.0000
  C   C27       1.0  0.32160  0.80164  0.50377  1.0000
  C   C28       1.0  0.67878  0.19880  0.49668  1.0000
  C   C29       1.0  0.31238  0.90933  0.39547  1.0000
  C   C30       1.0  0.68784  0.09100  0.60489  1.0000
  C   C31       1.0  0.43176  0.98954  0.36280  1.0000
  C   C32       1.0  0.56822  0.01101  0.63754  1.0000
  C   C33       1.0  0.40985  0.10544  0.27422  1.0000
  C   C34       1.0  0.58996  0.89492  0.72595  1.0000
  C   C35       1.0  0.26872  0.14446  0.21333  1.0000
  C   C36       1.0  0.73114  0.85540  0.78672  1.0000
  C   C37       1.0  0.15573  0.05797  0.23802  1.0000
  C   C38       1.0  0.84442  0.94160  0.76210  1.0000
  C   C39       1.0  0.17664  0.94294  0.32835  1.0000
  C   C40       1.0  0.82369  0.05686  0.67195  1.0000
  C   C41       1.0  0.23579  0.28362  0.13725  1.0000
  C   C42       1.0  0.76368  0.71599  0.86269  1.0000
  C   C43       1.0  0.27563  0.90635  0.97960  1.0000
  C   C44       1.0  0.72446  0.09327  0.01995  1.0000
  C   C45       1.0  0.25694  0.04810  0.92100  1.0000
  C   C46       1.0  0.74324  0.95161  0.07876  1.0000
  N   N1        1.0  0.29201  0.79138  0.02470  1.0000
  N   N2        1.0  0.70799  0.20813  0.97458  1.0000
  O   O1        1.0  0.18315  0.61867  0.26797  1.0000
  O   O2        1.0  0.81681  0.38086  0.72988  1.0000
  O   O3        1.0  0.03435  0.59039  0.13118  1.0000
  O   O4        1.0  0.96274  0.40820  0.86890  1.0000
  O   O5        1.0  0.33267  0.36278  0.13990  1.0000
  O   O6        1.0  0.66654  0.63723  0.85963  1.0000
  O   O7        1.0  0.10829  0.31608  0.07948  1.0000
  O   O8        1.0  0.89072  0.68325  0.92091  1.0000
  O   O9        1.0  0.21217  0.56335  0.92560  1.0000
  O   O10       1.0  0.78761  0.43658  0.07378  1.0000
  O   O11       1.0  0.45537  0.44780  0.87678  1.0000
  O   O12       1.0  0.54412  0.55147  0.12298  1.0000
