data_image0
_chemical_formula_structural       Zn2H22C18N6O8
_chemical_formula_sum              "Zn2 H22 C18 N6 O8"
_cell_length_a       5.08677
_cell_length_b       11.4058
_cell_length_c       11.5457
_cell_angle_alpha    97.9983
_cell_angle_beta     94.0833
_cell_angle_gamma    105.381

_space_group_name_H-M_alt    "P 1"
_space_group_IT_number       1

loop_
  _space_group_symop_operation_xyz
  'x, y, z'

loop_
  _atom_site_type_symbol
  _atom_site_label
  _atom_site_symmetry_multiplicity
  _atom_site_fract_x
  _atom_site_fract_y
  _atom_site_fract_z
  _atom_site_occupancy
  Zn  Zn1       1.0  0.15277  0.26253  0.15421  1.0000
  Zn  Zn2       1.0  0.84725  0.73747  0.84579  1.0000
  H   H1        1.0  0.86730  0.29293  0.97192  1.0000
  H   H2        1.0  0.13271  0.70708  0.02809  1.0000
  H   H3        1.0  0.77579  0.35637  0.09725  1.0000
  H   H4        1.0  0.22422  0.64364  0.90275  1.0000
  H   H5        1.0  0.37082  0.15305  0.98590  1.0000
  H   H6        1.0  0.62918  0.84695  0.01410  1.0000
  H   H7        1.0  0.48407  0.13296  0.11893  1.0000
  H   H8        1.0  0.51593  0.86704  0.88106  1.0000
  H   H9        1.0  0.76035  0.41174  0.53918  1.0000
  H   H10       1.0  0.23963  0.58826  0.46082  1.0000
  H   H11       1.0  0.43834  0.27647  0.65253  1.0000
  H   H12       1.0  0.56163  0.72354  0.34748  1.0000
  H   H13       1.0  0.98420  0.13828  0.54981  1.0000
  H   H14       1.0  0.01578  0.86172  0.45019  1.0000
  H   H15       1.0  0.27289  0.46794  0.98921  1.0000
  H   H16       1.0  0.72713  0.53207  0.01079  1.0000
  H   H17       1.0  0.16400  0.52651  0.12306  1.0000
  H   H18       1.0  0.83601  0.47349  0.87695  1.0000
  H   H19       1.0  0.06034  0.98169  0.12765  1.0000
  H   H20       1.0  0.93965  0.01830  0.87234  1.0000
  H   H21       1.0  0.23182  0.93869  0.00555  1.0000
  H   H22       1.0  0.76817  0.06131  0.99444  1.0000
  C   C1        1.0  0.79816  0.12273  0.31055  1.0000
  C   C2        1.0  0.20182  0.87727  0.68945  1.0000
  C   C3        1.0  0.06266  0.20071  0.38510  1.0000
  C   C4        1.0  0.93734  0.79928  0.61488  1.0000
  C   C5        1.0  0.48279  0.34744  0.37840  1.0000
  C   C6        1.0  0.51722  0.65256  0.62160  1.0000
  C   C7        1.0  0.56210  0.35174  0.49746  1.0000
  C   C8        1.0  0.43788  0.64826  0.50256  1.0000
  C   C9        1.0  0.38059  0.27604  0.55970  1.0000
  C   C10       1.0  0.61938  0.72396  0.44029  1.0000
  C   C11       1.0  0.12851  0.19924  0.50418  1.0000
  C   C12       1.0  0.87148  0.80076  0.49582  1.0000
  C   C13       1.0  0.65878  0.41718  0.29504  1.0000
  C   C14       1.0  0.34122  0.58282  0.70496  1.0000
  C   C15       1.0  0.09243  0.47159  0.03487  1.0000
  C   C16       1.0  0.90759  0.52842  0.96514  1.0000
  C   C17       1.0  0.12405  0.00447  0.04259  1.0000
  C   C18       1.0  0.87595  0.99553  0.95741  1.0000
  N   N1        1.0  0.23936  0.27383  0.32733  1.0000
  N   N2        1.0  0.76064  0.72616  0.67267  1.0000
  N   N3        1.0  0.94273  0.34646  0.05230  1.0000
  N   N4        1.0  0.05729  0.65355  0.94770  1.0000
  N   N5        1.0  0.30787  0.13095  0.06427  1.0000
  N   N6        1.0  0.69214  0.86904  0.93572  1.0000
  O   O1        1.0  0.78366  0.13954  0.20053  1.0000
  O   O2        1.0  0.21634  0.86046  0.79946  1.0000
  O   O3        1.0  0.54391  0.39923  0.18676  1.0000
  O   O4        1.0  0.45610  0.60077  0.81324  1.0000
  O   O5        1.0  0.62078  0.05135  0.35488  1.0000
  O   O6        1.0  0.37923  0.94865  0.64511  1.0000
  O   O7        1.0  0.89594  0.48205  0.33061  1.0000
  O   O8        1.0  0.10405  0.51795  0.66940  1.0000
