data_image0
_chemical_formula_structural       Ag8H56C40S12N8
_chemical_formula_sum              "Ag8 H56 C40 S12 N8"
_cell_length_a       9.48678
_cell_length_b       10.419
_cell_length_c       15.7084
_cell_angle_alpha    96.487
_cell_angle_beta     90.0377
_cell_angle_gamma    117.044

_space_group_name_H-M_alt    "P 1"
_space_group_IT_number       1

loop_
  _space_group_symop_operation_xyz
  'x, y, z'

loop_
  _atom_site_type_symbol
  _atom_site_label
  _atom_site_symmetry_multiplicity
  _atom_site_fract_x
  _atom_site_fract_y
  _atom_site_fract_z
  _atom_site_occupancy
  Ag  Ag1       1.0  0.50588  0.14044  0.51823  1.0000
  Ag  Ag2       1.0  0.63453  0.14042  0.01834  1.0000
  Ag  Ag3       1.0  0.49411  0.85956  0.48177  1.0000
  Ag  Ag4       1.0  0.36547  0.85958  0.98166  1.0000
  Ag  Ag5       1.0  0.40454  0.93687  0.65552  1.0000
  Ag  Ag6       1.0  0.53232  0.93672  0.15546  1.0000
  Ag  Ag7       1.0  0.59546  0.06313  0.34448  1.0000
  Ag  Ag8       1.0  0.46768  0.06327  0.84454  1.0000
  H   H1        1.0  0.76769  0.42749  0.62504  1.0000
  H   H2        1.0  0.65973  0.42790  0.12514  1.0000
  H   H3        1.0  0.23231  0.57251  0.37496  1.0000
  H   H4        1.0  0.34028  0.57210  0.87487  1.0000
  H   H5        1.0  0.02465  0.57901  0.71097  1.0000
  H   H6        1.0  0.55471  0.57963  0.21123  1.0000
  H   H7        1.0  0.97535  0.42099  0.28903  1.0000
  H   H8        1.0  0.44530  0.42038  0.78877  1.0000
  H   H9        1.0  0.05782  0.51626  0.85697  1.0000
  H   H10       1.0  0.45872  0.51646  0.35708  1.0000
  H   H11       1.0  0.94218  0.48374  0.14304  1.0000
  H   H12       1.0  0.54129  0.48354  0.64292  1.0000
  H   H13       1.0  0.83393  0.30062  0.90860  1.0000
  H   H14       1.0  0.46623  0.30016  0.40838  1.0000
  H   H15       1.0  0.16606  0.69938  0.09140  1.0000
  H   H16       1.0  0.53376  0.69983  0.59162  1.0000
  H   H17       1.0  0.18463  0.42436  0.62195  1.0000
  H   H18       1.0  0.23967  0.42450  0.12220  1.0000
  H   H19       1.0  0.81536  0.57564  0.37805  1.0000
  H   H20       1.0  0.76033  0.57550  0.87780  1.0000
  H   H21       1.0  0.04008  0.42450  0.55017  1.0000
  H   H22       1.0  0.38406  0.42475  0.05029  1.0000
  H   H23       1.0  0.95992  0.57550  0.44983  1.0000
  H   H24       1.0  0.61594  0.57525  0.94971  1.0000
  H   H25       1.0  0.30204  0.49441  0.48373  1.0000
  H   H26       1.0  0.19155  0.49452  0.98397  1.0000
  H   H27       1.0  0.69796  0.50560  0.51627  1.0000
  H   H28       1.0  0.80845  0.50549  0.01603  1.0000
  H   H29       1.0  0.14927  0.33165  0.42659  1.0000
  H   H30       1.0  0.18159  0.33170  0.92687  1.0000
  H   H31       1.0  0.85074  0.66836  0.57341  1.0000
  H   H32       1.0  0.81842  0.66831  0.07312  1.0000
  H   H33       1.0  0.28919  0.32204  0.49764  1.0000
  H   H34       1.0  0.03235  0.32214  0.99799  1.0000
  H   H35       1.0  0.71082  0.67797  0.50236  1.0000
  H   H36       1.0  0.96765  0.67786  0.00200  1.0000
  H   H37       1.0  0.20627  0.20193  0.61371  1.0000
  H   H38       1.0  0.99570  0.20189  0.11371  1.0000
  H   H39       1.0  0.79373  0.79807  0.38629  1.0000
  H   H40       1.0  0.00430  0.79811  0.88628  1.0000
  H   H41       1.0  0.02660  0.03782  0.60494  1.0000
  H   H42       1.0  0.01178  0.03794  0.10518  1.0000
  H   H43       1.0  0.97340  0.96219  0.39505  1.0000
  H   H44       1.0  0.98822  0.96206  0.89481  1.0000
  H   H45       1.0  0.12442  0.13811  0.75919  1.0000
  H   H46       1.0  0.01413  0.13873  0.25931  1.0000
  H   H47       1.0  0.87558  0.86189  0.24080  1.0000
  H   H48       1.0  0.98586  0.86126  0.74068  1.0000
  H   H49       1.0  0.93613  0.13096  0.73773  1.0000
  H   H50       1.0  0.19529  0.13157  0.23807  1.0000
  H   H51       1.0  0.06387  0.86903  0.26227  1.0000
  H   H52       1.0  0.80470  0.86843  0.76193  1.0000
  H   H53       1.0  0.11226  0.29933  0.74471  1.0000
  H   H54       1.0  0.18726  0.29989  0.24473  1.0000
  H   H55       1.0  0.88774  0.70067  0.25529  1.0000
  H   H56       1.0  0.81273  0.70011  0.75526  1.0000
  C   C1        1.0  0.66307  0.28965  0.72379  1.0000
  C   C2        1.0  0.62626  0.28957  0.22368  1.0000
  C   C3        1.0  0.33693  0.71034  0.27621  1.0000
  C   C4        1.0  0.37374  0.71042  0.77632  1.0000
  C   C5        1.0  0.78616  0.40480  0.68883  1.0000
  C   C6        1.0  0.61845  0.40502  0.18885  1.0000
  C   C7        1.0  0.21383  0.59520  0.31117  1.0000
  C   C8        1.0  0.38156  0.59498  0.81115  1.0000
  C   C9        1.0  0.92925  0.48725  0.73622  1.0000
  C   C10       1.0  0.55814  0.48763  0.23636  1.0000
  C   C11       1.0  0.07075  0.51274  0.26378  1.0000
  C   C12       1.0  0.44186  0.51237  0.76364  1.0000
  C   C13       1.0  0.94866  0.45248  0.81734  1.0000
  C   C14       1.0  0.50398  0.45263  0.31740  1.0000
  C   C15       1.0  0.05134  0.54751  0.18266  1.0000
  C   C16       1.0  0.49602  0.54737  0.68260  1.0000
  C   C17       1.0  0.82416  0.33410  0.84634  1.0000
  C   C18       1.0  0.50967  0.33386  0.34620  1.0000
  C   C19       1.0  0.17584  0.66589  0.15366  1.0000
  C   C20       1.0  0.49033  0.66614  0.65380  1.0000
  C   C21       1.0  0.85594  0.14738  0.54347  1.0000
  C   C22       1.0  0.29167  0.14767  0.04359  1.0000
  C   C23       1.0  0.14406  0.85262  0.45653  1.0000
  C   C24       1.0  0.70833  0.85233  0.95641  1.0000
  C   C25       1.0  0.11289  0.37056  0.56160  1.0000
  C   C26       1.0  0.25745  0.37074  0.06181  1.0000
  C   C27       1.0  0.88710  0.62944  0.43840  1.0000
  C   C28       1.0  0.74256  0.62926  0.93819  1.0000
  C   C29       1.0  0.21958  0.37989  0.48775  1.0000
  C   C30       1.0  0.15969  0.38002  0.98803  1.0000
  C   C31       1.0  0.78042  0.62012  0.51226  1.0000
  C   C32       1.0  0.84031  0.61998  0.01197  1.0000
  C   C33       1.0  0.08016  0.15467  0.62724  1.0000
  C   C34       1.0  0.07478  0.15484  0.12737  1.0000
  C   C35       1.0  0.91983  0.84534  0.37275  1.0000
  C   C36       1.0  0.92522  0.84516  0.87262  1.0000
  C   C37       1.0  0.06141  0.18248  0.72290  1.0000
  C   C38       1.0  0.12143  0.18298  0.22306  1.0000
  C   C39       1.0  0.93859  0.81752  0.27710  1.0000
  C   C40       1.0  0.87856  0.81702  0.77694  1.0000
  S   S1        1.0  0.47265  0.19585  0.67307  1.0000
  S   S2        1.0  0.72308  0.19582  0.17313  1.0000
  S   S3        1.0  0.52735  0.80415  0.32693  1.0000
  S   S4        1.0  0.27692  0.80417  0.82687  1.0000
  S   S5        1.0  0.78914  0.23235  0.47537  1.0000
  S   S6        1.0  0.44307  0.23262  0.97548  1.0000
  S   S7        1.0  0.21086  0.76766  0.52463  1.0000
  S   S8        1.0  0.55693  0.76738  0.02452  1.0000
  S   S9        1.0  0.74131  0.97965  0.57444  1.0000
  S   S10       1.0  0.23909  0.98001  0.07464  1.0000
  S   S11       1.0  0.25869  0.02035  0.42555  1.0000
  S   S12       1.0  0.76090  0.01999  0.92535  1.0000
  N   N1        1.0  0.68472  0.25418  0.80131  1.0000
  N   N2        1.0  0.56897  0.25383  0.30111  1.0000
  N   N3        1.0  0.31527  0.74581  0.19869  1.0000
  N   N4        1.0  0.43103  0.74617  0.69890  1.0000
  N   N5        1.0  0.00785  0.21998  0.57479  1.0000
  N   N6        1.0  0.21223  0.22017  0.07494  1.0000
  N   N7        1.0  0.99214  0.78003  0.42521  1.0000
  N   N8        1.0  0.78778  0.77983  0.92506  1.0000
