data_image0
_chemical_formula_structural       CdH16C16Br4N6O6
_chemical_formula_sum              "Cd1 H16 C16 Br4 N6 O6"
_cell_length_a       8.76972
_cell_length_b       9.47733
_cell_length_c       8.03734
_cell_angle_alpha    78.3077
_cell_angle_beta     88.3207
_cell_angle_gamma    68.39

_space_group_name_H-M_alt    "P 1"
_space_group_IT_number       1

loop_
  _space_group_symop_operation_xyz
  'x, y, z'

loop_
  _atom_site_type_symbol
  _atom_site_label
  _atom_site_symmetry_multiplicity
  _atom_site_fract_x
  _atom_site_fract_y
  _atom_site_fract_z
  _atom_site_occupancy
  Cd  Cd1       1.0  0.50001  0.49999  0.50000  1.0000
  H   H1        1.0  0.81639  0.59446  0.69149  1.0000
  H   H2        1.0  0.18360  0.40555  0.30850  1.0000
  H   H3        1.0  0.59382  0.75715  0.19780  1.0000
  H   H4        1.0  0.40620  0.24282  0.80220  1.0000
  H   H5        1.0  0.08469  0.74411  0.46259  1.0000
  H   H6        1.0  0.91530  0.25591  0.53742  1.0000
  H   H7        1.0  0.99502  0.76053  0.66276  1.0000
  H   H8        1.0  0.00495  0.23949  0.33724  1.0000
  H   H9        1.0  0.81745  0.03920  0.53856  1.0000
  H   H10       1.0  0.18252  0.96082  0.46143  1.0000
  H   H11       1.0  0.89998  0.01643  0.33780  1.0000
  H   H12       1.0  0.10000  0.98358  0.66218  1.0000
  H   H13       1.0  0.60501  0.34178  0.18112  1.0000
  H   H14       1.0  0.39499  0.65822  0.81886  1.0000
  H   H15       1.0  0.55317  0.51980  0.16018  1.0000
  H   H16       1.0  0.44683  0.48020  0.83982  1.0000
  C   C1        1.0  0.78002  0.65575  0.56099  1.0000
  C   C2        1.0  0.21997  0.34425  0.43901  1.0000
  C   C3        1.0  0.66903  0.74067  0.30999  1.0000
  C   C4        1.0  0.33098  0.25931  0.69001  1.0000
  C   C5        1.0  0.97283  0.80372  0.52484  1.0000
  C   C6        1.0  0.02714  0.19630  0.47516  1.0000
  C   C7        1.0  0.92875  0.97875  0.47576  1.0000
  C   C8        1.0  0.07122  0.02127  0.52423  1.0000
  C   C9        1.0  0.69357  0.25077  0.85478  1.0000
  C   C10       1.0  0.30644  0.74924  0.14524  1.0000
  C   C11       1.0  0.85075  0.11985  0.93313  1.0000
  C   C12       1.0  0.14926  0.88015  0.06687  1.0000
  C   C13       1.0  0.98001  0.15333  0.99078  1.0000
  C   C14       1.0  0.02000  0.84667  0.00925  1.0000
  C   C15       1.0  0.12850  0.03524  0.05687  1.0000
  C   C16       1.0  0.87151  0.96477  0.94313  1.0000
  Br  Br1       1.0  0.94722  0.36465  0.97696  1.0000
  Br  Br2       1.0  0.05281  0.63533  0.02307  1.0000
  Br  Br3       1.0  0.30567  0.08036  0.13077  1.0000
  Br  Br4       1.0  0.69436  0.91963  0.86922  1.0000
  N   N1        1.0  0.66924  0.64229  0.46019  1.0000
  N   N2        1.0  0.33076  0.35770  0.53981  1.0000
  N   N3        1.0  0.84190  0.75780  0.47379  1.0000
  N   N4        1.0  0.15809  0.24221  0.52620  1.0000
  N   N5        1.0  0.77225  0.81297  0.31325  1.0000
  N   N6        1.0  0.22774  0.18702  0.68675  1.0000
  O   O1        1.0  0.69307  0.29593  0.69499  1.0000
  O   O2        1.0  0.30695  0.70406  0.30502  1.0000
  O   O3        1.0  0.60959  0.41999  0.24262  1.0000
  O   O4        1.0  0.39041  0.58001  0.75737  1.0000
  O   O5        1.0  0.57964  0.30195  0.95261  1.0000
  O   O6        1.0  0.42036  0.69804  0.04739  1.0000
