data_image0
_chemical_formula_structural       Zn8H26C18S2N32O14
_chemical_formula_sum              "Zn8 H26 C18 S2 N32 O14"
_cell_length_a       7.3439
_cell_length_b       12.9569
_cell_length_c       12.9569
_cell_angle_alpha    88.1395
_cell_angle_beta     84.869
_cell_angle_gamma    84.8691

_space_group_name_H-M_alt    "P 1"
_space_group_IT_number       1

loop_
  _space_group_symop_operation_xyz
  'x, y, z'

loop_
  _atom_site_type_symbol
  _atom_site_label
  _atom_site_symmetry_multiplicity
  _atom_site_fract_x
  _atom_site_fract_y
  _atom_site_fract_z
  _atom_site_occupancy
  Zn  Zn1       1.0  0.50000  0.84385  0.15615  1.0000
  Zn  Zn2       1.0  0.50000  0.15616  0.84384  1.0000
  Zn  Zn3       1.0  0.00000  0.82043  0.17957  1.0000
  Zn  Zn4       1.0  0.00000  0.17957  0.82043  1.0000
  Zn  Zn5       1.0  0.27812  0.78588  0.61086  1.0000
  Zn  Zn6       1.0  0.72188  0.38914  0.21412  1.0000
  Zn  Zn7       1.0  0.72188  0.21412  0.38914  1.0000
  Zn  Zn8       1.0  0.27812  0.61086  0.78588  1.0000
  H   H1        1.0  0.90937  0.72230  0.50766  1.0000
  H   H2        1.0  0.09062  0.49234  0.27770  1.0000
  H   H3        1.0  0.09062  0.27771  0.49235  1.0000
  H   H4        1.0  0.90937  0.50766  0.72229  1.0000
  H   H5        1.0  0.84920  0.74368  0.38413  1.0000
  H   H6        1.0  0.15080  0.61587  0.25632  1.0000
  H   H7        1.0  0.15079  0.25632  0.61587  1.0000
  H   H8        1.0  0.84921  0.38413  0.74368  1.0000
  H   H9        1.0  0.07483  0.13970  0.27642  1.0000
  H   H10       1.0  0.92517  0.72358  0.86030  1.0000
  H   H11       1.0  0.92517  0.86030  0.72358  1.0000
  H   H12       1.0  0.07483  0.27642  0.13971  1.0000
  H   H13       1.0  0.15879  0.03510  0.20509  1.0000
  H   H14       1.0  0.84121  0.79491  0.96490  1.0000
  H   H15       1.0  0.84121  0.96490  0.79491  1.0000
  H   H16       1.0  0.15879  0.20509  0.03510  1.0000
  H   H17       1.0  0.51896  0.83359  0.41120  1.0000
  H   H18       1.0  0.48103  0.58880  0.16641  1.0000
  H   H19       1.0  0.48103  0.16641  0.58880  1.0000
  H   H20       1.0  0.51897  0.41120  0.83359  1.0000
  H   H21       1.0  0.45428  0.04946  0.31259  1.0000
  H   H22       1.0  0.54573  0.68741  0.95054  1.0000
  H   H23       1.0  0.54572  0.95054  0.68742  1.0000
  H   H24       1.0  0.45427  0.31259  0.04946  1.0000
  H   H25       1.0  0.02406  0.66640  0.66640  1.0000
  H   H26       1.0  0.97594  0.33360  0.33360  1.0000
  C   C1        1.0  0.38355  0.81965  0.39060  1.0000
  C   C2        1.0  0.61645  0.60941  0.18035  1.0000
  C   C3        1.0  0.61645  0.18035  0.60940  1.0000
  C   C4        1.0  0.38356  0.39060  0.81965  1.0000
  C   C5        1.0  0.10250  0.78309  0.40231  1.0000
  C   C6        1.0  0.89750  0.59769  0.21690  1.0000
  C   C7        1.0  0.89750  0.21690  0.59769  1.0000
  C   C8        1.0  0.10250  0.40231  0.78309  1.0000
  C   C9        1.0  0.59782  0.02781  0.28917  1.0000
  C   C10       1.0  0.40219  0.71083  0.97219  1.0000
  C   C11       1.0  0.40219  0.97219  0.71083  1.0000
  C   C12       1.0  0.59781  0.28917  0.02781  1.0000
  C   C13       1.0  0.89039  0.03454  0.26087  1.0000
  C   C14       1.0  0.10962  0.73913  0.96546  1.0000
  C   C15       1.0  0.10961  0.96546  0.73913  1.0000
  C   C16       1.0  0.89038  0.26087  0.03454  1.0000
  C   C17       1.0  0.40766  0.02631  0.02630  1.0000
  C   C18       1.0  0.59233  0.97370  0.97368  1.0000
  S   S1        1.0  0.65516  0.68198  0.68198  1.0000
  S   S2        1.0  0.34484  0.31802  0.31802  1.0000
  N   N1        1.0  0.33552  0.82298  0.29494  1.0000
  N   N2        1.0  0.66448  0.70506  0.17702  1.0000
  N   N3        1.0  0.66448  0.17702  0.70506  1.0000
  N   N4        1.0  0.33552  0.29494  0.82298  1.0000
  N   N5        1.0  0.15592  0.79801  0.30090  1.0000
  N   N6        1.0  0.84408  0.69910  0.20198  1.0000
  N   N7        1.0  0.84408  0.20198  0.69910  1.0000
  N   N8        1.0  0.15592  0.30090  0.79802  1.0000
  N   N9        1.0  0.24354  0.79572  0.46100  1.0000
  N   N10       1.0  0.75646  0.53900  0.20428  1.0000
  N   N11       1.0  0.75646  0.20428  0.53901  1.0000
  N   N12       1.0  0.24354  0.46100  0.79572  1.0000
  N   N13       1.0  0.93001  0.76283  0.43898  1.0000
  N   N14       1.0  0.06999  0.56102  0.23717  1.0000
  N   N15       1.0  0.06999  0.23717  0.56102  1.0000
  N   N16       1.0  0.93002  0.43898  0.76283  1.0000
  N   N17       1.0  0.65802  0.94457  0.23594  1.0000
  N   N18       1.0  0.34198  0.76406  0.05543  1.0000
  N   N19       1.0  0.34198  0.05543  0.76406  1.0000
  N   N20       1.0  0.65801  0.23594  0.94457  1.0000
  N   N21       1.0  0.84637  0.94835  0.21659  1.0000
  N   N22       1.0  0.15364  0.78341  0.05165  1.0000
  N   N23       1.0  0.15363  0.05165  0.78342  1.0000
  N   N24       1.0  0.84636  0.21659  0.94835  1.0000
  N   N25       1.0  0.73622  0.08587  0.30795  1.0000
  N   N26       1.0  0.26379  0.69205  0.91413  1.0000
  N   N27       1.0  0.26378  0.91413  0.69205  1.0000
  N   N28       1.0  0.73621  0.30795  0.08587  1.0000
  N   N29       1.0  0.06244  0.06384  0.26197  1.0000
  N   N30       1.0  0.93757  0.73803  0.93616  1.0000
  N   N31       1.0  0.93757  0.93616  0.73803  1.0000
  N   N32       1.0  0.06243  0.26197  0.06385  1.0000
  O   O1        1.0  0.54621  0.73486  0.59868  1.0000
  O   O2        1.0  0.45379  0.40132  0.26515  1.0000
  O   O3        1.0  0.45379  0.26514  0.40132  1.0000
  O   O4        1.0  0.54621  0.59868  0.73486  1.0000
  O   O5        1.0  0.82604  0.62891  0.62891  1.0000
  O   O6        1.0  0.17395  0.37109  0.37110  1.0000
  O   O7        1.0  0.69747  0.75693  0.75693  1.0000
  O   O8        1.0  0.30253  0.24307  0.24308  1.0000
  O   O9        1.0  0.33963  0.98331  0.10815  1.0000
  O   O10       1.0  0.66037  0.89185  0.01669  1.0000
  O   O11       1.0  0.66037  0.01670  0.89183  1.0000
  O   O12       1.0  0.33963  0.10817  0.98329  1.0000
  O   O13       1.0  0.12614  0.69663  0.69663  1.0000
  O   O14       1.0  0.87386  0.30337  0.30338  1.0000
