data_image0
_chemical_formula_structural       Cd4H12C8Br4N16
_chemical_formula_sum              "Cd4 H12 C8 Br4 N16"
_cell_length_a       6.49974
_cell_length_b       7.99284
_cell_length_c       10.486
_cell_angle_alpha    90.0002
_cell_angle_beta     90.0001
_cell_angle_gamma    90.0003

_space_group_name_H-M_alt    "P 1"
_space_group_IT_number       1

loop_
  _space_group_symop_operation_xyz
  'x, y, z'

loop_
  _atom_site_type_symbol
  _atom_site_label
  _atom_site_symmetry_multiplicity
  _atom_site_fract_x
  _atom_site_fract_y
  _atom_site_fract_z
  _atom_site_occupancy
  Cd  Cd1       1.0  0.99335  0.68871  0.75617  1.0000
  Cd  Cd2       1.0  0.50665  0.31129  0.25617  1.0000
  Cd  Cd3       1.0  0.00665  0.18871  0.74383  1.0000
  Cd  Cd4       1.0  0.49335  0.81129  0.24383  1.0000
  H   H1        1.0  0.76360  0.80392  0.00924  1.0000
  H   H2        1.0  0.73639  0.19609  0.50924  1.0000
  H   H3        1.0  0.23639  0.30392  0.49075  1.0000
  H   H4        1.0  0.26361  0.69608  0.99075  1.0000
  H   H5        1.0  0.86905  0.72064  0.13993  1.0000
  H   H6        1.0  0.63095  0.27936  0.63993  1.0000
  H   H7        1.0  0.13094  0.22064  0.36007  1.0000
  H   H8        1.0  0.36905  0.77936  0.86007  1.0000
  H   H9        1.0  0.67634  0.16188  0.99142  1.0000
  H   H10       1.0  0.82367  0.83811  0.49142  1.0000
  H   H11       1.0  0.32366  0.66189  0.50858  1.0000
  H   H12       1.0  0.17634  0.33811  0.00858  1.0000
  C   C1        1.0  0.71433  0.29339  0.98188  1.0000
  C   C2        1.0  0.78568  0.70663  0.48189  1.0000
  C   C3        1.0  0.28567  0.79338  0.51812  1.0000
  C   C4        1.0  0.21434  0.20660  0.01812  1.0000
  C   C5        1.0  0.75117  0.55310  0.01802  1.0000
  C   C6        1.0  0.74882  0.44690  0.51803  1.0000
  C   C7        1.0  0.24882  0.05311  0.48197  1.0000
  C   C8        1.0  0.25118  0.94689  0.98198  1.0000
  Br  Br1       1.0  0.30274  0.43669  0.72012  1.0000
  Br  Br2       1.0  0.19727  0.56331  0.22011  1.0000
  Br  Br3       1.0  0.69726  0.93669  0.77989  1.0000
  Br  Br4       1.0  0.80274  0.06331  0.27988  1.0000
  N   N1        1.0  0.83662  0.52268  0.90398  1.0000
  N   N2        1.0  0.66337  0.47732  0.40398  1.0000
  N   N3        1.0  0.16337  0.02269  0.59601  1.0000
  N   N4        1.0  0.33663  0.97731  0.09602  1.0000
  N   N5        1.0  0.67218  0.41201  0.07021  1.0000
  N   N6        1.0  0.82782  0.58798  0.57021  1.0000
  N   N7        1.0  0.32782  0.91202  0.42979  1.0000
  N   N8        1.0  0.17218  0.08798  0.92979  1.0000
  N   N9        1.0  0.74818  0.71157  0.07677  1.0000
  N   N10       1.0  0.75182  0.28843  0.57677  1.0000
  N   N11       1.0  0.25181  0.21158  0.42322  1.0000
  N   N12       1.0  0.24818  0.78842  0.92322  1.0000
  N   N13       1.0  0.81068  0.35527  0.88057  1.0000
  N   N14       1.0  0.68932  0.64473  0.38057  1.0000
  N   N15       1.0  0.18931  0.85528  0.61943  1.0000
  N   N16       1.0  0.31068  0.14472  0.11943  1.0000
