data_image0
_chemical_formula_structural       Cd4H16C8S4N16O16
_chemical_formula_sum              "Cd4 H16 C8 S4 N16 O16"
_cell_length_a       6.74308
_cell_length_b       6.68868
_cell_length_c       14.0492
_cell_angle_alpha    90
_cell_angle_beta     90.0001
_cell_angle_gamma    90

_space_group_name_H-M_alt    "P 1"
_space_group_IT_number       1

loop_
  _space_group_symop_operation_xyz
  'x, y, z'

loop_
  _atom_site_type_symbol
  _atom_site_label
  _atom_site_symmetry_multiplicity
  _atom_site_fract_x
  _atom_site_fract_y
  _atom_site_fract_z
  _atom_site_occupancy
  Cd  Cd1       1.0  0.17378  0.55937  0.61096  1.0000
  Cd  Cd2       1.0  0.82622  0.55937  0.38904  1.0000
  Cd  Cd3       1.0  0.32622  0.55937  0.11096  1.0000
  Cd  Cd4       1.0  0.67378  0.55937  0.88904  1.0000
  H   H1        1.0  0.00052  0.25092  0.76680  1.0000
  H   H2        1.0  0.99948  0.25092  0.23320  1.0000
  H   H3        1.0  0.49948  0.25092  0.26680  1.0000
  H   H4        1.0  0.50052  0.25092  0.73319  1.0000
  H   H5        1.0  0.32588  0.17569  0.46829  1.0000
  H   H6        1.0  0.67412  0.17569  0.53171  1.0000
  H   H7        1.0  0.17412  0.17570  0.96829  1.0000
  H   H8        1.0  0.82588  0.17569  0.03171  1.0000
  H   H9        1.0  0.32168  0.91784  0.47457  1.0000
  H   H10       1.0  0.67832  0.91784  0.52543  1.0000
  H   H11       1.0  0.17832  0.91784  0.97457  1.0000
  H   H12       1.0  0.82168  0.91784  0.02543  1.0000
  H   H13       1.0  0.95560  0.86980  0.76505  1.0000
  H   H14       1.0  0.04440  0.86980  0.23495  1.0000
  H   H15       1.0  0.54440  0.86980  0.26505  1.0000
  H   H16       1.0  0.45560  0.86980  0.73495  1.0000
  C   C1        1.0  0.01795  0.95997  0.70829  1.0000
  C   C2        1.0  0.98205  0.95997  0.29171  1.0000
  C   C3        1.0  0.48205  0.95997  0.20829  1.0000
  C   C4        1.0  0.51795  0.95997  0.79171  1.0000
  C   C5        1.0  0.17264  0.05739  0.58195  1.0000
  C   C6        1.0  0.82737  0.05739  0.41805  1.0000
  C   C7        1.0  0.32737  0.05739  0.08195  1.0000
  C   C8        1.0  0.67263  0.05739  0.91805  1.0000
  S   S1        1.0  0.65737  0.54411  0.62676  1.0000
  S   S2        1.0  0.34263  0.54411  0.37324  1.0000
  S   S3        1.0  0.84263  0.54411  0.12676  1.0000
  S   S4        1.0  0.15737  0.54411  0.87324  1.0000
  N   N1        1.0  0.12476  0.22554  0.62995  1.0000
  N   N2        1.0  0.87525  0.22554  0.37005  1.0000
  N   N3        1.0  0.37525  0.22554  0.12995  1.0000
  N   N4        1.0  0.62476  0.22554  0.87005  1.0000
  N   N5        1.0  0.02404  0.15796  0.70862  1.0000
  N   N6        1.0  0.97596  0.15796  0.29138  1.0000
  N   N7        1.0  0.47596  0.15796  0.20862  1.0000
  N   N8        1.0  0.52404  0.15796  0.79138  1.0000
  N   N9        1.0  0.10833  0.88985  0.63016  1.0000
  N   N10       1.0  0.89167  0.88985  0.36984  1.0000
  N   N11       1.0  0.39167  0.88985  0.13016  1.0000
  N   N12       1.0  0.60833  0.88985  0.86983  1.0000
  N   N13       1.0  0.26458  0.05028  0.49761  1.0000
  N   N14       1.0  0.73543  0.05028  0.50239  1.0000
  N   N15       1.0  0.23542  0.05028  0.99761  1.0000
  N   N16       1.0  0.76457  0.05028  0.00238  1.0000
  O   O1        1.0  0.51845  0.71277  0.60876  1.0000
  O   O2        1.0  0.48155  0.71277  0.39124  1.0000
  O   O3        1.0  0.98155  0.71277  0.10876  1.0000
  O   O4        1.0  0.01845  0.71278  0.89125  1.0000
  O   O5        1.0  0.75589  0.56097  0.72110  1.0000
  O   O6        1.0  0.24411  0.56097  0.27890  1.0000
  O   O7        1.0  0.74411  0.56097  0.22110  1.0000
  O   O8        1.0  0.25589  0.56097  0.77890  1.0000
  O   O9        1.0  0.54444  0.35305  0.61923  1.0000
  O   O10       1.0  0.45556  0.35305  0.38077  1.0000
  O   O11       1.0  0.95555  0.35305  0.11923  1.0000
  O   O12       1.0  0.04444  0.35305  0.88077  1.0000
  O   O13       1.0  0.82019  0.54748  0.55326  1.0000
  O   O14       1.0  0.17981  0.54748  0.44675  1.0000
  O   O15       1.0  0.67981  0.54748  0.05326  1.0000
  O   O16       1.0  0.32019  0.54748  0.94674  1.0000
