data_image0
_chemical_formula_structural       Mo2H8C14N2O8
_chemical_formula_sum              "Mo2 H8 C14 N2 O8"
_cell_length_a       3.93947
_cell_length_b       9.59496
_cell_length_c       10.2971
_cell_angle_alpha    74.9313
_cell_angle_beta     86.604
_cell_angle_gamma    80.4482

_space_group_name_H-M_alt    "P 1"
_space_group_IT_number       1

loop_
  _space_group_symop_operation_xyz
  'x, y, z'

loop_
  _atom_site_type_symbol
  _atom_site_label
  _atom_site_symmetry_multiplicity
  _atom_site_fract_x
  _atom_site_fract_y
  _atom_site_fract_z
  _atom_site_occupancy
  Mo  Mo1       1.0  0.11265  0.16859  0.26428  1.0000
  Mo  Mo2       1.0  0.88732  0.83141  0.73572  1.0000
  H   H1        1.0  0.76540  0.44209  0.53754  1.0000
  H   H2        1.0  0.23459  0.55791  0.46246  1.0000
  H   H3        1.0  0.52423  0.55466  0.72258  1.0000
  H   H4        1.0  0.47578  0.44534  0.27742  1.0000
  H   H5        1.0  0.43994  0.39556  0.95141  1.0000
  H   H6        1.0  0.56008  0.60444  0.04859  1.0000
  H   H7        1.0  0.61869  0.12529  0.99607  1.0000
  H   H8        1.0  0.38132  0.87471  0.00393  1.0000
  C   C1        1.0  0.92241  0.16111  0.54640  1.0000
  C   C2        1.0  0.07758  0.83888  0.45361  1.0000
  C   C3        1.0  0.81378  0.22196  0.66022  1.0000
  C   C4        1.0  0.18621  0.77803  0.33977  1.0000
  C   C5        1.0  0.72965  0.37449  0.63855  1.0000
  C   C6        1.0  0.27035  0.62551  0.36145  1.0000
  C   C7        1.0  0.59644  0.43691  0.74179  1.0000
  C   C8        1.0  0.40356  0.56309  0.25820  1.0000
  C   C9        1.0  0.55082  0.34754  0.87053  1.0000
  C   C10       1.0  0.44919  0.65246  0.12947  1.0000
  C   C11       1.0  0.77531  0.13259  0.79211  1.0000
  C   C12       1.0  0.22469  0.86741  0.20789  1.0000
  C   C13       1.0  0.64538  0.19662  0.89608  1.0000
  C   C14       1.0  0.35462  0.80339  0.10392  1.0000
  N   N1        1.0  0.94413  0.01959  0.55814  1.0000
  N   N2        1.0  0.05587  0.98040  0.44186  1.0000
  O   O1        1.0  0.98693  0.24866  0.42903  1.0000
  O   O2        1.0  0.01307  0.75134  0.57097  1.0000
  O   O3        1.0  0.86122  0.98502  0.82436  1.0000
  O   O4        1.0  0.13877  0.01498  0.17564  1.0000
  O   O5        1.0  0.55740  0.15770  0.28233  1.0000
  O   O6        1.0  0.44261  0.84230  0.71767  1.0000
  O   O7        1.0  0.99763  0.32532  0.14159  1.0000
  O   O8        1.0  0.00236  0.67468  0.85841  1.0000
