data_image0
_chemical_formula_structural       Zn8H24C40O32
_chemical_formula_sum              "Zn8 H24 C40 O32"
_cell_length_a       4.9907
_cell_length_b       8.58498
_cell_length_c       24.8689
_cell_angle_alpha    95.0678
_cell_angle_beta     89.9998
_cell_angle_gamma    89.9999

_space_group_name_H-M_alt    "P 1"
_space_group_IT_number       1

loop_
  _space_group_symop_operation_xyz
  'x, y, z'

loop_
  _atom_site_type_symbol
  _atom_site_label
  _atom_site_symmetry_multiplicity
  _atom_site_fract_x
  _atom_site_fract_y
  _atom_site_fract_z
  _atom_site_occupancy
  Zn  Zn1       1.0  0.64289  0.67683  0.40162  1.0000
  Zn  Zn2       1.0  0.14289  0.32318  0.09838  1.0000
  Zn  Zn3       1.0  0.35712  0.32317  0.59839  1.0000
  Zn  Zn4       1.0  0.85712  0.67683  0.90162  1.0000
  Zn  Zn5       1.0  0.71750  0.40121  0.27755  1.0000
  Zn  Zn6       1.0  0.21750  0.59881  0.22245  1.0000
  Zn  Zn7       1.0  0.28250  0.59880  0.72245  1.0000
  Zn  Zn8       1.0  0.78250  0.40120  0.77755  1.0000
  H   H1        1.0  0.25656  0.38669  0.48242  1.0000
  H   H2        1.0  0.75657  0.61331  0.01758  1.0000
  H   H3        1.0  0.74344  0.61331  0.51759  1.0000
  H   H4        1.0  0.24344  0.38668  0.98241  1.0000
  H   H5        1.0  0.65963  0.02091  0.46785  1.0000
  H   H6        1.0  0.15963  0.97909  0.03215  1.0000
  H   H7        1.0  0.34037  0.97909  0.53215  1.0000
  H   H8        1.0  0.84038  0.02090  0.96785  1.0000
  H   H9        1.0  0.15999  0.10389  0.33226  1.0000
  H   H10       1.0  0.65999  0.89611  0.16774  1.0000
  H   H11       1.0  0.84000  0.89611  0.66774  1.0000
  H   H12       1.0  0.34001  0.10389  0.83226  1.0000
  H   H13       1.0  0.65137  0.03493  0.30482  1.0000
  H   H14       1.0  0.15137  0.96508  0.19518  1.0000
  H   H15       1.0  0.34862  0.96508  0.69518  1.0000
  H   H16       1.0  0.84862  0.03492  0.80481  1.0000
  H   H17       1.0  0.91596  0.89640  0.29162  1.0000
  H   H18       1.0  0.41596  0.10360  0.20838  1.0000
  H   H19       1.0  0.08403  0.10361  0.70838  1.0000
  H   H20       1.0  0.58403  0.89639  0.79162  1.0000
  H   H21       1.0  0.10437  0.57023  0.31585  1.0000
  H   H22       1.0  0.60437  0.42977  0.18415  1.0000
  H   H23       1.0  0.89564  0.42977  0.68415  1.0000
  H   H24       1.0  0.39564  0.57024  0.81585  1.0000
  C   C1        1.0  0.23345  0.25013  0.40563  1.0000
  C   C2        1.0  0.73345  0.74987  0.09437  1.0000
  C   C3        1.0  0.76654  0.74987  0.59438  1.0000
  C   C4        1.0  0.26654  0.25012  0.90562  1.0000
  C   C5        1.0  0.15913  0.28897  0.45945  1.0000
  C   C6        1.0  0.65913  0.71103  0.04055  1.0000
  C   C7        1.0  0.84086  0.71104  0.54055  1.0000
  C   C8        1.0  0.34087  0.28896  0.95945  1.0000
  C   C9        1.0  0.95209  0.20664  0.48197  1.0000
  C   C10       1.0  0.45210  0.79336  0.01802  1.0000
  C   C11       1.0  0.04790  0.79336  0.51803  1.0000
  C   C12       1.0  0.54791  0.20664  0.98197  1.0000
  C   C13       1.0  0.82384  0.08443  0.45112  1.0000
  C   C14       1.0  0.32383  0.91557  0.04888  1.0000
  C   C15       1.0  0.17617  0.91557  0.54888  1.0000
  C   C16       1.0  0.67618  0.08443  0.95112  1.0000
  C   C17       1.0  0.90312  0.04470  0.39806  1.0000
  C   C18       1.0  0.40311  0.95530  0.10194  1.0000
  C   C19       1.0  0.09688  0.95529  0.60194  1.0000
  C   C20       1.0  0.59689  0.04470  0.89806  1.0000
  C   C21       1.0  0.10486  0.12802  0.37450  1.0000
  C   C22       1.0  0.60486  0.87198  0.12550  1.0000
  C   C23       1.0  0.89514  0.87198  0.62551  1.0000
  C   C24       1.0  0.39514  0.12801  0.87449  1.0000
  C   C25       1.0  0.44331  0.34393  0.38002  1.0000
  C   C26       1.0  0.94332  0.65608  0.11998  1.0000
  C   C27       1.0  0.55669  0.65608  0.61999  1.0000
  C   C28       1.0  0.05669  0.34391  0.88002  1.0000
  C   C29       1.0  0.84119  0.25500  0.53680  1.0000
  C   C30       1.0  0.34119  0.74500  0.96320  1.0000
  C   C31       1.0  0.15881  0.74500  0.46321  1.0000
  C   C32       1.0  0.65881  0.25500  0.03680  1.0000
  C   C33       1.0  0.72891  0.92086  0.31433  1.0000
  C   C34       1.0  0.22891  0.07914  0.18567  1.0000
  C   C35       1.0  0.27109  0.07914  0.68567  1.0000
  C   C36       1.0  0.77109  0.92086  0.81433  1.0000
  C   C37       1.0  0.53156  0.79234  0.29705  1.0000
  C   C38       1.0  0.03155  0.20767  0.20294  1.0000
  C   C39       1.0  0.46844  0.20767  0.70295  1.0000
  C   C40       1.0  0.96844  0.79233  0.79705  1.0000
  O   O1        1.0  0.48673  0.30785  0.32962  1.0000
  O   O2        1.0  0.98675  0.69217  0.17038  1.0000
  O   O3        1.0  0.51328  0.69216  0.67038  1.0000
  O   O4        1.0  0.01323  0.30781  0.82962  1.0000
  O   O5        1.0  0.98523  0.56446  0.28466  1.0000
  O   O6        1.0  0.48523  0.43556  0.21534  1.0000
  O   O7        1.0  0.01477  0.43554  0.71535  1.0000
  O   O8        1.0  0.51477  0.56445  0.78466  1.0000
  O   O9        1.0  0.56163  0.45096  0.40934  1.0000
  O   O10       1.0  0.06163  0.54904  0.09066  1.0000
  O   O11       1.0  0.43837  0.54904  0.59067  1.0000
  O   O12       1.0  0.93840  0.45097  0.90933  1.0000
  O   O13       1.0  0.59380  0.22167  0.54255  1.0000
  O   O14       1.0  0.09381  0.77833  0.95745  1.0000
  O   O15       1.0  0.40619  0.77833  0.45745  1.0000
  O   O16       1.0  0.90619  0.22167  0.04255  1.0000
  O   O17       1.0  0.97913  0.32869  0.57393  1.0000
  O   O18       1.0  0.47913  0.67132  0.92607  1.0000
  O   O19       1.0  0.02087  0.67131  0.42607  1.0000
  O   O20       1.0  0.52087  0.32868  0.07393  1.0000
  O   O21       1.0  0.43150  0.79591  0.25043  1.0000
  O   O22       1.0  0.93149  0.20410  0.24957  1.0000
  O   O23       1.0  0.56849  0.20410  0.74957  1.0000
  O   O24       1.0  0.06850  0.79590  0.75043  1.0000
  O   O25       1.0  0.47605  0.68800  0.32889  1.0000
  O   O26       1.0  0.97604  0.31201  0.17111  1.0000
  O   O27       1.0  0.52395  0.31200  0.67111  1.0000
  O   O28       1.0  0.02396  0.68799  0.82889  1.0000
  O   O29       1.0  0.76900  0.92013  0.37127  1.0000
  O   O30       1.0  0.26900  0.07988  0.12873  1.0000
  O   O31       1.0  0.23100  0.07988  0.62873  1.0000
  O   O32       1.0  0.73101  0.92012  0.87127  1.0000
