data_image0
_chemical_formula_structural       Cd4P8H48C32N16O32
_chemical_formula_sum              "Cd4 P8 H48 C32 N16 O32"
_cell_length_a       7.19054
_cell_length_b       12.4905
_cell_length_c       16.041
_cell_angle_alpha    90
_cell_angle_beta     90.0002
_cell_angle_gamma    90.0001

_space_group_name_H-M_alt    "P 1"
_space_group_IT_number       1

loop_
  _space_group_symop_operation_xyz
  'x, y, z'

loop_
  _atom_site_type_symbol
  _atom_site_label
  _atom_site_symmetry_multiplicity
  _atom_site_fract_x
  _atom_site_fract_y
  _atom_site_fract_z
  _atom_site_occupancy
  Cd  Cd1       1.0  0.00000  0.50000  0.50000  1.0000
  Cd  Cd2       1.0  1.00000  1.00000  1.00000  1.0000
  Cd  Cd3       1.0  0.50000  1.00000  0.50000  1.0000
  Cd  Cd4       1.0  0.50000  0.50000  0.00000  1.0000
  P   P1        1.0  0.75538  0.35929  0.16124  1.0000
  P   P2        1.0  0.24462  0.14070  0.66124  1.0000
  P   P3        1.0  0.74462  0.85929  0.83875  1.0000
  P   P4        1.0  0.25538  0.64071  0.33876  1.0000
  P   P5        1.0  0.24462  0.64071  0.83876  1.0000
  P   P6        1.0  0.75538  0.85930  0.33876  1.0000
  P   P7        1.0  0.25538  0.14071  0.16124  1.0000
  P   P8        1.0  0.74462  0.35930  0.66124  1.0000
  H   H1        1.0  0.40502  0.32296  0.25898  1.0000
  H   H2        1.0  0.59498  0.17704  0.75898  1.0000
  H   H3        1.0  0.09498  0.82296  0.74102  1.0000
  H   H4        1.0  0.90502  0.67704  0.24102  1.0000
  H   H5        1.0  0.59498  0.67704  0.74102  1.0000
  H   H6        1.0  0.40502  0.82296  0.24103  1.0000
  H   H7        1.0  0.90502  0.17704  0.25898  1.0000
  H   H8        1.0  0.09498  0.32296  0.75898  1.0000
  H   H9        1.0  0.56795  0.40625  0.49853  1.0000
  H   H10       1.0  0.43205  0.09375  0.99853  1.0000
  H   H11       1.0  0.93205  0.90625  0.50147  1.0000
  H   H12       1.0  0.06795  0.59375  0.00147  1.0000
  H   H13       1.0  0.43205  0.59375  0.50147  1.0000
  H   H14       1.0  0.56794  0.90625  0.00147  1.0000
  H   H15       1.0  0.06795  0.09375  0.49853  1.0000
  H   H16       1.0  0.93205  0.40625  0.99853  1.0000
  H   H17       1.0  0.96219  0.43496  0.31167  1.0000
  H   H18       1.0  0.03781  0.06504  0.81168  1.0000
  H   H19       1.0  0.53781  0.93496  0.68832  1.0000
  H   H20       1.0  0.46219  0.56504  0.18833  1.0000
  H   H21       1.0  0.03782  0.56504  0.68833  1.0000
  H   H22       1.0  0.96219  0.93496  0.18833  1.0000
  H   H23       1.0  0.46219  0.06504  0.31168  1.0000
  H   H24       1.0  0.53781  0.43496  0.81168  1.0000
  H   H25       1.0  0.79308  0.69290  0.46262  1.0000
  H   H26       1.0  0.20692  0.80710  0.96262  1.0000
  H   H27       1.0  0.70692  0.19290  0.53738  1.0000
  H   H28       1.0  0.29308  0.30710  0.03738  1.0000
  H   H29       1.0  0.20692  0.30710  0.53738  1.0000
  H   H30       1.0  0.79308  0.19290  0.03738  1.0000
  H   H31       1.0  0.29308  0.80710  0.46262  1.0000
  H   H32       1.0  0.70692  0.69290  0.96262  1.0000
  H   H33       1.0  0.73170  0.65816  0.55583  1.0000
  H   H34       1.0  0.26830  0.84184  0.05583  1.0000
  H   H35       1.0  0.76830  0.15816  0.44417  1.0000
  H   H36       1.0  0.23170  0.34184  0.94417  1.0000
  H   H37       1.0  0.26830  0.34184  0.44417  1.0000
  H   H38       1.0  0.73170  0.15816  0.94417  1.0000
  H   H39       1.0  0.23170  0.84184  0.55583  1.0000
  H   H40       1.0  0.76830  0.65816  0.05583  1.0000
  H   H41       1.0  0.06618  0.32924  0.15016  1.0000
  H   H42       1.0  0.93382  0.17076  0.65016  1.0000
  H   H43       1.0  0.43382  0.82924  0.84984  1.0000
  H   H44       1.0  0.56618  0.67076  0.34984  1.0000
  H   H45       1.0  0.93382  0.67076  0.84984  1.0000
  H   H46       1.0  0.06618  0.82924  0.34984  1.0000
  H   H47       1.0  0.56618  0.17076  0.15016  1.0000
  H   H48       1.0  0.43382  0.32924  0.65016  1.0000
  C   C1        1.0  0.69456  0.37215  0.27086  1.0000
  C   C2        1.0  0.30543  0.12785  0.77086  1.0000
  C   C3        1.0  0.80543  0.87215  0.72914  1.0000
  C   C4        1.0  0.19457  0.62785  0.22914  1.0000
  C   C5        1.0  0.30544  0.62785  0.72914  1.0000
  C   C6        1.0  0.69457  0.87215  0.22914  1.0000
  C   C7        1.0  0.19457  0.12785  0.27086  1.0000
  C   C8        1.0  0.80544  0.37215  0.77086  1.0000
  C   C9        1.0  0.51551  0.34950  0.30101  1.0000
  C   C10       1.0  0.48449  0.15050  0.80101  1.0000
  C   C11       1.0  0.98448  0.84949  0.69899  1.0000
  C   C12       1.0  0.01551  0.65050  0.19899  1.0000
  C   C13       1.0  0.48449  0.65051  0.69900  1.0000
  C   C14       1.0  0.51551  0.84950  0.19900  1.0000
  C   C15       1.0  0.01551  0.15050  0.30101  1.0000
  C   C16       1.0  0.98449  0.34950  0.80101  1.0000
  C   C17       1.0  0.60317  0.39726  0.43268  1.0000
  C   C18       1.0  0.39683  0.10274  0.93268  1.0000
  C   C19       1.0  0.89683  0.89726  0.56732  1.0000
  C   C20       1.0  0.10317  0.60274  0.06732  1.0000
  C   C21       1.0  0.39683  0.60274  0.56732  1.0000
  C   C22       1.0  0.60317  0.89727  0.06732  1.0000
  C   C23       1.0  0.10317  0.10274  0.43268  1.0000
  C   C24       1.0  0.89683  0.39726  0.93268  1.0000
  C   C25       1.0  0.82130  0.41159  0.32908  1.0000
  C   C26       1.0  0.17870  0.08841  0.82908  1.0000
  C   C27       1.0  0.67870  0.91158  0.67092  1.0000
  C   C28       1.0  0.32130  0.58841  0.17092  1.0000
  C   C29       1.0  0.17871  0.58841  0.67092  1.0000
  C   C30       1.0  0.82130  0.91159  0.17092  1.0000
  C   C31       1.0  0.32130  0.08841  0.32908  1.0000
  C   C32       1.0  0.67870  0.41159  0.82908  1.0000
  N   N1        1.0  0.47093  0.36024  0.38168  1.0000
  N   N2        1.0  0.52907  0.13976  0.88168  1.0000
  N   N3        1.0  0.02907  0.86023  0.61832  1.0000
  N   N4        1.0  0.97093  0.63976  0.11832  1.0000
  N   N5        1.0  0.52907  0.63977  0.61832  1.0000
  N   N6        1.0  0.47093  0.86024  0.11832  1.0000
  N   N7        1.0  0.97093  0.13976  0.38168  1.0000
  N   N8        1.0  0.02907  0.36024  0.88168  1.0000
  N   N9        1.0  0.77485  0.42528  0.40952  1.0000
  N   N10       1.0  0.22515  0.07472  0.90952  1.0000
  N   N11       1.0  0.72515  0.92528  0.59048  1.0000
  N   N12       1.0  0.27485  0.57472  0.09048  1.0000
  N   N13       1.0  0.22515  0.57472  0.59048  1.0000
  N   N14       1.0  0.77484  0.92529  0.09048  1.0000
  N   N15       1.0  0.27484  0.07472  0.40952  1.0000
  N   N16       1.0  0.72515  0.42528  0.90952  1.0000
  O   O1        1.0  0.96835  0.38974  0.15662  1.0000
  O   O2        1.0  0.03165  0.11026  0.65662  1.0000
  O   O3        1.0  0.53165  0.88974  0.84338  1.0000
  O   O4        1.0  0.46835  0.61026  0.34338  1.0000
  O   O5        1.0  0.03165  0.61026  0.84338  1.0000
  O   O6        1.0  0.96835  0.88974  0.34338  1.0000
  O   O7        1.0  0.46835  0.11026  0.15662  1.0000
  O   O8        1.0  0.53165  0.38974  0.65662  1.0000
  O   O9        1.0  0.72804  0.24264  0.13557  1.0000
  O   O10       1.0  0.27196  0.25736  0.63557  1.0000
  O   O11       1.0  0.77196  0.74264  0.86443  1.0000
  O   O12       1.0  0.22804  0.75736  0.36443  1.0000
  O   O13       1.0  0.27196  0.75736  0.86443  1.0000
  O   O14       1.0  0.72804  0.74264  0.36443  1.0000
  O   O15       1.0  0.22804  0.25736  0.13557  1.0000
  O   O16       1.0  0.77196  0.24264  0.63557  1.0000
  O   O17       1.0  0.64313  0.44406  0.11750  1.0000
  O   O18       1.0  0.35686  0.05593  0.61750  1.0000
  O   O19       1.0  0.85686  0.94406  0.88250  1.0000
  O   O20       1.0  0.14314  0.55594  0.38250  1.0000
  O   O21       1.0  0.35687  0.55594  0.88250  1.0000
  O   O22       1.0  0.64314  0.94406  0.38250  1.0000
  O   O23       1.0  0.14314  0.05594  0.11750  1.0000
  O   O24       1.0  0.85686  0.44407  0.61750  1.0000
  O   O25       1.0  0.83853  0.66185  0.51588  1.0000
  O   O26       1.0  0.16147  0.83815  0.01588  1.0000
  O   O27       1.0  0.66147  0.16185  0.48412  1.0000
  O   O28       1.0  0.33853  0.33815  0.98413  1.0000
  O   O29       1.0  0.16147  0.33815  0.48412  1.0000
  O   O30       1.0  0.83853  0.16185  0.98412  1.0000
  O   O31       1.0  0.33853  0.83815  0.51587  1.0000
  O   O32       1.0  0.66147  0.66185  0.01588  1.0000
