data_image0
_chemical_formula_structural       Zn4P8H48C32N16O32
_chemical_formula_sum              "Zn4 P8 H48 C32 N16 O32"
_cell_length_a       7.07472
_cell_length_b       12.4002
_cell_length_c       15.5938
_cell_angle_alpha    90.0001
_cell_angle_beta     90.0001
_cell_angle_gamma    89.9998

_space_group_name_H-M_alt    "P 1"
_space_group_IT_number       1

loop_
  _space_group_symop_operation_xyz
  'x, y, z'

loop_
  _atom_site_type_symbol
  _atom_site_label
  _atom_site_symmetry_multiplicity
  _atom_site_fract_x
  _atom_site_fract_y
  _atom_site_fract_z
  _atom_site_occupancy
  Zn  Zn1       1.0  1.00000  0.50000  0.50000  1.0000
  Zn  Zn2       1.0  0.00000  0.00000  0.00000  1.0000
  Zn  Zn3       1.0  0.50000  0.00000  0.50000  1.0000
  Zn  Zn4       1.0  0.50000  0.50000  1.00000  1.0000
  P   P1        1.0  0.75462  0.64096  0.84278  1.0000
  P   P2        1.0  0.24537  0.85903  0.34278  1.0000
  P   P3        1.0  0.74537  0.14097  0.15722  1.0000
  P   P4        1.0  0.25463  0.35903  0.65722  1.0000
  P   P5        1.0  0.24537  0.35904  0.15722  1.0000
  P   P6        1.0  0.75463  0.14097  0.65722  1.0000
  P   P7        1.0  0.25462  0.85903  0.84278  1.0000
  P   P8        1.0  0.74537  0.64097  0.34278  1.0000
  H   H1        1.0  0.97214  0.56157  0.69082  1.0000
  H   H2        1.0  0.02786  0.93843  0.19082  1.0000
  H   H3        1.0  0.52786  0.06157  0.30918  1.0000
  H   H4        1.0  0.47214  0.43843  0.80918  1.0000
  H   H5        1.0  0.02786  0.43843  0.30918  1.0000
  H   H6        1.0  0.97214  0.06157  0.80918  1.0000
  H   H7        1.0  0.47214  0.93843  0.69082  1.0000
  H   H8        1.0  0.52786  0.56157  0.19082  1.0000
  H   H9        1.0  0.40341  0.67435  0.73948  1.0000
  H   H10       1.0  0.59658  0.82565  0.23948  1.0000
  H   H11       1.0  0.09658  0.17435  0.26052  1.0000
  H   H12       1.0  0.90342  0.32565  0.76052  1.0000
  H   H13       1.0  0.59659  0.32565  0.26052  1.0000
  H   H14       1.0  0.40342  0.17435  0.76052  1.0000
  H   H15       1.0  0.90342  0.82565  0.73948  1.0000
  H   H16       1.0  0.09658  0.67435  0.23948  1.0000
  H   H17       1.0  0.57919  0.58658  0.49553  1.0000
  H   H18       1.0  0.42081  0.91342  0.99553  1.0000
  H   H19       1.0  0.92080  0.08658  0.50447  1.0000
  H   H20       1.0  0.07919  0.41342  0.00447  1.0000
  H   H21       1.0  0.42081  0.41342  0.50447  1.0000
  H   H22       1.0  0.57919  0.08658  0.00447  1.0000
  H   H23       1.0  0.07919  0.91342  0.49553  1.0000
  H   H24       1.0  0.92081  0.58658  0.99553  1.0000
  H   H25       1.0  0.73509  0.35539  0.44544  1.0000
  H   H26       1.0  0.26491  0.14461  0.94544  1.0000
  H   H27       1.0  0.76490  0.85539  0.55456  1.0000
  H   H28       1.0  0.23510  0.64461  0.05456  1.0000
  H   H29       1.0  0.26491  0.64461  0.55456  1.0000
  H   H30       1.0  0.73509  0.85539  0.05456  1.0000
  H   H31       1.0  0.23509  0.14461  0.44544  1.0000
  H   H32       1.0  0.76490  0.35539  0.94544  1.0000
  H   H33       1.0  0.80973  0.31880  0.53877  1.0000
  H   H34       1.0  0.19027  0.18120  0.03877  1.0000
  H   H35       1.0  0.69027  0.81880  0.46123  1.0000
  H   H36       1.0  0.30973  0.68120  0.96123  1.0000
  H   H37       1.0  0.19027  0.68120  0.46123  1.0000
  H   H38       1.0  0.80973  0.81880  0.96123  1.0000
  H   H39       1.0  0.30973  0.18120  0.53877  1.0000
  H   H40       1.0  0.69027  0.31880  0.03877  1.0000
  H   H41       1.0  0.07060  0.66858  0.85344  1.0000
  H   H42       1.0  0.92939  0.83142  0.35345  1.0000
  H   H43       1.0  0.42940  0.16858  0.14655  1.0000
  H   H44       1.0  0.57060  0.33142  0.64655  1.0000
  H   H45       1.0  0.92940  0.33142  0.14656  1.0000
  H   H46       1.0  0.07061  0.16858  0.64655  1.0000
  H   H47       1.0  0.57060  0.83142  0.85345  1.0000
  H   H48       1.0  0.42939  0.66858  0.35345  1.0000
  C   C1        1.0  0.82957  0.58405  0.67149  1.0000
  C   C2        1.0  0.17043  0.91595  0.17149  1.0000
  C   C3        1.0  0.67043  0.08405  0.32851  1.0000
  C   C4        1.0  0.32957  0.41595  0.82851  1.0000
  C   C5        1.0  0.17043  0.41595  0.32851  1.0000
  C   C6        1.0  0.82957  0.08406  0.82851  1.0000
  C   C7        1.0  0.32957  0.91595  0.67149  1.0000
  C   C8        1.0  0.67043  0.58405  0.17149  1.0000
  C   C9        1.0  0.69747  0.62375  0.73007  1.0000
  C   C10       1.0  0.30252  0.87625  0.23007  1.0000
  C   C11       1.0  0.80252  0.12375  0.26993  1.0000
  C   C12       1.0  0.19748  0.37625  0.76993  1.0000
  C   C13       1.0  0.30253  0.37626  0.26993  1.0000
  C   C14       1.0  0.69748  0.12375  0.76993  1.0000
  C   C15       1.0  0.19748  0.87625  0.73007  1.0000
  C   C16       1.0  0.80252  0.62375  0.23007  1.0000
  C   C17       1.0  0.51725  0.64671  0.69742  1.0000
  C   C18       1.0  0.48274  0.85329  0.19742  1.0000
  C   C19       1.0  0.98274  0.14671  0.30258  1.0000
  C   C20       1.0  0.01726  0.35329  0.80258  1.0000
  C   C21       1.0  0.48275  0.35329  0.30258  1.0000
  C   C22       1.0  0.51726  0.14671  0.80258  1.0000
  C   C23       1.0  0.01726  0.85329  0.69742  1.0000
  C   C24       1.0  0.98274  0.64671  0.19742  1.0000
  C   C25       1.0  0.61281  0.59690  0.56320  1.0000
  C   C26       1.0  0.38719  0.90310  0.06320  1.0000
  C   C27       1.0  0.88718  0.09689  0.43680  1.0000
  C   C28       1.0  0.11281  0.40310  0.93680  1.0000
  C   C29       1.0  0.38719  0.40310  0.43680  1.0000
  C   C30       1.0  0.61281  0.09690  0.93680  1.0000
  C   C31       1.0  0.11281  0.90310  0.56320  1.0000
  C   C32       1.0  0.88719  0.59690  0.06320  1.0000
  N   N1        1.0  0.78689  0.56936  0.58832  1.0000
  N   N2        1.0  0.21310  0.93064  0.08832  1.0000
  N   N3        1.0  0.71310  0.06936  0.41168  1.0000
  N   N4        1.0  0.28690  0.43064  0.91168  1.0000
  N   N5        1.0  0.21310  0.43064  0.41168  1.0000
  N   N6        1.0  0.78690  0.06936  0.91168  1.0000
  N   N7        1.0  0.28689  0.93064  0.58832  1.0000
  N   N8        1.0  0.71311  0.56936  0.08832  1.0000
  N   N9        1.0  0.47615  0.63494  0.61414  1.0000
  N   N10       1.0  0.52384  0.86506  0.11414  1.0000
  N   N11       1.0  0.02384  0.13494  0.38586  1.0000
  N   N12       1.0  0.97616  0.36506  0.88586  1.0000
  N   N13       1.0  0.52385  0.36506  0.38586  1.0000
  N   N14       1.0  0.47616  0.13494  0.88586  1.0000
  N   N15       1.0  0.97616  0.86506  0.61414  1.0000
  N   N16       1.0  0.02385  0.63494  0.11414  1.0000
  O   O1        1.0  0.63468  0.56136  0.89125  1.0000
  O   O2        1.0  0.36532  0.93864  0.39125  1.0000
  O   O3        1.0  0.86532  0.06136  0.10876  1.0000
  O   O4        1.0  0.13468  0.43864  0.60876  1.0000
  O   O5        1.0  0.36532  0.43864  0.10875  1.0000
  O   O6        1.0  0.63468  0.06136  0.60876  1.0000
  O   O7        1.0  0.13467  0.93863  0.89124  1.0000
  O   O8        1.0  0.86532  0.56137  0.39125  1.0000
  O   O9        1.0  0.96938  0.60766  0.84935  1.0000
  O   O10       1.0  0.03061  0.89234  0.34935  1.0000
  O   O11       1.0  0.53062  0.10766  0.15065  1.0000
  O   O12       1.0  0.46938  0.39234  0.65065  1.0000
  O   O13       1.0  0.03062  0.39234  0.15065  1.0000
  O   O14       1.0  0.96939  0.10766  0.65065  1.0000
  O   O15       1.0  0.46938  0.89234  0.84935  1.0000
  O   O16       1.0  0.53061  0.60766  0.34935  1.0000
  O   O17       1.0  0.73398  0.76060  0.86444  1.0000
  O   O18       1.0  0.26602  0.73939  0.36444  1.0000
  O   O19       1.0  0.76602  0.26060  0.13556  1.0000
  O   O20       1.0  0.23398  0.23939  0.63556  1.0000
  O   O21       1.0  0.26603  0.23940  0.13556  1.0000
  O   O22       1.0  0.73398  0.26061  0.63556  1.0000
  O   O23       1.0  0.23398  0.73939  0.86444  1.0000
  O   O24       1.0  0.76601  0.76061  0.36444  1.0000
  O   O25       1.0  0.84798  0.35420  0.48437  1.0000
  O   O26       1.0  0.15202  0.14580  0.98437  1.0000
  O   O27       1.0  0.65201  0.85420  0.51563  1.0000
  O   O28       1.0  0.34798  0.64580  0.01563  1.0000
  O   O29       1.0  0.15202  0.64580  0.51563  1.0000
  O   O30       1.0  0.84798  0.85420  0.01563  1.0000
  O   O31       1.0  0.34798  0.14580  0.48437  1.0000
  O   O32       1.0  0.65202  0.35420  0.98437  1.0000
