data_image0
_chemical_formula_structural       Cd4H36C56N20O16
_chemical_formula_sum              "Cd4 H36 C56 N20 O16"
_cell_length_a       9.90024
_cell_length_b       10.0646
_cell_length_c       14.7947
_cell_angle_alpha    83.8258
_cell_angle_beta     83.2986
_cell_angle_gamma    80.0666

_space_group_name_H-M_alt    "P 1"
_space_group_IT_number       1

loop_
  _space_group_symop_operation_xyz
  'x, y, z'

loop_
  _atom_site_type_symbol
  _atom_site_label
  _atom_site_symmetry_multiplicity
  _atom_site_fract_x
  _atom_site_fract_y
  _atom_site_fract_z
  _atom_site_occupancy
  Cd  Cd1       1.0  0.19459  0.25403  0.15829  1.0000
  Cd  Cd2       1.0  0.80541  0.74597  0.84171  1.0000
  Cd  Cd3       1.0  0.98925  0.99450  0.31669  1.0000
  Cd  Cd4       1.0  0.01075  0.00550  0.68331  1.0000
  H   H1        1.0  0.02803  0.46634  0.31119  1.0000
  H   H2        1.0  0.97197  0.53366  0.68881  1.0000
  H   H3        1.0  0.22717  0.65333  0.49536  1.0000
  H   H4        1.0  0.77283  0.34667  0.50464  1.0000
  H   H5        1.0  0.23722  0.22004  0.52554  1.0000
  H   H6        1.0  0.76278  0.77996  0.47447  1.0000
  H   H7        1.0  0.75356  0.27048  0.85395  1.0000
  H   H8        1.0  0.24644  0.72952  0.14605  1.0000
  H   H9        1.0  0.50676  0.09670  0.69236  1.0000
  H   H10       1.0  0.49324  0.90330  0.30764  1.0000
  H   H11       1.0  0.48005  0.52953  0.67829  1.0000
  H   H12       1.0  0.51995  0.47047  0.32171  1.0000
  H   H13       1.0  0.41126  0.21120  0.92571  1.0000
  H   H14       1.0  0.58874  0.78880  0.07429  1.0000
  H   H15       1.0  0.26264  0.25123  0.77239  1.0000
  H   H16       1.0  0.73736  0.74877  0.22761  1.0000
  H   H17       1.0  0.64514  0.44856  0.09605  1.0000
  H   H18       1.0  0.35486  0.55144  0.90395  1.0000
  H   H19       1.0  0.82119  0.36786  0.23273  1.0000
  H   H20       1.0  0.17881  0.63214  0.76727  1.0000
  H   H21       1.0  0.96962  0.01389  0.06449  1.0000
  H   H22       1.0  0.03038  0.98611  0.93551  1.0000
  H   H23       1.0  0.70758  0.06693  0.00346  1.0000
  H   H24       1.0  0.29242  0.93307  0.99654  1.0000
  H   H25       1.0  0.47606  0.20947  0.48877  1.0000
  H   H26       1.0  0.52394  0.79053  0.51123  1.0000
  H   H27       1.0  0.74098  0.08232  0.52251  1.0000
  H   H28       1.0  0.25903  0.91768  0.47748  1.0000
  H   H29       1.0  0.80058  0.42568  0.94553  1.0000
  H   H30       1.0  0.19942  0.57432  0.05446  1.0000
  H   H31       1.0  0.02185  0.31871  0.82791  1.0000
  H   H32       1.0  0.97815  0.68129  0.17209  1.0000
  H   H33       1.0  0.47563  0.21655  0.31409  1.0000
  H   H34       1.0  0.52437  0.78345  0.68591  1.0000
  H   H35       1.0  0.54129  0.09393  0.15245  1.0000
  H   H36       1.0  0.45871  0.90607  0.84755  1.0000
  C   C1        1.0  0.13229  0.32945  0.41373  1.0000
  C   C2        1.0  0.86771  0.67055  0.58627  1.0000
  C   C3        1.0  0.08930  0.45706  0.36873  1.0000
  C   C4        1.0  0.91070  0.54294  0.63127  1.0000
  C   C5        1.0  0.12216  0.57385  0.39805  1.0000
  C   C6        1.0  0.87784  0.42615  0.60195  1.0000
  C   C7        1.0  0.20041  0.56293  0.47211  1.0000
  C   C8        1.0  0.79959  0.43707  0.52789  1.0000
  C   C9        1.0  0.24546  0.43543  0.51621  1.0000
  C   C10       1.0  0.75453  0.56457  0.48379  1.0000
  C   C11       1.0  0.20838  0.31839  0.48839  1.0000
  C   C12       1.0  0.79162  0.68161  0.51161  1.0000
  C   C13       1.0  0.09350  0.20515  0.38353  1.0000
  C   C14       1.0  0.90650  0.79485  0.61647  1.0000
  C   C15       1.0  0.07161  0.71015  0.35117  1.0000
  C   C16       1.0  0.92838  0.28985  0.64883  1.0000
  C   C17       1.0  0.61816  0.41414  0.77173  1.0000
  C   C18       1.0  0.38184  0.58586  0.22827  1.0000
  C   C19       1.0  0.67356  0.28392  0.80768  1.0000
  C   C20       1.0  0.32644  0.71608  0.19232  1.0000
  C   C21       1.0  0.63208  0.16902  0.78123  1.0000
  C   C22       1.0  0.36792  0.83097  0.21877  1.0000
  C   C23       1.0  0.53684  0.18470  0.71676  1.0000
  C   C24       1.0  0.46316  0.81530  0.28324  1.0000
  C   C25       1.0  0.48185  0.31446  0.68022  1.0000
  C   C26       1.0  0.51815  0.68554  0.31978  1.0000
  C   C27       1.0  0.52152  0.42944  0.70834  1.0000
  C   C28       1.0  0.47848  0.57056  0.29166  1.0000
  C   C29       1.0  0.67006  0.53622  0.79532  1.0000
  C   C30       1.0  0.32994  0.46378  0.20468  1.0000
  C   C31       1.0  0.69996  0.03054  0.81519  1.0000
  C   C32       1.0  0.30004  0.96946  0.18482  1.0000
  C   C33       1.0  0.30189  0.24296  0.92062  1.0000
  C   C34       1.0  0.69811  0.75704  0.07938  1.0000
  C   C35       1.0  0.23164  0.26318  0.84385  1.0000
  C   C36       1.0  0.76836  0.73682  0.15615  1.0000
  C   C37       1.0  0.08492  0.30609  0.96548  1.0000
  C   C38       1.0  0.91508  0.69391  0.03452  1.0000
  C   C39       1.0  0.96417  0.34159  0.02799  1.0000
  C   C40       1.0  0.03583  0.65841  0.97201  1.0000
  C   C41       1.0  0.75418  0.40822  0.09210  1.0000
  C   C42       1.0  0.24582  0.59178  0.90790  1.0000
  C   C43       1.0  0.84257  0.36921  0.15908  1.0000
  C   C44       1.0  0.15743  0.63079  0.84092  1.0000
  C   C45       1.0  0.86902  0.03743  0.10159  1.0000
  C   C46       1.0  0.13098  0.96257  0.89841  1.0000
  C   C47       1.0  0.73971  0.06536  0.07112  1.0000
  C   C48       1.0  0.26029  0.93464  0.92888  1.0000
  C   C49       1.0  0.72165  0.07618  0.22025  1.0000
  C   C50       1.0  0.27835  0.92382  0.77975  1.0000
  C   C51       1.0  0.67541  0.09716  0.31422  1.0000
  C   C52       1.0  0.32459  0.90284  0.68578  1.0000
  C   C53       1.0  0.56106  0.16414  0.44296  1.0000
  C   C54       1.0  0.43894  0.83586  0.55704  1.0000
  C   C55       1.0  0.69194  0.10034  0.45950  1.0000
  C   C56       1.0  0.30806  0.89966  0.54050  1.0000
  N   N1        1.0  0.32869  0.43447  0.58761  1.0000
  N   N2        1.0  0.67131  0.56553  0.41239  1.0000
  N   N3        1.0  0.39158  0.31802  0.61246  1.0000
  N   N4        1.0  0.60842  0.68198  0.38755  1.0000
  N   N5        1.0  0.97259  0.32808  0.11831  1.0000
  N   N6        1.0  0.02741  0.67192  0.88169  1.0000
  N   N7        1.0  0.21000  0.26960  0.99598  1.0000
  N   N8        1.0  0.79000  0.73040  0.00401  1.0000
  N   N9        1.0  0.83250  0.38987  0.00975  1.0000
  N   N10       1.0  0.16750  0.61013  0.99025  1.0000
  N   N11       1.0  0.09564  0.30293  0.87333  1.0000
  N   N12       1.0  0.90436  0.69707  0.12666  1.0000
  N   N13       1.0  0.76190  0.05877  0.37898  1.0000
  N   N14       1.0  0.23810  0.94122  0.62102  1.0000
  N   N15       1.0  0.85647  0.04398  0.19418  1.0000
  N   N16       1.0  0.14353  0.95602  0.80582  1.0000
  N   N17       1.0  0.55199  0.16116  0.35086  1.0000
  N   N18       1.0  0.44801  0.83884  0.64914  1.0000
  N   N19       1.0  0.64738  0.08981  0.14719  1.0000
  N   N20       1.0  0.35262  0.91019  0.85281  1.0000
  O   O1        1.0  0.06829  0.20792  0.29877  1.0000
  O   O2        1.0  0.93171  0.79209  0.70123  1.0000
  O   O3        1.0  0.08274  0.10379  0.43909  1.0000
  O   O4        1.0  0.91726  0.89621  0.56091  1.0000
  O   O5        1.0  0.98849  0.72024  0.29116  1.0000
  O   O6        1.0  0.01151  0.27976  0.70884  1.0000
  O   O7        1.0  0.11553  0.81127  0.37708  1.0000
  O   O8        1.0  0.88446  0.18873  0.62292  1.0000
  O   O9        1.0  0.62131  0.65373  0.76266  1.0000
  O   O10       1.0  0.37869  0.34627  0.23733  1.0000
  O   O11       1.0  0.76802  0.51705  0.84773  1.0000
  O   O12       1.0  0.23198  0.48294  0.15227  1.0000
  O   O13       1.0  0.63214  0.93099  0.81900  1.0000
  O   O14       1.0  0.36785  0.06901  0.18100  1.0000
  O   O15       1.0  0.82219  0.01497  0.83589  1.0000
  O   O16       1.0  0.17781  0.98503  0.16411  1.0000
