data_image0
_chemical_formula_structural       Ni2H36C36N8O10
_chemical_formula_sum              "Ni2 H36 C36 N8 O10"
_cell_length_a       6.96069
_cell_length_b       10.1227
_cell_length_c       13.6577
_cell_angle_alpha    88.7075
_cell_angle_beta     86.1972
_cell_angle_gamma    69.9012

_space_group_name_H-M_alt    "P 1"
_space_group_IT_number       1

loop_
  _space_group_symop_operation_xyz
  'x, y, z'

loop_
  _atom_site_type_symbol
  _atom_site_label
  _atom_site_symmetry_multiplicity
  _atom_site_fract_x
  _atom_site_fract_y
  _atom_site_fract_z
  _atom_site_occupancy
  Ni  Ni1       1.0  0.86319  0.27436  0.25018  1.0000
  Ni  Ni2       1.0  0.13681  0.72565  0.74982  1.0000
  H   H1        1.0  0.15041  0.00300  0.96870  1.0000
  H   H2        1.0  0.84665  0.00276  0.53130  1.0000
  H   H3        1.0  0.84957  0.99701  0.03129  1.0000
  H   H4        1.0  0.15337  0.99725  0.46870  1.0000
  H   H5        1.0  0.44416  0.88205  0.85164  1.0000
  H   H6        1.0  0.67369  0.88188  0.64833  1.0000
  H   H7        1.0  0.55581  0.11795  0.14835  1.0000
  H   H8        1.0  0.32633  0.11812  0.35167  1.0000
  H   H9        1.0  0.21965  0.60610  0.43325  1.0000
  H   H10       1.0  0.17591  0.60605  0.06677  1.0000
  H   H11       1.0  0.78036  0.39390  0.56675  1.0000
  H   H12       1.0  0.82409  0.39395  0.93324  1.0000
  H   H13       1.0  0.00437  0.73988  0.48740  1.0000
  H   H14       1.0  0.25767  0.73975  0.01263  1.0000
  H   H15       1.0  0.99564  0.26012  0.51260  1.0000
  H   H16       1.0  0.74232  0.26025  0.98738  1.0000
  H   H17       1.0  0.16428  0.40968  0.33200  1.0000
  H   H18       1.0  0.42714  0.40998  0.16846  1.0000
  H   H19       1.0  0.83573  0.59032  0.66800  1.0000
  H   H20       1.0  0.57286  0.59002  0.83155  1.0000
  H   H21       1.0  0.64116  0.73142  0.45554  1.0000
  H   H22       1.0  0.62948  0.73110  0.04447  1.0000
  H   H23       1.0  0.35885  0.26858  0.54446  1.0000
  H   H24       1.0  0.37051  0.26890  0.95552  1.0000
  H   H25       1.0  0.91217  0.84682  0.32225  1.0000
  H   H26       1.0  0.24213  0.84718  0.17769  1.0000
  H   H27       1.0  0.08784  0.15318  0.67775  1.0000
  H   H28       1.0  0.75785  0.15283  0.82231  1.0000
  H   H29       1.0  0.16016  0.84095  0.35154  1.0000
  H   H30       1.0  0.00022  0.84070  0.14855  1.0000
  H   H31       1.0  0.83984  0.15904  0.64847  1.0000
  H   H32       1.0  0.99977  0.15929  0.85145  1.0000
  H   H33       1.0  0.52446  0.51694  0.38009  1.0000
  H   H34       1.0  0.96019  0.51660  0.12018  1.0000
  H   H35       1.0  0.47554  0.48306  0.61992  1.0000
  H   H36       1.0  0.03981  0.48340  0.87982  1.0000
  C   C1        1.0  0.30313  0.00237  0.98253  1.0000
  C   C2        1.0  0.69451  0.00223  0.51746  1.0000
  C   C3        1.0  0.69685  0.99762  0.01746  1.0000
  C   C4        1.0  0.30550  0.99778  0.48254  1.0000
  C   C5        1.0  0.15867  0.14598  0.13598  1.0000
  C   C6        1.0  0.69561  0.14606  0.36418  1.0000
  C   C7        1.0  0.84131  0.85402  0.86402  1.0000
  C   C8        1.0  0.30441  0.85393  0.63581  1.0000
  C   C9        1.0  0.46736  0.93423  0.91663  1.0000
  C   C10       1.0  0.59833  0.93414  0.58337  1.0000
  C   C11       1.0  0.53262  0.06577  0.08336  1.0000
  C   C12       1.0  0.40169  0.06587  0.41663  1.0000
  C   C13       1.0  0.33424  0.06879  0.06622  1.0000
  C   C14       1.0  0.59713  0.06874  0.43379  1.0000
  C   C15       1.0  0.66574  0.93121  0.93378  1.0000
  C   C16       1.0  0.40289  0.93126  0.56620  1.0000
  C   C17       1.0  0.06489  0.67805  0.42031  1.0000
  C   C18       1.0  0.25870  0.67805  0.07972  1.0000
  C   C19       1.0  0.93511  0.32195  0.57970  1.0000
  C   C20       1.0  0.74130  0.32194  0.92028  1.0000
  C   C21       1.0  0.00593  0.46607  0.35635  1.0000
  C   C22       1.0  0.52921  0.46625  0.14401  1.0000
  C   C23       1.0  0.99408  0.53393  0.64365  1.0000
  C   C24       1.0  0.47079  0.53375  0.85600  1.0000
  C   C25       1.0  0.72920  0.63308  0.41932  1.0000
  C   C26       1.0  0.63955  0.63282  0.08076  1.0000
  C   C27       1.0  0.27081  0.36691  0.58069  1.0000
  C   C28       1.0  0.36044  0.36717  0.91924  1.0000
  C   C29       1.0  0.06886  0.77511  0.33466  1.0000
  C   C30       1.0  0.15752  0.77518  0.16535  1.0000
  C   C31       1.0  0.93114  0.22490  0.66534  1.0000
  C   C32       1.0  0.84247  0.22483  0.83465  1.0000
  C   C33       1.0  0.67422  0.52660  0.38276  1.0000
  C   C34       1.0  0.80072  0.52638  0.11750  1.0000
  C   C35       1.0  0.32579  0.47340  0.61724  1.0000
  C   C36       1.0  0.19927  0.47362  0.88250  1.0000
  N   N1        1.0  0.84795  0.42354  0.34408  1.0000
  N   N2        1.0  0.72967  0.42358  0.15629  1.0000
  N   N3        1.0  0.15206  0.57647  0.65592  1.0000
  N   N4        1.0  0.27033  0.57642  0.84371  1.0000
  N   N5        1.0  0.93940  0.59267  0.40251  1.0000
  N   N6        1.0  0.46950  0.59268  0.09765  1.0000
  N   N7        1.0  0.06060  0.40733  0.59750  1.0000
  N   N8        1.0  0.53049  0.40732  0.90235  1.0000
  O   O1        1.0  0.98965  0.12130  0.13715  1.0000
  O   O2        1.0  0.88932  0.12123  0.36290  1.0000
  O   O3        1.0  0.01033  0.87870  0.86285  1.0000
  O   O4        1.0  0.11070  0.87877  0.63709  1.0000
  O   O5        1.0  0.17912  0.23685  0.19385  1.0000
  O   O6        1.0  0.58421  0.23723  0.30656  1.0000
  O   O7        1.0  0.82086  0.76315  0.80614  1.0000
  O   O8        1.0  0.41581  0.76276  0.69344  1.0000
  O   O9        1.0  0.15553  0.69108  0.25001  1.0000
  O   O10       1.0  0.84447  0.30893  0.75000  1.0000
