data_image0
_chemical_formula_structural       Cu2H36C36N8O10
_chemical_formula_sum              "Cu2 H36 C36 N8 O10"
_cell_length_a       8.25631
_cell_length_b       9.78767
_cell_length_c       11.9693
_cell_angle_alpha    104.583
_cell_angle_beta     97.1809
_cell_angle_gamma    104.544

_space_group_name_H-M_alt    "P 1"
_space_group_IT_number       1

loop_
  _space_group_symop_operation_xyz
  'x, y, z'

loop_
  _atom_site_type_symbol
  _atom_site_label
  _atom_site_symmetry_multiplicity
  _atom_site_fract_x
  _atom_site_fract_y
  _atom_site_fract_z
  _atom_site_occupancy
  Cu  Cu1       1.0  0.00000  0.00000  1.00000  1.0000
  Cu  Cu2       1.0  0.50000  0.50000  0.50001  1.0000
  H   H1        1.0  0.54712  0.57878  0.82160  1.0000
  H   H2        1.0  0.45288  0.42122  0.17839  1.0000
  H   H3        1.0  0.34970  0.33299  0.80082  1.0000
  H   H4        1.0  0.65030  0.66702  0.19917  1.0000
  H   H5        1.0  0.00027  0.89243  0.22526  1.0000
  H   H6        1.0  0.99973  0.10757  0.77474  1.0000
  H   H7        1.0  0.36044  0.92586  0.00540  1.0000
  H   H8        1.0  0.63957  0.07413  0.99460  1.0000
  H   H9        1.0  0.48131  0.82680  0.18794  1.0000
  H   H10       1.0  0.51868  0.17319  0.81206  1.0000
  H   H11       1.0  0.16244  0.83859  0.39426  1.0000
  H   H12       1.0  0.83754  0.16140  0.60574  1.0000
  H   H13       1.0  0.37692  0.83193  0.39316  1.0000
  H   H14       1.0  0.62307  0.16807  0.60684  1.0000
  H   H15       1.0  0.26973  0.58288  0.24682  1.0000
  H   H16       1.0  0.73027  0.41712  0.75318  1.0000
  H   H17       1.0  0.19788  0.58800  0.38166  1.0000
  H   H18       1.0  0.80211  0.41200  0.61834  1.0000
  H   H19       1.0  0.06048  0.41299  0.10980  1.0000
  H   H20       1.0  0.93952  0.58700  0.89020  1.0000
  H   H21       1.0  0.84333  0.41623  0.10537  1.0000
  H   H22       1.0  0.15667  0.58377  0.89463  1.0000
  H   H23       1.0  0.92220  0.20769  0.17267  1.0000
  H   H24       1.0  0.07779  0.79231  0.82733  1.0000
  H   H25       1.0  0.05632  0.34279  0.30014  1.0000
  H   H26       1.0  0.94369  0.65721  0.69987  1.0000
  H   H27       1.0  0.85452  0.53047  0.40724  1.0000
  H   H28       1.0  0.14550  0.46953  0.59278  1.0000
  H   H29       1.0  0.64361  0.08739  0.19483  1.0000
  H   H30       1.0  0.35637  0.91263  0.80516  1.0000
  H   H31       1.0  0.40391  0.17316  0.32037  1.0000
  H   H32       1.0  0.59609  0.82686  0.67963  1.0000
  H   H33       1.0  0.00421  0.84695  0.63618  1.0000
  H   H34       1.0  0.99579  0.15305  0.36381  1.0000
  H   H35       1.0  0.74668  0.93432  0.33934  1.0000
  H   H36       1.0  0.25333  0.06568  0.66065  1.0000
  C   C1        1.0  0.52678  0.54403  0.89971  1.0000
  C   C2        1.0  0.47321  0.45598  0.10029  1.0000
  C   C3        1.0  0.61221  0.63953  0.01164  1.0000
  C   C4        1.0  0.38779  0.36048  0.98836  1.0000
  C   C5        1.0  0.41520  0.40597  0.88832  1.0000
  C   C6        1.0  0.58480  0.59403  0.11168  1.0000
  C   C7        1.0  0.73218  0.78938  0.02631  1.0000
  C   C8        1.0  0.26782  0.21063  0.97369  1.0000
  C   C9        1.0  0.11444  0.89016  0.19025  1.0000
  C   C10       1.0  0.88556  0.10984  0.80975  1.0000
  C   C11       1.0  0.30349  0.90339  0.07802  1.0000
  C   C12       1.0  0.69652  0.09661  0.92198  1.0000
  C   C13       1.0  0.36469  0.85529  0.16842  1.0000
  C   C14       1.0  0.63531  0.14470  0.83158  1.0000
  C   C15       1.0  0.24649  0.79384  0.34111  1.0000
  C   C16       1.0  0.75351  0.20615  0.65889  1.0000
  C   C17       1.0  0.18682  0.62649  0.30266  1.0000
  C   C18       1.0  0.81318  0.37350  0.69735  1.0000
  C   C19       1.0  0.96437  0.43105  0.16361  1.0000
  C   C20       1.0  0.03563  0.56895  0.83639  1.0000
  C   C21       1.0  0.94138  0.31818  0.23244  1.0000
  C   C22       1.0  0.05862  0.68182  0.76757  1.0000
  C   C23       1.0  0.76345  0.42226  0.36861  1.0000
  C   C24       1.0  0.23657  0.57774  0.63140  1.0000
  C   C25       1.0  0.64770  0.19110  0.25629  1.0000
  C   C26       1.0  0.35229  0.80891  0.74371  1.0000
  C   C27       1.0  0.53303  0.23382  0.32068  1.0000
  C   C28       1.0  0.46697  0.76619  0.67932  1.0000
  C   C29       1.0  0.70770  0.74578  0.47086  1.0000
  C   C30       1.0  0.29231  0.25422  0.52914  1.0000
  C   C31       1.0  0.85970  0.87663  0.48652  1.0000
  C   C32       1.0  0.14031  0.12337  0.51347  1.0000
  C   C33       1.0  0.00357  0.91395  0.57636  1.0000
  C   C34       1.0  0.99643  0.08605  0.42364  1.0000
  C   C35       1.0  0.85733  0.96394  0.41004  1.0000
  C   C36       1.0  0.14267  0.03606  0.58995  1.0000
  N   N1        1.0  0.14738  0.92451  0.09290  1.0000
  N   N2        1.0  0.85262  0.07549  0.90710  1.0000
  N   N3        1.0  0.24479  0.84980  0.23917  1.0000
  N   N4        1.0  0.75521  0.15019  0.76083  1.0000
  N   N5        1.0  0.60665  0.37821  0.39068  1.0000
  N   N6        1.0  0.39335  0.62179  0.60933  1.0000
  N   N7        1.0  0.79202  0.31130  0.28735  1.0000
  N   N8        1.0  0.20798  0.68870  0.71265  1.0000
  O   O1        1.0  0.82133  0.79835  0.94576  1.0000
  O   O2        1.0  0.17867  0.20165  0.05424  1.0000
  O   O3        1.0  0.74396  0.89637  0.11493  1.0000
  O   O4        1.0  0.25604  0.10364  0.88507  1.0000
  O   O5        1.0  0.01450  0.57956  0.23867  1.0000
  O   O6        1.0  0.98549  0.42044  0.76133  1.0000
  O   O7        1.0  0.58038  0.71658  0.39068  1.0000
  O   O8        1.0  0.41962  0.28342  0.60932  1.0000
  O   O9        1.0  0.71886  0.66855  0.54396  1.0000
  O   O10       1.0  0.28115  0.33146  0.45605  1.0000
