data_image0
_chemical_formula_structural       Cd4H20C20N8Cl4O12
_chemical_formula_sum              "Cd4 H20 C20 N8 Cl4 O12"
_cell_length_a       6.02408
_cell_length_b       9.99249
_cell_length_c       12.9754
_cell_angle_alpha    89.9995
_cell_angle_beta     90.0002
_cell_angle_gamma    92.7219

_space_group_name_H-M_alt    "P 1"
_space_group_IT_number       1

loop_
  _space_group_symop_operation_xyz
  'x, y, z'

loop_
  _atom_site_type_symbol
  _atom_site_label
  _atom_site_symmetry_multiplicity
  _atom_site_fract_x
  _atom_site_fract_y
  _atom_site_fract_z
  _atom_site_occupancy
  Cd  Cd1       1.0  0.60921  0.68792  0.49681  1.0000
  Cd  Cd2       1.0  0.39079  0.81208  0.99681  1.0000
  Cd  Cd3       1.0  0.39079  0.31208  0.50319  1.0000
  Cd  Cd4       1.0  0.60920  0.18792  0.00319  1.0000
  H   H1        1.0  0.01991  0.15025  0.34899  1.0000
  H   H2        1.0  0.98009  0.34976  0.84898  1.0000
  H   H3        1.0  0.98007  0.84974  0.65101  1.0000
  H   H4        1.0  0.01993  0.65025  0.15102  1.0000
  H   H5        1.0  0.94217  0.91951  0.27271  1.0000
  H   H6        1.0  0.05783  0.58051  0.77271  1.0000
  H   H7        1.0  0.05781  0.08048  0.72729  1.0000
  H   H8        1.0  0.94220  0.41951  0.22730  1.0000
  H   H9        1.0  0.18300  0.73401  0.33413  1.0000
  H   H10       1.0  0.81699  0.76600  0.83413  1.0000
  H   H11       1.0  0.81698  0.26597  0.66586  1.0000
  H   H12       1.0  0.18304  0.23401  0.16586  1.0000
  H   H13       1.0  0.46039  0.56161  0.68204  1.0000
  H   H14       1.0  0.53962  0.93839  0.18204  1.0000
  H   H15       1.0  0.53962  0.43838  0.31796  1.0000
  H   H16       1.0  0.46038  0.06161  0.81796  1.0000
  H   H17       1.0  0.44373  0.71666  0.70992  1.0000
  H   H18       1.0  0.55626  0.78334  0.20992  1.0000
  H   H19       1.0  0.55630  0.28331  0.29007  1.0000
  H   H20       1.0  0.44371  0.21667  0.79007  1.0000
  C   C1        1.0  0.40677  0.98639  0.46325  1.0000
  C   C2        1.0  0.59323  0.51361  0.96325  1.0000
  C   C3        1.0  0.59320  0.01359  0.53675  1.0000
  C   C4        1.0  0.40681  0.48640  0.03674  1.0000
  C   C5        1.0  0.11836  0.06541  0.36925  1.0000
  C   C6        1.0  0.88164  0.43460  0.86924  1.0000
  C   C7        1.0  0.88162  0.93458  0.63076  1.0000
  C   C8        1.0  0.11838  0.56541  0.13076  1.0000
  C   C9        1.0  0.07478  0.93835  0.32835  1.0000
  C   C10       1.0  0.92521  0.56166  0.82835  1.0000
  C   C11       1.0  0.92520  0.06164  0.67165  1.0000
  C   C12       1.0  0.07481  0.43835  0.17166  1.0000
  C   C13       1.0  0.20821  0.83663  0.36136  1.0000
  C   C14       1.0  0.79178  0.66338  0.86136  1.0000
  C   C15       1.0  0.79177  0.16336  0.63864  1.0000
  C   C16       1.0  0.20823  0.33663  0.13864  1.0000
  C   C17       1.0  0.08023  0.56382  0.50206  1.0000
  C   C18       1.0  0.91977  0.93619  0.00205  1.0000
  C   C19       1.0  0.91978  0.43622  0.49795  1.0000
  C   C20       1.0  0.08022  0.06379  0.99795  1.0000
  N   N1        1.0  0.37381  0.86078  0.42878  1.0000
  N   N2        1.0  0.62618  0.63922  0.92879  1.0000
  N   N3        1.0  0.62616  0.13921  0.57121  1.0000
  N   N4        1.0  0.37384  0.36079  0.07121  1.0000
  N   N5        1.0  0.28449  0.08942  0.43691  1.0000
  N   N6        1.0  0.71551  0.41058  0.93690  1.0000
  N   N7        1.0  0.71549  0.91056  0.56309  1.0000
  N   N8        1.0  0.28452  0.58943  0.06310  1.0000
  Cl  Cl1       1.0  0.69432  0.63671  0.30037  1.0000
  Cl  Cl2       1.0  0.30566  0.86328  0.80037  1.0000
  Cl  Cl3       1.0  0.30566  0.36328  0.69962  1.0000
  Cl  Cl4       1.0  0.69434  0.13672  0.19962  1.0000
  O   O1        1.0  0.00083  0.67475  0.52328  1.0000
  O   O2        1.0  0.99918  0.82525  0.02328  1.0000
  O   O3        1.0  0.99918  0.32528  0.47673  1.0000
  O   O4        1.0  0.00082  0.17473  0.97673  1.0000
  O   O5        1.0  0.28354  0.54458  0.48245  1.0000
  O   O6        1.0  0.71646  0.95542  0.98246  1.0000
  O   O7        1.0  0.71646  0.45544  0.51754  1.0000
  O   O8        1.0  0.28354  0.04457  0.01754  1.0000
  O   O9        1.0  0.53259  0.65169  0.67180  1.0000
  O   O10       1.0  0.46741  0.84831  0.17181  1.0000
  O   O11       1.0  0.46743  0.34828  0.32821  1.0000
  O   O12       1.0  0.53258  0.15170  0.82820  1.0000
