data_image0
_chemical_formula_structural       Cd8H24C40N16Cl8O16
_chemical_formula_sum              "Cd8 H24 C40 N16 Cl8 O16"
_cell_length_a       12.8088
_cell_length_b       12.8088
_cell_length_c       12.8088
_cell_angle_alpha    63.2607
_cell_angle_beta     84.2528
_cell_angle_gamma    116.739

_space_group_name_H-M_alt    "P 1"
_space_group_IT_number       1

loop_
  _space_group_symop_operation_xyz
  'x, y, z'

loop_
  _atom_site_type_symbol
  _atom_site_label
  _atom_site_symmetry_multiplicity
  _atom_site_fract_x
  _atom_site_fract_y
  _atom_site_fract_z
  _atom_site_occupancy
  Cd  Cd1       1.0  0.85961  1.00000  0.14038  1.0000
  Cd  Cd2       1.0  0.14039  0.00000  0.85961  1.0000
  Cd  Cd3       1.0  0.35962  0.00000  0.64038  1.0000
  Cd  Cd4       1.0  0.64038  0.00000  0.35962  1.0000
  Cd  Cd5       1.0  0.40607  0.50000  0.90607  1.0000
  Cd  Cd6       1.0  0.59393  0.50000  0.09393  1.0000
  Cd  Cd7       1.0  0.90607  0.31214  0.59393  1.0000
  Cd  Cd8       1.0  0.09393  0.68786  0.40607  1.0000
  H   H1        1.0  0.84887  0.28129  0.95644  1.0000
  H   H2        1.0  0.76227  0.71871  0.43242  1.0000
  H   H3        1.0  0.95644  0.80531  0.76227  1.0000
  H   H4        1.0  0.43242  0.19469  0.84887  1.0000
  H   H5        1.0  0.34887  0.80531  0.93242  1.0000
  H   H6        1.0  0.26227  0.19469  0.45644  1.0000
  H   H7        1.0  0.45644  0.71871  0.34887  1.0000
  H   H8        1.0  0.93242  0.28129  0.26227  1.0000
  H   H9        1.0  0.00532  0.54780  0.82233  1.0000
  H   H10       1.0  0.62987  0.45220  0.54247  1.0000
  H   H11       1.0  0.82233  0.82766  0.62987  1.0000
  H   H12       1.0  0.54247  0.17235  0.00532  1.0000
  H   H13       1.0  0.50532  0.82765  0.04247  1.0000
  H   H14       1.0  0.12987  0.17234  0.32233  1.0000
  H   H15       1.0  0.32233  0.45221  0.50532  1.0000
  H   H16       1.0  0.04247  0.54779  0.12987  1.0000
  H   H17       1.0  0.22969  0.64026  0.81062  1.0000
  H   H18       1.0  0.54912  0.35974  0.41058  1.0000
  H   H19       1.0  0.81062  0.04031  0.54912  1.0000
  H   H20       1.0  0.41058  0.95970  0.22969  1.0000
  H   H21       1.0  0.72969  0.04031  0.91057  1.0000
  H   H22       1.0  0.04912  0.95969  0.31062  1.0000
  H   H23       1.0  0.31062  0.35974  0.72969  1.0000
  H   H24       1.0  0.91058  0.64026  0.04912  1.0000
  C   C1        1.0  0.15215  0.20240  0.03707  1.0000
  C   C2        1.0  0.76054  0.79760  0.05024  1.0000
  C   C3        1.0  0.03707  0.18922  0.76054  1.0000
  C   C4        1.0  0.05024  0.81078  0.15215  1.0000
  C   C5        1.0  0.65215  0.18922  0.55024  1.0000
  C   C6        1.0  0.26054  0.81078  0.53707  1.0000
  C   C7        1.0  0.53707  0.79760  0.65215  1.0000
  C   C8        1.0  0.55024  0.20240  0.26054  1.0000
  C   C9        1.0  0.10777  0.30148  0.98274  1.0000
  C   C10       1.0  0.71579  0.69852  0.19371  1.0000
  C   C11       1.0  0.98274  0.09051  0.71578  1.0000
  C   C12       1.0  0.19371  0.90949  0.10777  1.0000
  C   C13       1.0  0.60777  0.09051  0.69371  1.0000
  C   C14       1.0  0.21579  0.90949  0.48274  1.0000
  C   C15       1.0  0.48274  0.69852  0.60777  1.0000
  C   C16       1.0  0.69371  0.30148  0.21578  1.0000
  C   C17       1.0  0.94874  0.33148  0.94216  1.0000
  C   C18       1.0  0.72636  0.66852  0.38274  1.0000
  C   C19       1.0  0.94216  0.89090  0.72636  1.0000
  C   C20       1.0  0.38274  0.10910  0.94874  1.0000
  C   C21       1.0  0.44874  0.89090  0.88274  1.0000
  C   C22       1.0  0.22636  0.10910  0.44216  1.0000
  C   C23       1.0  0.44216  0.66852  0.44874  1.0000
  C   C24       1.0  0.88274  0.33148  0.22636  1.0000
  C   C25       1.0  0.03401  0.47676  0.87020  1.0000
  C   C26       1.0  0.65304  0.52324  0.44275  1.0000
  C   C27       1.0  0.87020  0.90421  0.65304  1.0000
  C   C28       1.0  0.44275  0.09579  0.03401  1.0000
  C   C29       1.0  0.53401  0.90421  0.94275  1.0000
  C   C30       1.0  0.15304  0.09579  0.37020  1.0000
  C   C31       1.0  0.37020  0.52324  0.53401  1.0000
  C   C32       1.0  0.94275  0.47676  0.15304  1.0000
  C   C33       1.0  0.15781  0.52769  0.86339  1.0000
  C   C34       1.0  0.60892  0.47231  0.36988  1.0000
  C   C35       1.0  0.86339  0.02120  0.60892  1.0000
  C   C36       1.0  0.36988  0.97880  0.15781  1.0000
  C   C37       1.0  0.65781  0.02120  0.86988  1.0000
  C   C38       1.0  0.10892  0.97880  0.36339  1.0000
  C   C39       1.0  0.36339  0.47231  0.65781  1.0000
  C   C40       1.0  0.86988  0.52769  0.10892  1.0000
  N   N1        1.0  0.98574  0.24496  0.99940  1.0000
  N   N2        1.0  0.75565  0.75504  0.25922  1.0000
  N   N3        1.0  0.99940  0.98513  0.75565  1.0000
  N   N4        1.0  0.25922  0.01486  0.98574  1.0000
  N   N5        1.0  0.48574  0.98513  0.75922  1.0000
  N   N6        1.0  0.25565  0.01487  0.49940  1.0000
  N   N7        1.0  0.49940  0.75504  0.48574  1.0000
  N   N8        1.0  0.75922  0.24496  0.25565  1.0000
  N   N9        1.0  0.19412  0.43994  0.91923  1.0000
  N   N10       1.0  0.64083  0.56006  0.24582  1.0000
  N   N11       1.0  0.91923  0.11335  0.64083  1.0000
  N   N12       1.0  0.24582  0.88665  0.19412  1.0000
  N   N13       1.0  0.69412  0.11335  0.74582  1.0000
  N   N14       1.0  0.14083  0.88665  0.41923  1.0000
  N   N15       1.0  0.41923  0.56006  0.69412  1.0000
  N   N16       1.0  0.74582  0.43994  0.14083  1.0000
  Cl  Cl1       1.0  0.65193  1.00000  0.15193  1.0000
  Cl  Cl2       1.0  0.84807  0.00000  0.34807  1.0000
  Cl  Cl3       1.0  0.15193  0.80387  0.84807  1.0000
  Cl  Cl4       1.0  0.34807  0.19614  0.65193  1.0000
  Cl  Cl5       1.0  0.60991  0.50000  0.89009  1.0000
  Cl  Cl6       1.0  0.89009  0.50000  0.60991  1.0000
  Cl  Cl7       1.0  0.10991  0.50000  0.39009  1.0000
  Cl  Cl8       1.0  0.39009  0.50000  0.10991  1.0000
  O   O1        1.0  0.06811  0.07144  0.10745  1.0000
  O   O2        1.0  0.82111  0.92856  0.00333  1.0000
  O   O3        1.0  0.10745  0.17555  0.82111  1.0000
  O   O4        1.0  0.00333  0.82445  0.06811  1.0000
  O   O5        1.0  0.56810  0.17555  0.50333  1.0000
  O   O6        1.0  0.32111  0.82445  0.60745  1.0000
  O   O7        1.0  0.60745  0.92856  0.56811  1.0000
  O   O8        1.0  0.50333  0.07144  0.32111  1.0000
  O   O9        1.0  0.26965  0.25760  0.00731  1.0000
  O   O10       1.0  0.73509  0.74240  0.98795  1.0000
  O   O11       1.0  0.00731  0.27696  0.73509  1.0000
  O   O12       1.0  0.98795  0.72304  0.26965  1.0000
  O   O13       1.0  0.76965  0.27696  0.48795  1.0000
  O   O14       1.0  0.23510  0.72304  0.50731  1.0000
  O   O15       1.0  0.50731  0.74240  0.76965  1.0000
  O   O16       1.0  0.48795  0.25760  0.23509  1.0000
