data_image0
_chemical_formula_structural       Cd2H16C12S2O14
_chemical_formula_sum              "Cd2 H16 C12 S2 O14"
_cell_length_a       7.53078
_cell_length_b       10.5077
_cell_length_c       7.59137
_cell_angle_alpha    89.9992
_cell_angle_beta     90.001
_cell_angle_gamma    108.289

_space_group_name_H-M_alt    "P 1"
_space_group_IT_number       1

loop_
  _space_group_symop_operation_xyz
  'x, y, z'

loop_
  _atom_site_type_symbol
  _atom_site_label
  _atom_site_symmetry_multiplicity
  _atom_site_fract_x
  _atom_site_fract_y
  _atom_site_fract_z
  _atom_site_occupancy
  Cd  Cd1       1.0  0.74990  0.50000  0.23774  1.0000
  Cd  Cd2       1.0  0.24989  0.50000  0.76226  1.0000
  H   H1        1.0  0.37931  0.11735  0.80884  1.0000
  H   H2        1.0  0.12060  0.88269  0.80884  1.0000
  H   H3        1.0  0.62062  0.88267  0.19116  1.0000
  H   H4        1.0  0.87931  0.11734  0.19116  1.0000
  H   H5        1.0  0.50623  0.65424  0.14514  1.0000
  H   H6        1.0  0.99374  0.34585  0.14512  1.0000
  H   H7        1.0  0.49375  0.34585  0.85490  1.0000
  H   H8        1.0  0.00625  0.65425  0.85483  1.0000
  H   H9        1.0  0.62953  0.70293  0.32552  1.0000
  H   H10       1.0  0.87063  0.29729  0.32566  1.0000
  H   H11       1.0  0.37065  0.29730  0.67435  1.0000
  H   H12       1.0  0.12956  0.70294  0.67447  1.0000
  H   H13       1.0  0.64420  0.44776  0.60653  1.0000
  H   H14       1.0  0.85583  0.55217  0.60644  1.0000
  H   H15       1.0  0.35582  0.55215  0.39354  1.0000
  H   H16       1.0  0.14420  0.44774  0.39348  1.0000
  C   C1        1.0  0.31683  0.06435  0.92769  1.0000
  C   C2        1.0  0.18313  0.93566  0.92767  1.0000
  C   C3        1.0  0.68314  0.93566  0.07233  1.0000
  C   C4        1.0  0.81684  0.06434  0.07232  1.0000
  C   C5        1.0  0.36625  0.11322  0.09646  1.0000
  C   C6        1.0  0.13372  0.88676  0.09645  1.0000
  C   C7        1.0  0.63372  0.88677  0.90355  1.0000
  C   C8        1.0  0.86624  0.11322  0.90355  1.0000
  C   C9        1.0  0.49967  0.24162  0.15565  1.0000
  C   C10       1.0  0.00027  0.75834  0.15559  1.0000
  C   C11       1.0  0.50028  0.75836  0.84439  1.0000
  C   C12       1.0  0.99967  0.24164  0.84437  1.0000
  S   S1        1.0  0.25000  0.99997  0.25419  1.0000
  S   S2        1.0  0.74999  0.99999  0.74581  1.0000
  O   O1        1.0  0.56825  0.33597  0.04064  1.0000
  O   O2        1.0  0.93168  0.66403  0.04057  1.0000
  O   O3        1.0  0.43169  0.66403  0.95941  1.0000
  O   O4        1.0  0.06826  0.33598  0.95938  1.0000
  O   O5        1.0  0.54387  0.25701  0.31618  1.0000
  O   O6        1.0  0.95608  0.74293  0.31615  1.0000
  O   O7        1.0  0.45607  0.74296  0.68384  1.0000
  O   O8        1.0  0.04386  0.25702  0.68384  1.0000
  O   O9        1.0  0.54238  0.62608  0.26609  1.0000
  O   O10       1.0  0.95764  0.37409  0.26601  1.0000
  O   O11       1.0  0.45766  0.37410  0.73400  1.0000
  O   O12       1.0  0.04240  0.62610  0.73388  1.0000
  O   O13       1.0  0.75020  0.49965  0.53196  1.0000
  O   O14       1.0  0.25021  0.49961  0.46804  1.0000
