data_image0
_chemical_formula_structural       Zn2H28C28N2O14
_chemical_formula_sum              "Zn2 H28 C28 N2 O14"
_cell_length_a       7.38813
_cell_length_b       8.09772
_cell_length_c       12.1895
_cell_angle_alpha    107.946
_cell_angle_beta     92.9664
_cell_angle_gamma    96.835

_space_group_name_H-M_alt    "P 1"
_space_group_IT_number       1

loop_
  _space_group_symop_operation_xyz
  'x, y, z'

loop_
  _atom_site_type_symbol
  _atom_site_label
  _atom_site_symmetry_multiplicity
  _atom_site_fract_x
  _atom_site_fract_y
  _atom_site_fract_z
  _atom_site_occupancy
  Zn  Zn1       1.0  0.34852  0.27071  0.45318  1.0000
  Zn  Zn2       1.0  0.65148  0.72928  0.54682  1.0000
  H   H1        1.0  0.71664  0.15058  0.16018  1.0000
  H   H2        1.0  0.28336  0.84942  0.83982  1.0000
  H   H3        1.0  0.66185  0.28889  0.06230  1.0000
  H   H4        1.0  0.33816  0.71111  0.93770  1.0000
  H   H5        1.0  0.62493  0.44505  0.92178  1.0000
  H   H6        1.0  0.37507  0.55495  0.07822  1.0000
  H   H7        1.0  0.14055  0.54826  0.40213  1.0000
  H   H8        1.0  0.85945  0.45174  0.59787  1.0000
  H   H9        1.0  0.01218  0.62201  0.23451  1.0000
  H   H10       1.0  0.98782  0.37800  0.76549  1.0000
  H   H11       1.0  0.14601  0.12872  0.01463  1.0000
  H   H12       1.0  0.85398  0.87129  0.98537  1.0000
  H   H13       1.0  0.26787  0.07537  0.19377  1.0000
  H   H14       1.0  0.73213  0.92463  0.80622  1.0000
  H   H15       1.0  0.01401  0.31247  0.92173  1.0000
  H   H16       1.0  0.98598  0.68754  0.07828  1.0000
  H   H17       1.0  0.00258  0.23173  0.46702  1.0000
  H   H18       1.0  0.99742  0.76827  0.53298  1.0000
  H   H19       1.0  0.17689  0.95106  0.36262  1.0000
  H   H20       1.0  0.82310  0.04894  0.63738  1.0000
  H   H21       1.0  0.58941  0.42565  0.35474  1.0000
  H   H22       1.0  0.41058  0.57435  0.64526  1.0000
  H   H23       1.0  0.10003  0.22324  0.58537  1.0000
  H   H24       1.0  0.89997  0.77676  0.41463  1.0000
  H   H25       1.0  0.38710  0.91449  0.38641  1.0000
  H   H26       1.0  0.61290  0.08551  0.61359  1.0000
  H   H27       1.0  0.68479  0.28715  0.40111  1.0000
  H   H28       1.0  0.31521  0.71285  0.59889  1.0000
  C   C1        1.0  0.66867  0.92607  0.21650  1.0000
  C   C2        1.0  0.33133  0.07393  0.78350  1.0000
  C   C3        1.0  0.63846  0.02051  0.14066  1.0000
  C   C4        1.0  0.36154  0.97949  0.85934  1.0000
  C   C5        1.0  0.51510  0.94946  0.04012  1.0000
  C   C6        1.0  0.48490  0.05054  0.95988  1.0000
  C   C7        1.0  0.57423  0.22252  0.98255  1.0000
  C   C8        1.0  0.42578  0.77748  0.01745  1.0000
  C   C9        1.0  0.55036  0.31426  0.90458  1.0000
  C   C10       1.0  0.44964  0.68573  0.09543  1.0000
  C   C11       1.0  0.56704  0.75942  0.19662  1.0000
  C   C12       1.0  0.43296  0.24058  0.80338  1.0000
  C   C13       1.0  0.56918  0.66770  0.28622  1.0000
  C   C14       1.0  0.43081  0.33229  0.71378  1.0000
  C   C15       1.0  0.17862  0.00301  0.68805  1.0000
  C   C16       1.0  0.82138  0.99699  0.31195  1.0000
  C   C17       1.0  0.14107  0.45968  0.31461  1.0000
  C   C18       1.0  0.85893  0.54032  0.68539  1.0000
  C   C19       1.0  0.06987  0.50018  0.22006  1.0000
  C   C20       1.0  0.93013  0.49983  0.77995  1.0000
  C   C21       1.0  0.07381  0.38354  0.10770  1.0000
  C   C22       1.0  0.92618  0.61647  0.89230  1.0000
  C   C23       1.0  0.14145  0.22523  0.09914  1.0000
  C   C24       1.0  0.85854  0.77478  0.90086  1.0000
  C   C25       1.0  0.21063  0.19492  0.19824  1.0000
  C   C26       1.0  0.78936  0.80508  0.80176  1.0000
  C   C27       1.0  0.01869  0.42125  0.00226  1.0000
  C   C28       1.0  0.98130  0.57876  0.99774  1.0000
  N   N1        1.0  0.21387  0.31132  0.30472  1.0000
  N   N2        1.0  0.78613  0.68868  0.69528  1.0000
  O   O1        1.0  0.59362  0.50943  0.25654  1.0000
  O   O2        1.0  0.40637  0.49056  0.74346  1.0000
  O   O3        1.0  0.53907  0.76143  0.38897  1.0000
  O   O4        1.0  0.46093  0.23856  0.61103  1.0000
  O   O5        1.0  0.06493  0.10591  0.67883  1.0000
  O   O6        1.0  0.93507  0.89409  0.32117  1.0000
  O   O7        1.0  0.16499  0.84305  0.62563  1.0000
  O   O8        1.0  0.83501  0.15695  0.37436  1.0000
  O   O9        1.0  0.10850  0.28925  0.52892  1.0000
  O   O10       1.0  0.89150  0.71075  0.47108  1.0000
  O   O11       1.0  0.30868  0.99997  0.37348  1.0000
  O   O12       1.0  0.69131  0.00002  0.62652  1.0000
  O   O13       1.0  0.59494  0.37371  0.42163  1.0000
  O   O14       1.0  0.40506  0.62629  0.57837  1.0000
