data_image0
_chemical_formula_structural       Cd4H40C56N16O12
_chemical_formula_sum              "Cd4 H40 C56 N16 O12"
_cell_length_a       7.28667
_cell_length_b       10.7958
_cell_length_c       16.3626
_cell_angle_alpha    98.3209
_cell_angle_beta     90.0006
_cell_angle_gamma    90.0006

_space_group_name_H-M_alt    "P 1"
_space_group_IT_number       1

loop_
  _space_group_symop_operation_xyz
  'x, y, z'

loop_
  _atom_site_type_symbol
  _atom_site_label
  _atom_site_symmetry_multiplicity
  _atom_site_fract_x
  _atom_site_fract_y
  _atom_site_fract_z
  _atom_site_occupancy
  Cd  Cd1       1.0  0.46703  0.89619  0.88273  1.0000
  Cd  Cd2       1.0  0.96703  0.60380  0.11727  1.0000
  Cd  Cd3       1.0  0.53296  0.10380  0.11727  1.0000
  Cd  Cd4       1.0  0.03296  0.39620  0.88273  1.0000
  H   H1        1.0  0.16241  0.55950  0.66507  1.0000
  H   H2        1.0  0.66240  0.94050  0.33493  1.0000
  H   H3        1.0  0.83761  0.44050  0.33493  1.0000
  H   H4        1.0  0.33759  0.05951  0.66507  1.0000
  H   H5        1.0  0.53913  0.83552  0.60125  1.0000
  H   H6        1.0  0.03912  0.66448  0.39875  1.0000
  H   H7        1.0  0.46088  0.16448  0.39875  1.0000
  H   H8        1.0  0.96087  0.33552  0.60124  1.0000
  H   H9        1.0  0.53748  0.73655  0.45667  1.0000
  H   H10       1.0  0.03748  0.76346  0.54333  1.0000
  H   H11       1.0  0.46252  0.26345  0.54333  1.0000
  H   H12       1.0  0.96252  0.23654  0.45666  1.0000
  H   H13       1.0  0.15239  0.46141  0.52068  1.0000
  H   H14       1.0  0.65239  0.03859  0.47932  1.0000
  H   H15       1.0  0.84762  0.53859  0.47932  1.0000
  H   H16       1.0  0.34761  0.96141  0.52068  1.0000
  H   H17       1.0  0.51616  0.66744  0.34217  1.0000
  H   H18       1.0  0.01617  0.83257  0.65783  1.0000
  H   H19       1.0  0.48384  0.33257  0.65783  1.0000
  H   H20       1.0  0.98386  0.16744  0.34216  1.0000
  H   H21       1.0  0.15376  0.38050  0.40675  1.0000
  H   H22       1.0  0.65376  0.11950  0.59325  1.0000
  H   H23       1.0  0.84625  0.61950  0.59325  1.0000
  H   H24       1.0  0.34624  0.88050  0.40675  1.0000
  H   H25       1.0  0.49088  0.57940  0.19642  1.0000
  H   H26       1.0  0.99089  0.92060  0.80358  1.0000
  H   H27       1.0  0.50910  0.42060  0.80358  1.0000
  H   H28       1.0  0.00912  0.07939  0.19642  1.0000
  H   H29       1.0  0.25388  0.12001  0.93544  1.0000
  H   H30       1.0  0.75388  0.38000  0.06456  1.0000
  H   H31       1.0  0.74611  0.88000  0.06456  1.0000
  H   H32       1.0  0.24611  0.62000  0.93544  1.0000
  H   H33       1.0  0.24800  0.10252  0.83922  1.0000
  H   H34       1.0  0.74799  0.39748  0.16078  1.0000
  H   H35       1.0  0.75200  0.89748  0.16078  1.0000
  H   H36       1.0  0.25201  0.60251  0.83922  1.0000
  H   H37       1.0  0.12685  0.29455  0.26054  1.0000
  H   H38       1.0  0.62684  0.20545  0.73947  1.0000
  H   H39       1.0  0.87314  0.70545  0.73947  1.0000
  H   H40       1.0  0.37314  0.79454  0.26053  1.0000
  C   C1        1.0  0.36027  0.76898  0.72985  1.0000
  C   C2        1.0  0.86026  0.73101  0.27015  1.0000
  C   C3        1.0  0.63974  0.23101  0.27015  1.0000
  C   C4        1.0  0.13974  0.26899  0.72985  1.0000
  C   C5        1.0  0.24090  0.60019  0.61885  1.0000
  C   C6        1.0  0.74089  0.89981  0.38115  1.0000
  C   C7        1.0  0.75912  0.39980  0.38115  1.0000
  C   C8        1.0  0.25911  0.10020  0.61885  1.0000
  C   C9        1.0  0.45224  0.75465  0.58213  1.0000
  C   C10       1.0  0.95223  0.74535  0.41787  1.0000
  C   C11       1.0  0.54777  0.24535  0.41788  1.0000
  C   C12       1.0  0.04777  0.25465  0.58212  1.0000
  C   C13       1.0  0.44955  0.69795  0.50050  1.0000
  C   C14       1.0  0.94954  0.80206  0.49950  1.0000
  C   C15       1.0  0.55046  0.30205  0.49950  1.0000
  C   C16       1.0  0.05045  0.19794  0.50050  1.0000
  C   C17       1.0  0.34742  0.70742  0.64248  1.0000
  C   C18       1.0  0.84740  0.79258  0.35753  1.0000
  C   C19       1.0  0.65260  0.29258  0.35752  1.0000
  C   C20       1.0  0.15259  0.20743  0.64247  1.0000
  C   C21       1.0  0.23663  0.54457  0.53654  1.0000
  C   C22       1.0  0.73663  0.95543  0.46346  1.0000
  C   C23       1.0  0.76338  0.45543  0.46346  1.0000
  C   C24       1.0  0.26337  0.04457  0.53654  1.0000
  C   C25       1.0  0.34005  0.59190  0.47510  1.0000
  C   C26       1.0  0.84004  0.90811  0.52491  1.0000
  C   C27       1.0  0.65996  0.40810  0.52491  1.0000
  C   C28       1.0  0.15996  0.09190  0.47509  1.0000
  C   C29       1.0  0.33307  0.53400  0.38730  1.0000
  C   C30       1.0  0.83307  0.96601  0.61270  1.0000
  C   C31       1.0  0.66694  0.46601  0.61270  1.0000
  C   C32       1.0  0.16694  0.03399  0.38730  1.0000
  C   C33       1.0  0.42846  0.58612  0.32561  1.0000
  C   C34       1.0  0.92846  0.91389  0.67439  1.0000
  C   C35       1.0  0.57153  0.41388  0.67439  1.0000
  C   C36       1.0  0.07154  0.08611  0.32561  1.0000
  C   C37       1.0  0.22753  0.42639  0.36175  1.0000
  C   C38       1.0  0.72753  0.07361  0.63825  1.0000
  C   C39       1.0  0.77247  0.57361  0.63825  1.0000
  C   C40       1.0  0.27247  0.92639  0.36175  1.0000
  C   C41       1.0  0.41472  0.53680  0.24249  1.0000
  C   C42       1.0  0.91472  0.96320  0.75752  1.0000
  C   C43       1.0  0.58527  0.46321  0.75752  1.0000
  C   C44       1.0  0.08528  0.03679  0.24248  1.0000
  C   C45       1.0  0.30526  0.43112  0.21842  1.0000
  C   C46       1.0  0.80526  0.06888  0.78158  1.0000
  C   C47       1.0  0.69473  0.56888  0.78158  1.0000
  C   C48       1.0  0.19474  0.93112  0.21843  1.0000
  C   C49       1.0  0.27511  0.38044  0.13127  1.0000
  C   C50       1.0  0.77511  0.11956  0.86874  1.0000
  C   C51       1.0  0.72489  0.61956  0.86874  1.0000
  C   C52       1.0  0.22489  0.88043  0.13126  1.0000
  C   C53       1.0  0.21323  0.37589  0.27899  1.0000
  C   C54       1.0  0.71323  0.12411  0.72101  1.0000
  C   C55       1.0  0.78677  0.62411  0.72102  1.0000
  C   C56       1.0  0.28677  0.87588  0.27898  1.0000
  N   N1        1.0  0.18080  0.44065  0.07802  1.0000
  N   N2        1.0  0.68080  0.05934  0.92198  1.0000
  N   N3        1.0  0.81919  0.55934  0.92198  1.0000
  N   N4        1.0  0.31918  0.94066  0.07802  1.0000
  N   N5        1.0  0.32278  0.26557  0.09315  1.0000
  N   N6        1.0  0.82279  0.23442  0.90685  1.0000
  N   N7        1.0  0.67722  0.73442  0.90685  1.0000
  N   N8        1.0  0.17721  0.76558  0.09315  1.0000
  N   N9        1.0  0.25680  0.25617  0.01600  1.0000
  N   N10       1.0  0.75681  0.24383  0.98400  1.0000
  N   N11       1.0  0.74319  0.74382  0.98400  1.0000
  N   N12       1.0  0.24319  0.75617  0.01600  1.0000
  N   N13       1.0  0.17194  0.36040  0.00719  1.0000
  N   N14       1.0  0.67195  0.13960  0.99281  1.0000
  N   N15       1.0  0.82805  0.63959  0.99281  1.0000
  N   N16       1.0  0.32804  0.86040  0.00719  1.0000
  O   O1        1.0  0.26805  0.72890  0.78688  1.0000
  O   O2        1.0  0.76803  0.77110  0.21312  1.0000
  O   O3        1.0  0.73197  0.27109  0.21312  1.0000
  O   O4        1.0  0.23195  0.22890  0.78688  1.0000
  O   O5        1.0  0.46872  0.86337  0.74462  1.0000
  O   O6        1.0  0.96870  0.63663  0.25538  1.0000
  O   O7        1.0  0.53129  0.13663  0.25538  1.0000
  O   O8        1.0  0.03130  0.36338  0.74461  1.0000
  O   O9        1.0  0.24746  0.05382  0.88646  1.0000
  O   O10       1.0  0.74745  0.44618  0.11354  1.0000
  O   O11       1.0  0.75254  0.94619  0.11354  1.0000
  O   O12       1.0  0.25254  0.55381  0.88647  1.0000
