data_image0
_chemical_formula_structural       Cu4H48C28S8N16
_chemical_formula_sum              "Cu4 H48 C28 S8 N16"
_cell_length_a       8.32621
_cell_length_b       9.62945
_cell_length_c       13.4861
_cell_angle_alpha    90.0003
_cell_angle_beta     90.0001
_cell_angle_gamma    89.9997

_space_group_name_H-M_alt    "P 1"
_space_group_IT_number       1

loop_
  _space_group_symop_operation_xyz
  'x, y, z'

loop_
  _atom_site_type_symbol
  _atom_site_label
  _atom_site_symmetry_multiplicity
  _atom_site_fract_x
  _atom_site_fract_y
  _atom_site_fract_z
  _atom_site_occupancy
  Cu  Cu1       1.0  0.17362  0.90820  0.98413  1.0000
  Cu  Cu2       1.0  0.32638  0.09180  0.48413  1.0000
  Cu  Cu3       1.0  0.82638  0.40820  0.51587  1.0000
  Cu  Cu4       1.0  0.67363  0.59180  0.01588  1.0000
  H   H1        1.0  0.22980  0.24069  0.83692  1.0000
  H   H2        1.0  0.27020  0.75930  0.33692  1.0000
  H   H3        1.0  0.77020  0.74070  0.66308  1.0000
  H   H4        1.0  0.72980  0.25931  0.16308  1.0000
  H   H5        1.0  0.23926  0.18249  0.96114  1.0000
  H   H6        1.0  0.26075  0.81750  0.46115  1.0000
  H   H7        1.0  0.76074  0.68250  0.53885  1.0000
  H   H8        1.0  0.73926  0.31750  0.03886  1.0000
  H   H9        1.0  0.86458  0.88666  0.97713  1.0000
  H   H10       1.0  0.63542  0.11334  0.47714  1.0000
  H   H11       1.0  0.13541  0.38665  0.52286  1.0000
  H   H12       1.0  0.36459  0.61334  0.02287  1.0000
  H   H13       1.0  0.15242  0.88431  0.74594  1.0000
  H   H14       1.0  0.34758  0.11568  0.24594  1.0000
  H   H15       1.0  0.84758  0.38432  0.75406  1.0000
  H   H16       1.0  0.65241  0.61568  0.25407  1.0000
  H   H17       1.0  0.07216  0.05204  0.72537  1.0000
  H   H18       1.0  0.42785  0.94795  0.22537  1.0000
  H   H19       1.0  0.92785  0.55205  0.77463  1.0000
  H   H20       1.0  0.57215  0.44795  0.27463  1.0000
  H   H21       1.0  0.32032  0.00786  0.83610  1.0000
  H   H22       1.0  0.17968  0.99213  0.33610  1.0000
  H   H23       1.0  0.67967  0.50787  0.66390  1.0000
  H   H24       1.0  0.82032  0.49213  0.16391  1.0000
  H   H25       1.0  0.93081  0.10887  0.04502  1.0000
  H   H26       1.0  0.56919  0.89113  0.54502  1.0000
  H   H27       1.0  0.06918  0.60886  0.45497  1.0000
  H   H28       1.0  0.43082  0.39114  0.95497  1.0000
  H   H29       1.0  0.77393  0.11366  0.95564  1.0000
  H   H30       1.0  0.72607  0.88635  0.45565  1.0000
  H   H31       1.0  0.22607  0.61365  0.54435  1.0000
  H   H32       1.0  0.27393  0.38635  0.04435  1.0000
  H   H33       1.0  0.94098  0.20347  0.82764  1.0000
  H   H34       1.0  0.55903  0.79653  0.32764  1.0000
  H   H35       1.0  0.05903  0.70347  0.67235  1.0000
  H   H36       1.0  0.44098  0.29652  0.17235  1.0000
  H   H37       1.0  0.98266  0.30420  0.93320  1.0000
  H   H38       1.0  0.51736  0.69580  0.43320  1.0000
  H   H39       1.0  0.01735  0.80419  0.56679  1.0000
  H   H40       1.0  0.48266  0.19580  0.06679  1.0000
  H   H41       1.0  0.82890  0.97829  0.79782  1.0000
  H   H42       1.0  0.67110  0.02171  0.29783  1.0000
  H   H43       1.0  0.17110  0.47829  0.70217  1.0000
  H   H44       1.0  0.32890  0.52171  0.20218  1.0000
  H   H45       1.0  0.91578  0.81317  0.82039  1.0000
  H   H46       1.0  0.58421  0.18683  0.32039  1.0000
  H   H47       1.0  0.08421  0.31317  0.67961  1.0000
  H   H48       1.0  0.41578  0.68683  0.17961  1.0000
  C   C1        1.0  0.17517  0.16842  0.89059  1.0000
  C   C2        1.0  0.32484  0.83157  0.39060  1.0000
  C   C3        1.0  0.82483  0.66843  0.60940  1.0000
  C   C4        1.0  0.67517  0.33157  0.10941  1.0000
  C   C5        1.0  0.09224  0.97194  0.78197  1.0000
  C   C6        1.0  0.40776  0.02806  0.28197  1.0000
  C   C7        1.0  0.90776  0.47194  0.71803  1.0000
  C   C8        1.0  0.59224  0.52806  0.21803  1.0000
  C   C9        1.0  0.90399  0.09612  0.96571  1.0000
  C   C10       1.0  0.59602  0.90388  0.46571  1.0000
  C   C11       1.0  0.09601  0.59611  0.53429  1.0000
  C   C12       1.0  0.40399  0.40388  0.03429  1.0000
  C   C13       1.0  0.99650  0.19964  0.90161  1.0000
  C   C14       1.0  0.50350  0.80036  0.40161  1.0000
  C   C15       1.0  0.00350  0.69964  0.59838  1.0000
  C   C16       1.0  0.49651  0.30036  0.09838  1.0000
  C   C17       1.0  0.93333  0.92498  0.83057  1.0000
  C   C18       1.0  0.56667  0.07502  0.33058  1.0000
  C   C19       1.0  0.06666  0.42498  0.66942  1.0000
  C   C20       1.0  0.43333  0.57502  0.16943  1.0000
  C   C21       1.0  0.02353  0.60401  0.94583  1.0000
  C   C22       1.0  0.47646  0.39599  0.44583  1.0000
  C   C23       1.0  0.97647  0.10402  0.55417  1.0000
  C   C24       1.0  0.52352  0.89599  0.05417  1.0000
  C   C25       1.0  0.06019  0.76152  0.17411  1.0000
  C   C26       1.0  0.43978  0.23850  0.67411  1.0000
  C   C27       1.0  0.93978  0.26150  0.32589  1.0000
  C   C28       1.0  0.56023  0.73850  0.82590  1.0000
  S   S1        1.0  0.18736  0.65461  0.89135  1.0000
  S   S2        1.0  0.31264  0.34539  0.39135  1.0000
  S   S3        1.0  0.81264  0.15461  0.60865  1.0000
  S   S4        1.0  0.68735  0.84539  0.10865  1.0000
  S   S5        1.0  0.99209  0.66001  0.26004  1.0000
  S   S6        1.0  0.50786  0.34005  0.76003  1.0000
  S   S7        1.0  0.00786  0.15995  0.23998  1.0000
  S   S8        1.0  0.49214  0.84004  0.73998  1.0000
  N   N1        1.0  0.90269  0.56594  0.98373  1.0000
  N   N2        1.0  0.59731  0.43406  0.48372  1.0000
  N   N3        1.0  0.09732  0.06594  0.51628  1.0000
  N   N4        1.0  0.40268  0.93407  0.01628  1.0000
  N   N5        1.0  0.11273  0.83721  0.11255  1.0000
  N   N6        1.0  0.38727  0.16280  0.61255  1.0000
  N   N7        1.0  0.88726  0.33721  0.38745  1.0000
  N   N8        1.0  0.61274  0.66280  0.88746  1.0000
  N   N9        1.0  0.94156  0.95071  0.93848  1.0000
  N   N10       1.0  0.55844  0.04929  0.43849  1.0000
  N   N11       1.0  0.05843  0.45071  0.56151  1.0000
  N   N12       1.0  0.44157  0.54929  0.06152  1.0000
  N   N13       1.0  0.20354  0.02304  0.85877  1.0000
  N   N14       1.0  0.29647  0.97695  0.35877  1.0000
  N   N15       1.0  0.79646  0.52304  0.64123  1.0000
  N   N16       1.0  0.70354  0.47696  0.14123  1.0000
