data_image0
_chemical_formula_structural       Cu2H12C14N8O10
_chemical_formula_sum              "Cu2 H12 C14 N8 O10"
_cell_length_a       6.51339
_cell_length_b       6.96185
_cell_length_c       11.6726
_cell_angle_alpha    78.5408
_cell_angle_beta     75.4326
_cell_angle_gamma    79.3213

_space_group_name_H-M_alt    "P 1"
_space_group_IT_number       1

loop_
  _space_group_symop_operation_xyz
  'x, y, z'

loop_
  _atom_site_type_symbol
  _atom_site_label
  _atom_site_symmetry_multiplicity
  _atom_site_fract_x
  _atom_site_fract_y
  _atom_site_fract_z
  _atom_site_occupancy
  Cu  Cu1       1.0  0.00001  0.00001  1.00000  1.0000
  Cu  Cu2       1.0  0.50001  1.00000  1.00000  1.0000
  H   H1        1.0  0.47231  0.73895  0.34740  1.0000
  H   H2        1.0  0.52770  0.26104  0.65260  1.0000
  H   H3        1.0  0.40959  0.61183  0.56977  1.0000
  H   H4        1.0  0.59041  0.38816  0.43024  1.0000
  H   H5        1.0  0.72891  0.75281  0.59997  1.0000
  H   H6        1.0  0.27108  0.24719  0.40002  1.0000
  H   H7        1.0  0.79174  0.87864  0.37761  1.0000
  H   H8        1.0  0.20828  0.12136  0.62237  1.0000
  H   H9        1.0  0.80805  0.62958  0.08494  1.0000
  H   H10       1.0  0.19194  0.37041  0.91506  1.0000
  H   H11       1.0  0.82264  0.63665  0.94635  1.0000
  H   H12       1.0  0.17735  0.36334  0.05365  1.0000
  C   C1        1.0  0.17688  0.87971  0.21665  1.0000
  C   C2        1.0  0.82313  0.12029  0.78334  1.0000
  C   C3        1.0  0.13554  0.80977  0.34990  1.0000
  C   C4        1.0  0.86448  0.19022  0.65010  1.0000
  C   C5        1.0  0.31110  0.73882  0.40342  1.0000
  C   C6        1.0  0.68890  0.26116  0.59659  1.0000
  C   C7        1.0  0.27781  0.66741  0.52531  1.0000
  C   C8        1.0  0.72219  0.33259  0.47469  1.0000
  C   C9        1.0  0.06760  0.66950  0.59264  1.0000
  C   C10       1.0  0.93239  0.33050  0.40736  1.0000
  C   C11       1.0  0.88987  0.74770  0.54298  1.0000
  C   C12       1.0  0.11013  0.25230  0.45701  1.0000
  C   C13       1.0  0.92569  0.81683  0.42017  1.0000
  C   C14       1.0  0.07432  0.18317  0.57983  1.0000
  N   N1        1.0  0.30446  0.86237  0.94029  1.0000
  N   N2        1.0  0.69554  0.13763  0.05971  1.0000
  N   N3        1.0  0.35688  0.84907  0.83431  1.0000
  N   N4        1.0  0.64313  0.15094  0.16568  1.0000
  N   N5        1.0  0.40725  0.83454  0.73349  1.0000
  N   N6        1.0  0.59274  0.16549  0.26652  1.0000
  N   N7        1.0  0.03520  0.58495  0.71941  1.0000
  N   N8        1.0  0.96479  0.41506  0.28059  1.0000
  O   O1        1.0  0.36918  0.90377  0.16613  1.0000
  O   O2        1.0  0.63083  0.09622  0.83387  1.0000
  O   O3        1.0  0.01644  0.90836  0.16879  1.0000
  O   O4        1.0  0.98357  0.09165  0.83120  1.0000
  O   O5        1.0  0.19397  0.49109  0.75689  1.0000
  O   O6        1.0  0.80601  0.50891  0.24312  1.0000
  O   O7        1.0  0.85109  0.60942  0.78365  1.0000
  O   O8        1.0  0.14889  0.39059  0.21635  1.0000
  O   O9        1.0  0.80533  0.71842  0.00845  1.0000
  O   O10       1.0  0.19468  0.28156  0.99155  1.0000
