data_image0
_chemical_formula_structural       Zn2H28C42N8O12
_chemical_formula_sum              "Zn2 H28 C42 N8 O12"
_cell_length_a       8.92432
_cell_length_b       9.26672
_cell_length_c       12.0565
_cell_angle_alpha    110.039
_cell_angle_beta     89.9497
_cell_angle_gamma    98.3644

_space_group_name_H-M_alt    "P 1"
_space_group_IT_number       1

loop_
  _space_group_symop_operation_xyz
  'x, y, z'

loop_
  _atom_site_type_symbol
  _atom_site_label
  _atom_site_symmetry_multiplicity
  _atom_site_fract_x
  _atom_site_fract_y
  _atom_site_fract_z
  _atom_site_occupancy
  Zn  Zn1       1.0  0.25604  0.06348  0.98490  1.0000
  Zn  Zn2       1.0  0.74396  0.93652  0.01510  1.0000
  H   H1        1.0  0.36366  0.11834  0.55252  1.0000
  H   H2        1.0  0.63635  0.88166  0.44748  1.0000
  H   H3        1.0  0.73091  0.47680  0.74426  1.0000
  H   H4        1.0  0.26909  0.52320  0.25574  1.0000
  H   H5        1.0  0.78359  0.54040  0.56405  1.0000
  H   H6        1.0  0.21640  0.45961  0.43596  1.0000
  H   H7        1.0  0.63220  0.39637  0.37871  1.0000
  H   H8        1.0  0.36780  0.60364  0.62129  1.0000
  H   H9        1.0  0.11964  0.92439  0.16904  1.0000
  H   H10       1.0  0.88037  0.07561  0.83096  1.0000
  H   H11       1.0  0.48533  0.28546  0.21548  1.0000
  H   H12       1.0  0.51467  0.71454  0.78452  1.0000
  H   H13       1.0  0.56700  0.31041  0.04585  1.0000
  H   H14       1.0  0.43300  0.68959  0.95415  1.0000
  H   H15       1.0  0.32845  0.04446  0.72185  1.0000
  H   H16       1.0  0.67155  0.95554  0.27815  1.0000
  H   H17       1.0  0.16721  0.60746  0.97041  1.0000
  H   H18       1.0  0.83279  0.39254  0.02959  1.0000
  H   H19       1.0  0.03659  0.14173  0.72641  1.0000
  H   H20       1.0  0.96342  0.85827  0.27360  1.0000
  H   H21       1.0  0.04454  0.53067  0.60805  1.0000
  H   H22       1.0  0.95546  0.46933  0.39195  1.0000
  H   H23       1.0  0.93912  0.22278  0.37207  1.0000
  H   H24       1.0  0.06088  0.77722  0.62793  1.0000
  H   H25       1.0  0.22930  0.99832  0.38013  1.0000
  H   H26       1.0  0.77070  0.00168  0.61987  1.0000
  H   H27       1.0  0.66758  0.43400  0.90012  1.0000
  H   H28       1.0  0.33242  0.56600  0.09988  1.0000
  C   C1        1.0  0.48672  0.24660  0.45210  1.0000
  C   C2        1.0  0.51328  0.75341  0.54790  1.0000
  C   C3        1.0  0.45659  0.20980  0.55423  1.0000
  C   C4        1.0  0.54341  0.79020  0.44577  1.0000
  C   C5        1.0  0.54429  0.29106  0.66033  1.0000
  C   C6        1.0  0.45571  0.70895  0.33967  1.0000
  C   C7        1.0  0.66236  0.41070  0.66313  1.0000
  C   C8        1.0  0.33764  0.58930  0.33687  1.0000
  C   C9        1.0  0.69299  0.44659  0.56133  1.0000
  C   C10       1.0  0.30701  0.55341  0.43867  1.0000
  C   C11       1.0  0.60727  0.36535  0.45681  1.0000
  C   C12       1.0  0.39273  0.63465  0.54319  1.0000
  C   C13       1.0  0.21748  0.01144  0.20963  1.0000
  C   C14       1.0  0.78252  0.98856  0.79037  1.0000
  C   C15       1.0  0.40670  0.19916  0.23638  1.0000
  C   C16       1.0  0.59330  0.80084  0.76362  1.0000
  C   C17       1.0  0.39552  0.17039  0.34173  1.0000
  C   C18       1.0  0.60448  0.82962  0.65827  1.0000
  C   C19       1.0  0.52901  0.26854  0.95360  1.0000
  C   C20       1.0  0.47099  0.73146  0.04640  1.0000
  C   C21       1.0  0.40962  0.13472  0.78357  1.0000
  C   C22       1.0  0.59038  0.86528  0.21643  1.0000
  C   C23       1.0  0.51162  0.25156  0.76583  1.0000
  C   C24       1.0  0.48837  0.74844  0.23417  1.0000
  C   C25       1.0  0.11215  0.58840  0.79192  1.0000
  C   C26       1.0  0.88785  0.41160  0.20808  1.0000
  C   C27       1.0  0.13098  0.52793  0.88181  1.0000
  C   C28       1.0  0.86902  0.47207  0.11819  1.0000
  C   C29       1.0  0.10460  0.36816  0.85938  1.0000
  C   C30       1.0  0.89539  0.63184  0.14062  1.0000
  C   C31       1.0  0.05220  0.26688  0.74599  1.0000
  C   C32       1.0  0.94780  0.73312  0.25401  1.0000
  C   C33       1.0  0.02672  0.32586  0.65663  1.0000
  C   C34       1.0  0.97328  0.67414  0.34337  1.0000
  C   C35       1.0  0.06067  0.48628  0.67902  1.0000
  C   C36       1.0  0.93933  0.51372  0.32098  1.0000
  C   C37       1.0  0.15156  0.76109  0.82038  1.0000
  C   C38       1.0  0.84844  0.23891  0.17962  1.0000
  C   C39       1.0  0.14152  0.30657  0.95457  1.0000
  C   C40       1.0  0.85848  0.69343  0.04543  1.0000
  C   C41       1.0  0.95828  0.21987  0.53844  1.0000
  C   C42       1.0  0.04172  0.78013  0.46156  1.0000
  N   N1        1.0  0.27394  0.05102  0.32166  1.0000
  N   N2        1.0  0.72606  0.94898  0.67834  1.0000
  N   N3        1.0  0.29612  0.09985  0.15554  1.0000
  N   N4        1.0  0.70388  0.90015  0.84446  1.0000
  N   N5        1.0  0.58578  0.33392  0.87562  1.0000
  N   N6        1.0  0.41422  0.66608  0.12438  1.0000
  N   N7        1.0  0.42227  0.14678  0.90085  1.0000
  N   N8        1.0  0.57773  0.85322  0.09915  1.0000
  O   O1        1.0  0.13676  0.82631  0.74545  1.0000
  O   O2        1.0  0.86324  0.17369  0.25455  1.0000
  O   O3        1.0  0.20575  0.83591  0.92666  1.0000
  O   O4        1.0  0.79426  0.16409  0.07334  1.0000
  O   O5        1.0  0.21818  0.39449  0.04688  1.0000
  O   O6        1.0  0.78182  0.60551  0.95312  1.0000
  O   O7        1.0  0.09658  0.16020  0.93224  1.0000
  O   O8        1.0  0.90342  0.83980  0.06776  1.0000
  O   O9        1.0  0.00193  0.27321  0.45294  1.0000
  O   O10       1.0  0.99807  0.72679  0.54706  1.0000
  O   O11       1.0  0.86901  0.09836  0.52391  1.0000
  O   O12       1.0  0.13099  0.90163  0.47609  1.0000
