data_image0
_chemical_formula_structural       Ba2H10C14N2O10
_chemical_formula_sum              "Ba2 H10 C14 N2 O10"
_cell_length_a       6.74422
_cell_length_b       7.1056
_cell_length_c       10.268
_cell_angle_alpha    79.3517
_cell_angle_beta     86.4279
_cell_angle_gamma    60.839

_space_group_name_H-M_alt    "P 1"
_space_group_IT_number       1

loop_
  _space_group_symop_operation_xyz
  'x, y, z'

loop_
  _atom_site_type_symbol
  _atom_site_label
  _atom_site_symmetry_multiplicity
  _atom_site_fract_x
  _atom_site_fract_y
  _atom_site_fract_z
  _atom_site_occupancy
  Ba  Ba1       1.0  0.32285  0.37077  0.38457  1.0000
  Ba  Ba2       1.0  0.67715  0.62923  0.61543  1.0000
  H   H1        1.0  0.57763  0.10293  0.05189  1.0000
  H   H2        1.0  0.42238  0.89707  0.94812  1.0000
  H   H3        1.0  0.72394  0.03919  0.82363  1.0000
  H   H4        1.0  0.27607  0.96082  0.17638  1.0000
  H   H5        1.0  0.32602  0.47595  0.01206  1.0000
  H   H6        1.0  0.67397  0.52405  0.98794  1.0000
  H   H7        1.0  0.20127  0.90812  0.40127  1.0000
  H   H8        1.0  0.79873  0.09186  0.59874  1.0000
  H   H9        1.0  0.16437  0.77762  0.53351  1.0000
  H   H10       1.0  0.83567  0.22237  0.46646  1.0000
  C   C1        1.0  0.86428  0.81159  0.14848  1.0000
  C   C2        1.0  0.13572  0.18841  0.85151  1.0000
  C   C3        1.0  0.73979  0.96310  0.03759  1.0000
  C   C4        1.0  0.26021  0.03691  0.96241  1.0000
  C   C5        1.0  0.82319  0.92883  0.91189  1.0000
  C   C6        1.0  0.17682  0.07118  0.08812  1.0000
  C   C7        1.0  0.03576  0.74883  0.90064  1.0000
  C   C8        1.0  0.96423  0.25118  0.09936  1.0000
  C   C9        1.0  0.15609  0.61332  0.01777  1.0000
  C   C10       1.0  0.84391  0.38668  0.98222  1.0000
  C   C11       1.0  0.76523  0.83368  0.28517  1.0000
  C   C12       1.0  0.23478  0.16631  0.71483  1.0000
  C   C13       1.0  0.13646  0.70235  0.76757  1.0000
  C   C14       1.0  0.86353  0.29765  0.23242  1.0000
  N   N1        1.0  0.07216  0.64000  0.13868  1.0000
  N   N2        1.0  0.92784  0.35999  0.86131  1.0000
  O   O1        1.0  0.88072  0.68441  0.38184  1.0000
  O   O2        1.0  0.11928  0.31558  0.61816  1.0000
  O   O3        1.0  0.57238  0.99706  0.29441  1.0000
  O   O4        1.0  0.42762  0.00294  0.70559  1.0000
  O   O5        1.0  0.34665  0.57373  0.76421  1.0000
  O   O6        1.0  0.65335  0.42627  0.23579  1.0000
  O   O7        1.0  0.99922  0.79919  0.66552  1.0000
  O   O8        1.0  0.00078  0.20080  0.33448  1.0000
  O   O9        1.0  0.27573  0.76430  0.46071  1.0000
  O   O10       1.0  0.72422  0.23573  0.53931  1.0000
