data_image0
_chemical_formula_structural       Zn2Fe2H44C60N4O10
_chemical_formula_sum              "Zn2 Fe2 H44 C60 N4 O10"
_cell_length_a       9.58273
_cell_length_b       10.1754
_cell_length_c       14.0486
_cell_angle_alpha    92.561
_cell_angle_beta     104.141
_cell_angle_gamma    93.692

_space_group_name_H-M_alt    "P 1"
_space_group_IT_number       1

loop_
  _space_group_symop_operation_xyz
  'x, y, z'

loop_
  _atom_site_type_symbol
  _atom_site_label
  _atom_site_symmetry_multiplicity
  _atom_site_fract_x
  _atom_site_fract_y
  _atom_site_fract_z
  _atom_site_occupancy
  Zn  Zn1       1.0  0.51393  0.80115  0.32213  1.0000
  Zn  Zn2       1.0  0.48607  0.19885  0.67787  1.0000
  Fe  Fe1       1.0  0.80223  0.25742  0.11546  1.0000
  Fe  Fe2       1.0  0.19778  0.74259  0.88454  1.0000
  H   H1        1.0  0.92226  0.31930  0.31654  1.0000
  H   H2        1.0  0.07776  0.68071  0.68346  1.0000
  H   H3        1.0  0.77659  0.50246  0.20912  1.0000
  H   H4        1.0  0.22342  0.49755  0.79087  1.0000
  H   H5        1.0  0.54078  0.38017  0.08347  1.0000
  H   H6        1.0  0.45922  0.61983  0.91653  1.0000
  H   H7        1.0  0.53856  0.11668  0.11456  1.0000
  H   H8        1.0  0.46144  0.88333  0.88545  1.0000
  H   H9        1.0  0.77304  0.07973  0.25902  1.0000
  H   H10       1.0  0.22697  0.92028  0.74098  1.0000
  H   H11       1.0  0.94860  0.03277  0.08792  1.0000
  H   H12       1.0  0.05139  0.96723  0.91208  1.0000
  H   H13       1.0  0.72278  0.08646  0.94117  1.0000
  H   H14       1.0  0.27721  0.91355  0.05883  1.0000
  H   H15       1.0  0.73475  0.34990  0.92255  1.0000
  H   H16       1.0  0.26525  0.65010  0.07745  1.0000
  H   H17       1.0  0.96718  0.46093  0.06049  1.0000
  H   H18       1.0  0.03282  0.53907  0.93950  1.0000
  H   H19       1.0  0.16693  0.48225  0.17978  1.0000
  H   H20       1.0  0.83306  0.51775  0.82022  1.0000
  H   H21       1.0  0.52663  0.31028  0.36043  1.0000
  H   H22       1.0  0.47336  0.68972  0.63957  1.0000
  H   H23       1.0  0.17302  0.05727  0.18348  1.0000
  H   H24       1.0  0.82697  0.94273  0.81652  1.0000
  H   H25       1.0  0.48479  0.77648  0.08093  1.0000
  H   H26       1.0  0.51521  0.22353  0.91907  1.0000
  H   H27       1.0  0.65833  0.75769  0.97290  1.0000
  H   H28       1.0  0.34167  0.24231  0.02710  1.0000
  H   H29       1.0  0.92146  0.75835  0.05131  1.0000
  H   H30       1.0  0.07855  0.24166  0.94869  1.0000
  H   H31       1.0  0.12338  0.77270  0.20791  1.0000
  H   H32       1.0  0.87663  0.22730  0.79209  1.0000
  H   H33       1.0  0.19875  0.79788  0.38881  1.0000
  H   H34       1.0  0.80125  0.20212  0.61119  1.0000
  H   H35       1.0  0.13246  0.83526  0.55049  1.0000
  H   H36       1.0  0.86754  0.16474  0.44951  1.0000
  H   H37       1.0  0.93629  0.86566  0.63975  1.0000
  H   H38       1.0  0.06371  0.13434  0.36025  1.0000
  H   H39       1.0  0.68052  0.85791  0.54227  1.0000
  H   H40       1.0  0.31947  0.14208  0.45773  1.0000
  H   H41       1.0  0.44732  0.83278  0.51259  1.0000
  H   H42       1.0  0.55268  0.16721  0.48740  1.0000
  H   H43       1.0  0.45757  0.68697  0.46385  1.0000
  H   H44       1.0  0.54243  0.31303  0.53614  1.0000
  C   C1        1.0  0.82054  0.30022  0.26156  1.0000
  C   C2        1.0  0.17947  0.69979  0.73843  1.0000
  C   C3        1.0  0.74411  0.39760  0.20411  1.0000
  C   C4        1.0  0.25589  0.60241  0.79589  1.0000
  C   C5        1.0  0.61931  0.33214  0.13722  1.0000
  C   C6        1.0  0.38070  0.66786  0.86278  1.0000
  C   C7        1.0  0.61845  0.19384  0.15333  1.0000
  C   C8        1.0  0.38156  0.80618  0.84667  1.0000
  C   C9        1.0  0.74303  0.17412  0.23044  1.0000
  C   C10       1.0  0.25698  0.82589  0.76956  1.0000
  C   C11       1.0  0.92476  0.13005  0.06280  1.0000
  C   C12       1.0  0.07524  0.86995  0.93720  1.0000
  C   C13       1.0  0.80437  0.15824  0.98551  1.0000
  C   C14       1.0  0.19562  0.84176  0.01449  1.0000
  C   C15       1.0  0.81052  0.29810  0.97581  1.0000
  C   C16       1.0  0.18948  0.70190  0.02419  1.0000
  C   C17       1.0  0.93483  0.35630  0.04764  1.0000
  C   C18       1.0  0.06517  0.64370  0.95236  1.0000
  C   C19       1.0  0.00870  0.25237  0.10112  1.0000
  C   C20       1.0  0.99130  0.74763  0.89887  1.0000
  C   C21       1.0  0.14798  0.26766  0.17439  1.0000
  C   C22       1.0  0.85202  0.73234  0.82561  1.0000
  C   C23       1.0  0.21738  0.39360  0.20657  1.0000
  C   C24       1.0  0.78262  0.60640  0.79343  1.0000
  C   C25       1.0  0.35254  0.40827  0.27348  1.0000
  C   C26       1.0  0.64746  0.59173  0.72652  1.0000
  C   C27       1.0  0.42027  0.29698  0.30968  1.0000
  C   C28       1.0  0.57972  0.70301  0.69032  1.0000
  C   C29       1.0  0.22015  0.15671  0.20915  1.0000
  C   C30       1.0  0.77984  0.84329  0.79085  1.0000
  C   C31       1.0  0.35524  0.17114  0.27676  1.0000
  C   C32       1.0  0.64475  0.82886  0.72324  1.0000
  C   C33       1.0  0.43307  0.05331  0.31304  1.0000
  C   C34       1.0  0.56693  0.94668  0.68696  1.0000
  C   C35       1.0  0.60082  0.77816  0.11277  1.0000
  C   C36       1.0  0.39918  0.22185  0.88723  1.0000
  C   C37       1.0  0.69788  0.76688  0.05259  1.0000
  C   C38       1.0  0.30212  0.23312  0.94740  1.0000
  C   C39       1.0  0.84398  0.76765  0.09596  1.0000
  C   C40       1.0  0.15602  0.23235  0.90404  1.0000
  C   C41       1.0  0.89363  0.78086  0.19937  1.0000
  C   C42       1.0  0.10638  0.21914  0.80062  1.0000
  C   C43       1.0  0.78747  0.79294  0.25366  1.0000
  C   C44       1.0  0.21252  0.20705  0.74635  1.0000
  C   C45       1.0  0.04283  0.78300  0.25027  1.0000
  C   C46       1.0  0.95717  0.21700  0.74973  1.0000
  C   C47       1.0  0.08479  0.79780  0.35067  1.0000
  C   C48       1.0  0.91521  0.20220  0.64933  1.0000
  C   C49       1.0  0.98068  0.81245  0.40750  1.0000
  C   C50       1.0  0.01931  0.18754  0.59250  1.0000
  C   C51       1.0  0.83178  0.80961  0.35929  1.0000
  C   C52       1.0  0.16823  0.19038  0.64071  1.0000
  C   C53       1.0  0.01889  0.83200  0.51111  1.0000
  C   C54       1.0  0.98111  0.16799  0.48890  1.0000
  C   C55       1.0  0.91181  0.84871  0.56008  1.0000
  C   C56       1.0  0.08819  0.15128  0.43992  1.0000
  C   C57       1.0  0.76712  0.84434  0.50605  1.0000
  C   C58       1.0  0.23288  0.15565  0.49395  1.0000
  C   C59       1.0  0.42932  0.54127  0.30804  1.0000
  C   C60       1.0  0.57067  0.45873  0.69197  1.0000
  N   N1        1.0  0.64458  0.79098  0.21040  1.0000
  N   N2        1.0  0.35542  0.20901  0.78960  1.0000
  N   N3        1.0  0.72804  0.82415  0.40866  1.0000
  N   N4        1.0  0.27196  0.17584  0.59134  1.0000
  O   O1        1.0  0.52998  0.06330  0.39290  1.0000
  O   O2        1.0  0.47002  0.93669  0.60709  1.0000
  O   O3        1.0  0.39668  0.94486  0.25931  1.0000
  O   O4        1.0  0.60332  0.05514  0.74069  1.0000
  O   O5        1.0  0.38689  0.63900  0.25519  1.0000
  O   O6        1.0  0.61311  0.36099  0.74481  1.0000
  O   O7        1.0  0.52949  0.55170  0.38553  1.0000
  O   O8        1.0  0.47049  0.44830  0.61449  1.0000
  O   O9        1.0  0.42457  0.77512  0.44960  1.0000
  O   O10       1.0  0.57542  0.22488  0.55040  1.0000
