data_image0
_chemical_formula_structural       Zn2H40C56N4O20
_chemical_formula_sum              "Zn2 H40 C56 N4 O20"
_cell_length_a       8.05947
_cell_length_b       12.1173
_cell_length_c       13.4701
_cell_angle_alpha    116.667
_cell_angle_beta     96.3389
_cell_angle_gamma    89.8716

_space_group_name_H-M_alt    "P 1"
_space_group_IT_number       1

loop_
  _space_group_symop_operation_xyz
  'x, y, z'

loop_
  _atom_site_type_symbol
  _atom_site_label
  _atom_site_symmetry_multiplicity
  _atom_site_fract_x
  _atom_site_fract_y
  _atom_site_fract_z
  _atom_site_occupancy
  Zn  Zn1       1.0  0.00010  0.99998  0.99998  1.0000
  Zn  Zn2       1.0  0.50007  0.00002  0.00002  1.0000
  H   H1        1.0  0.89496  0.65989  0.01219  1.0000
  H   H2        1.0  0.60473  0.64819  0.98769  1.0000
  H   H3        1.0  0.10504  0.34010  0.98780  1.0000
  H   H4        1.0  0.39526  0.35182  0.01232  1.0000
  H   H5        1.0  0.77619  0.27109  0.80760  1.0000
  H   H6        1.0  0.72326  0.46321  0.19234  1.0000
  H   H7        1.0  0.22380  0.72890  0.19240  1.0000
  H   H8        1.0  0.27666  0.53674  0.80762  1.0000
  H   H9        1.0  0.87459  0.29051  0.64543  1.0000
  H   H10       1.0  0.62529  0.64493  0.35460  1.0000
  H   H11       1.0  0.12531  0.70947  0.35454  1.0000
  H   H12       1.0  0.37464  0.35502  0.64538  1.0000
  H   H13       1.0  0.84612  0.85771  0.10366  1.0000
  H   H14       1.0  0.65492  0.75397  0.89596  1.0000
  H   H15       1.0  0.15396  0.14233  0.89630  1.0000
  H   H16       1.0  0.34520  0.24603  0.10405  1.0000
  H   H17       1.0  0.88519  0.84227  0.28294  1.0000
  H   H18       1.0  0.61596  0.55953  0.71696  1.0000
  H   H19       1.0  0.11479  0.15776  0.71703  1.0000
  H   H20       1.0  0.38399  0.44047  0.28307  1.0000
  H   H21       1.0  0.22512  0.16497  0.41594  1.0000
  H   H22       1.0  0.27322  0.74907  0.58409  1.0000
  H   H23       1.0  0.77491  0.83504  0.58406  1.0000
  H   H24       1.0  0.72675  0.25101  0.41602  1.0000
  H   H25       1.0  0.17850  0.16116  0.22792  1.0000
  H   H26       1.0  0.31939  0.93288  0.77193  1.0000
  H   H27       1.0  0.82161  0.83885  0.77207  1.0000
  H   H28       1.0  0.68074  0.06719  0.22816  1.0000
  H   H29       1.0  0.15244  0.92084  0.47069  1.0000
  H   H30       1.0  0.34714  0.45090  0.52930  1.0000
  H   H31       1.0  0.84751  0.07917  0.52928  1.0000
  H   H32       1.0  0.65276  0.54914  0.47077  1.0000
  H   H33       1.0  0.16083  0.08364  0.53774  1.0000
  H   H34       1.0  0.33943  0.54664  0.46208  1.0000
  H   H35       1.0  0.83915  0.91635  0.46224  1.0000
  H   H36       1.0  0.66046  0.45338  0.53798  1.0000
  H   H37       1.0  0.01826  0.39921  0.48117  1.0000
  H   H38       1.0  0.48219  0.91801  0.51888  1.0000
  H   H39       1.0  0.98171  0.60079  0.51881  1.0000
  H   H40       1.0  0.51780  0.08194  0.48112  1.0000
  C   C1        1.0  0.93692  0.48603  0.73713  1.0000
  C   C2        1.0  0.56294  0.74910  0.26284  1.0000
  C   C3        1.0  0.06300  0.51396  0.26285  1.0000
  C   C4        1.0  0.43703  0.25088  0.73716  1.0000
  C   C5        1.0  0.94565  0.59040  0.84287  1.0000
  C   C6        1.0  0.55427  0.74795  0.15709  1.0000
  C   C7        1.0  0.05430  0.40958  0.15711  1.0000
  C   C8        1.0  0.44574  0.25205  0.84291  1.0000
  C   C9        1.0  0.88507  0.57930  0.93093  1.0000
  C   C10       1.0  0.61460  0.64874  0.06897  1.0000
  C   C11       1.0  0.11490  0.42069  0.06905  1.0000
  C   C12       1.0  0.38538  0.35126  0.93102  1.0000
  C   C13       1.0  0.81570  0.46661  0.91594  1.0000
  C   C14       1.0  0.68379  0.55076  0.08399  1.0000
  C   C15       1.0  0.18426  0.53338  0.08405  1.0000
  C   C16       1.0  0.31618  0.44922  0.91599  1.0000
  C   C17       1.0  0.81987  0.35991  0.81485  1.0000
  C   C18       1.0  0.67960  0.54495  0.18509  1.0000
  C   C19       1.0  0.18008  0.64008  0.18514  1.0000
  C   C20       1.0  0.32032  0.45502  0.81489  1.0000
  C   C21       1.0  0.87821  0.37141  0.72650  1.0000
  C   C22       1.0  0.62153  0.64491  0.27350  1.0000
  C   C23       1.0  0.12171  0.62858  0.27348  1.0000
  C   C24       1.0  0.37840  0.35505  0.72646  1.0000
  C   C25       1.0  0.02746  0.71695  0.87419  1.0000
  C   C26       1.0  0.47293  0.84347  0.12561  1.0000
  C   C27       1.0  0.97254  0.28299  0.12574  1.0000
  C   C28       1.0  0.52714  0.15654  0.87441  1.0000
  C   C29       1.0  0.97529  0.49513  0.63624  1.0000
  C   C30       1.0  0.52455  0.85903  0.36365  1.0000
  C   C31       1.0  0.02463  0.50486  0.36373  1.0000
  C   C32       1.0  0.47544  0.14093  0.63635  1.0000
  C   C33       1.0  0.93202  0.92134  0.17449  1.0000
  C   C34       1.0  0.56835  0.74683  0.82526  1.0000
  C   C35       1.0  0.06804  0.07867  0.82547  1.0000
  C   C36       1.0  0.43175  0.25320  0.17478  1.0000
  C   C37       1.0  0.95301  0.91541  0.27563  1.0000
  C   C38       1.0  0.54754  0.63990  0.72421  1.0000
  C   C39       1.0  0.04698  0.08461  0.72433  1.0000
  C   C40       1.0  0.45247  0.36012  0.27584  1.0000
  C   C41       1.0  0.05859  0.00376  0.36605  1.0000
  C   C42       1.0  0.44124  0.63789  0.63388  1.0000
  C   C43       1.0  0.94138  0.99625  0.63393  1.0000
  C   C44       1.0  0.55872  0.36216  0.36619  1.0000
  C   C45       1.0  0.14008  0.09439  0.34898  1.0000
  C   C46       1.0  0.35872  0.74539  0.65101  1.0000
  C   C47       1.0  0.85994  0.90561  0.65101  1.0000
  C   C48       1.0  0.64131  0.25466  0.34908  1.0000
  C   C49       1.0  0.11510  0.09349  0.24485  1.0000
  C   C50       1.0  0.38347  0.84842  0.75509  1.0000
  C   C51       1.0  0.88501  0.90653  0.75515  1.0000
  C   C52       1.0  0.61662  0.15166  0.24501  1.0000
  C   C53       1.0  0.08286  0.00189  0.47747  1.0000
  C   C54       1.0  0.41710  0.52478  0.52246  1.0000
  C   C55       1.0  0.91710  0.99812  0.52250  1.0000
  C   C56       1.0  0.58280  0.47524  0.47759  1.0000
  N   N1        1.0  0.01163  0.00900  0.15994  1.0000
  N   N2        1.0  0.48773  0.84886  0.83989  1.0000
  N   N3        1.0  0.98848  0.99100  0.84003  1.0000
  N   N4        1.0  0.51242  0.15117  0.16017  1.0000
  O   O1        1.0  0.93589  0.80610  0.92574  1.0000
  O   O2        1.0  0.56525  0.88115  0.07463  1.0000
  O   O3        1.0  0.06417  0.19389  0.07422  1.0000
  O   O4        1.0  0.43488  0.11887  0.92541  1.0000
  O   O5        1.0  0.74985  0.03193  0.99898  1.0000
  O   O6        1.0  0.25031  0.96812  0.00109  1.0000
  O   O7        1.0  0.17393  0.72091  0.85329  1.0000
  O   O8        1.0  0.32597  0.86821  0.14556  1.0000
  O   O9        1.0  0.82601  0.27898  0.14656  1.0000
  O   O10       1.0  0.67410  0.13181  0.85444  1.0000
  O   O11       1.0  0.96711  0.59413  0.62879  1.0000
  O   O12       1.0  0.53206  0.96532  0.37087  1.0000
  O   O13       1.0  0.03276  0.40585  0.37116  1.0000
  O   O14       1.0  0.46797  0.03465  0.62915  1.0000
  O   O15       1.0  0.01056  0.38880  0.55287  1.0000
  O   O16       1.0  0.48991  0.83607  0.44720  1.0000
  O   O17       1.0  0.98943  0.61120  0.44712  1.0000
  O   O18       1.0  0.51006  0.16389  0.55279  1.0000
  O   O19       1.0  0.74963  0.45260  0.99995  1.0000
  O   O20       1.0  0.25033  0.54738  0.00003  1.0000
