data_image0
_chemical_formula_structural       Cd2H26C42N4O12
_chemical_formula_sum              "Cd2 H26 C42 N4 O12"
_cell_length_a       7.76579
_cell_length_b       10.0211
_cell_length_c       12.6056
_cell_angle_alpha    96.5404
_cell_angle_beta     101.838
_cell_angle_gamma    107.275

_space_group_name_H-M_alt    "P 1"
_space_group_IT_number       1

loop_
  _space_group_symop_operation_xyz
  'x, y, z'

loop_
  _atom_site_type_symbol
  _atom_site_label
  _atom_site_symmetry_multiplicity
  _atom_site_fract_x
  _atom_site_fract_y
  _atom_site_fract_z
  _atom_site_occupancy
  Cd  Cd1       1.0  0.12971  0.65129  0.43326  1.0000
  Cd  Cd2       1.0  0.87029  0.34870  0.56674  1.0000
  H   H1        1.0  0.29771  0.96431  0.52996  1.0000
  H   H2        1.0  0.70230  0.03570  0.47003  1.0000
  H   H3        1.0  0.09222  0.13230  0.42125  1.0000
  H   H4        1.0  0.90779  0.86770  0.57875  1.0000
  H   H5        1.0  0.89251  0.83968  0.11324  1.0000
  H   H6        1.0  0.10750  0.16032  0.88676  1.0000
  H   H7        1.0  0.82305  0.25444  0.13486  1.0000
  H   H8        1.0  0.17695  0.74555  0.86515  1.0000
  H   H9        1.0  0.74554  0.21932  0.97259  1.0000
  H   H10       1.0  0.25447  0.78069  0.02741  1.0000
  H   H11       1.0  0.56794  0.15632  0.77799  1.0000
  H   H12       1.0  0.43206  0.84369  0.22201  1.0000
  H   H13       1.0  0.53644  0.72084  0.77210  1.0000
  H   H14       1.0  0.46356  0.27917  0.22790  1.0000
  H   H15       1.0  0.70649  0.77963  0.96867  1.0000
  H   H16       1.0  0.29351  0.22037  0.03132  1.0000
  H   H17       1.0  0.60041  0.63823  0.48822  1.0000
  H   H18       1.0  0.39959  0.36177  0.51177  1.0000
  H   H19       1.0  0.19713  0.58595  0.19348  1.0000
  H   H20       1.0  0.80285  0.41404  0.80652  1.0000
  H   H21       1.0  0.73920  0.56315  0.31359  1.0000
  H   H22       1.0  0.26080  0.43685  0.68641  1.0000
  H   H23       1.0  0.20438  0.52020  0.03297  1.0000
  H   H24       1.0  0.79561  0.47979  0.96703  1.0000
  H   H25       1.0  0.77343  0.53525  0.15625  1.0000
  H   H26       1.0  0.22656  0.46474  0.84375  1.0000
  C   C1        1.0  0.99200  0.35106  0.34626  1.0000
  C   C2        1.0  0.00800  0.64893  0.65374  1.0000
  C   C3        1.0  0.02629  0.10820  0.33318  1.0000
  C   C4        1.0  0.97371  0.89180  0.66682  1.0000
  C   C5        1.0  0.99773  0.97555  0.27050  1.0000
  C   C6        1.0  0.00227  0.02444  0.72950  1.0000
  C   C7        1.0  0.05272  0.86268  0.32260  1.0000
  C   C8        1.0  0.94729  0.13732  0.67740  1.0000
  C   C9        1.0  0.90887  0.94392  0.15799  1.0000
  C   C10       1.0  0.09114  0.05609  0.84201  1.0000
  C   C11       1.0  0.84348  0.04187  0.10515  1.0000
  C   C12       1.0  0.15654  0.95813  0.89485  1.0000
  C   C13       1.0  0.87401  0.17457  0.16947  1.0000
  C   C14       1.0  0.12600  0.82543  0.83053  1.0000
  C   C15       1.0  0.96484  0.20825  0.28190  1.0000
  C   C16       1.0  0.03517  0.79174  0.71810  1.0000
  C   C17       1.0  0.74208  0.00514  0.98700  1.0000
  C   C18       1.0  0.25792  0.99486  0.01300  1.0000
  C   C19       1.0  0.70052  0.10925  0.93014  1.0000
  C   C20       1.0  0.29948  0.89075  0.06985  1.0000
  C   C21       1.0  0.60103  0.07498  0.82033  1.0000
  C   C22       1.0  0.39897  0.92503  0.17967  1.0000
  C   C23       1.0  0.54244  0.93489  0.76253  1.0000
  C   C24       1.0  0.45756  0.06512  0.23747  1.0000
  C   C25       1.0  0.58417  0.82985  0.81738  1.0000
  C   C26       1.0  0.41584  0.17015  0.18262  1.0000
  C   C27       1.0  0.68073  0.86436  0.92776  1.0000
  C   C28       1.0  0.31928  0.13564  0.07224  1.0000
  C   C29       1.0  0.42939  0.89410  0.64696  1.0000
  C   C30       1.0  0.57060  0.10590  0.35304  1.0000
  C   C31       1.0  0.53725  0.61668  0.40044  1.0000
  C   C32       1.0  0.46275  0.38332  0.59956  1.0000
  C   C33       1.0  0.32520  0.58973  0.24925  1.0000
  C   C34       1.0  0.67479  0.41027  0.75076  1.0000
  C   C35       1.0  0.60931  0.58152  0.31496  1.0000
  C   C36       1.0  0.39068  0.41847  0.68503  1.0000
  C   C37       1.0  0.48712  0.53207  0.10866  1.0000
  C   C38       1.0  0.51287  0.46792  0.89134  1.0000
  C   C39       1.0  0.33525  0.51228  0.01937  1.0000
  C   C40       1.0  0.66475  0.48772  0.98063  1.0000
  C   C41       1.0  0.65272  0.51926  0.08863  1.0000
  C   C42       1.0  0.34727  0.48074  0.91137  1.0000
  N   N1        1.0  0.36054  0.62098  0.35809  1.0000
  N   N2        1.0  0.63946  0.37903  0.64191  1.0000
  N   N3        1.0  0.47371  0.56512  0.21850  1.0000
  N   N4        1.0  0.52628  0.43489  0.78150  1.0000
  O   O1        1.0  0.06890  0.37922  0.45101  1.0000
  O   O2        1.0  0.93110  0.62077  0.54900  1.0000
  O   O3        1.0  0.94509  0.44200  0.29548  1.0000
  O   O4        1.0  0.05491  0.55799  0.70452  1.0000
  O   O5        1.0  0.12509  0.88841  0.42763  1.0000
  O   O6        1.0  0.87494  0.11160  0.57237  1.0000
  O   O7        1.0  0.01985  0.74247  0.26403  1.0000
  O   O8        1.0  0.98015  0.25753  0.73598  1.0000
  O   O9        1.0  0.37261  0.76836  0.59690  1.0000
  O   O10       1.0  0.62738  0.23165  0.40310  1.0000
  O   O11       1.0  0.39243  0.00063  0.60423  1.0000
  O   O12       1.0  0.60757  0.99938  0.39577  1.0000
