data_image0
_chemical_formula_structural       H20Pb2C12S4N12O2
_chemical_formula_sum              "H20 Pb2 C12 S4 N12 O2"
_cell_length_a       7.49982
_cell_length_b       9.35746
_cell_length_c       9.09295
_cell_angle_alpha    92.1578
_cell_angle_beta     114.375
_cell_angle_gamma    90.0109

_space_group_name_H-M_alt    "P 1"
_space_group_IT_number       1

loop_
  _space_group_symop_operation_xyz
  'x, y, z'

loop_
  _atom_site_type_symbol
  _atom_site_label
  _atom_site_symmetry_multiplicity
  _atom_site_fract_x
  _atom_site_fract_y
  _atom_site_fract_z
  _atom_site_occupancy
  H   H1        1.0  0.84888  0.18490  0.93169  1.0000
  H   H2        1.0  0.91705  0.31450  0.06803  1.0000
  H   H3        1.0  0.15117  0.81510  0.06833  1.0000
  H   H4        1.0  0.08295  0.68552  0.93198  1.0000
  H   H5        1.0  0.05384  0.57657  0.33305  1.0000
  H   H6        1.0  0.72089  0.92274  0.66640  1.0000
  H   H7        1.0  0.94615  0.42342  0.66698  1.0000
  H   H8        1.0  0.27913  0.07728  0.33361  1.0000
  H   H9        1.0  0.58207  0.67828  0.51874  1.0000
  H   H10       1.0  0.06304  0.82134  0.48064  1.0000
  H   H11       1.0  0.41797  0.32171  0.48127  1.0000
  H   H12       1.0  0.93693  0.17862  0.51935  1.0000
  H   H13       1.0  0.35108  0.73883  0.50537  1.0000
  H   H14       1.0  0.84547  0.76061  0.49389  1.0000
  H   H15       1.0  0.64894  0.26117  0.49465  1.0000
  H   H16       1.0  0.15454  0.23938  0.50608  1.0000
  H   H17       1.0  0.44414  0.79771  0.36481  1.0000
  H   H18       1.0  0.07911  0.70182  0.63450  1.0000
  H   H19       1.0  0.55586  0.20227  0.63519  1.0000
  H   H20       1.0  0.92089  0.29819  0.36553  1.0000
  Pb  Pb1       1.0  0.46602  0.24995  0.99965  1.0000
  Pb  Pb2       1.0  0.53400  0.75004  0.00029  1.0000
  C   C1        1.0  0.42090  0.50005  0.24628  1.0000
  C   C2        1.0  0.17486  0.99931  0.75349  1.0000
  C   C3        1.0  0.57907  0.49992  0.75374  1.0000
  C   C4        1.0  0.82513  0.00072  0.24649  1.0000
  C   C5        1.0  0.15566  0.53202  0.28760  1.0000
  C   C6        1.0  0.86812  0.96743  0.71193  1.0000
  C   C7        1.0  0.84433  0.46801  0.71242  1.0000
  C   C8        1.0  0.13188  0.03254  0.28810  1.0000
  C   C9        1.0  0.43439  0.70776  0.43537  1.0000
  C   C10       1.0  0.99882  0.79184  0.56403  1.0000
  C   C11       1.0  0.56564  0.29224  0.56466  1.0000
  C   C12       1.0  0.00117  0.20816  0.43599  1.0000
  S   S1        1.0  0.65152  0.51819  0.25201  1.0000
  S   S2        1.0  0.39981  0.98117  0.74785  1.0000
  S   S3        1.0  0.34843  0.48182  0.74795  1.0000
  S   S4        1.0  0.60020  0.01884  0.25212  1.0000
  N   N1        1.0  0.28817  0.39920  0.16060  1.0000
  N   N2        1.0  0.12788  0.10000  0.83931  1.0000
  N   N3        1.0  0.71184  0.60076  0.83941  1.0000
  N   N4        1.0  0.87208  0.90000  0.16065  1.0000
  N   N5        1.0  0.12175  0.41994  0.18677  1.0000
  N   N6        1.0  0.93520  0.07940  0.81297  1.0000
  N   N7        1.0  0.87826  0.58011  0.81321  1.0000
  N   N8        1.0  0.06479  0.92059  0.18707  1.0000
  N   N9        1.0  0.34031  0.58516  0.32935  1.0000
  N   N10       1.0  0.01100  0.91435  0.67017  1.0000
  N   N11       1.0  0.65967  0.41484  0.67068  1.0000
  N   N12       1.0  0.98897  0.08566  0.32983  1.0000
  O   O1        1.0  0.80411  0.24981  0.99967  1.0000
  O   O2        1.0  0.19591  0.75020  0.00032  1.0000
