data_image0
_chemical_formula_structural       Hg2H20C24N8Cl4
_chemical_formula_sum              "Hg2 H20 C24 N8 Cl4"
_cell_length_a       7.98238
_cell_length_b       8.89751
_cell_length_c       10.8673
_cell_angle_alpha    102.925
_cell_angle_beta     99.1928
_cell_angle_gamma    110.911

_space_group_name_H-M_alt    "P 1"
_space_group_IT_number       1

loop_
  _space_group_symop_operation_xyz
  'x, y, z'

loop_
  _atom_site_type_symbol
  _atom_site_label
  _atom_site_symmetry_multiplicity
  _atom_site_fract_x
  _atom_site_fract_y
  _atom_site_fract_z
  _atom_site_occupancy
  Hg  Hg1       1.0  0.52483  0.41726  0.29389  1.0000
  Hg  Hg2       1.0  0.47517  0.58274  0.70611  1.0000
  H   H1        1.0  0.68478  0.45518  0.04857  1.0000
  H   H2        1.0  0.31522  0.54482  0.95143  1.0000
  H   H3        1.0  0.79258  0.32674  0.86753  1.0000
  H   H4        1.0  0.20742  0.67326  0.13247  1.0000
  H   H5        1.0  0.84500  0.06208  0.86987  1.0000
  H   H6        1.0  0.15501  0.93792  0.13014  1.0000
  H   H7        1.0  0.79147  0.94533  0.05355  1.0000
  H   H8        1.0  0.20853  0.05467  0.94646  1.0000
  H   H9        1.0  0.75918  0.19413  0.35967  1.0000
  H   H10       1.0  0.24082  0.80587  0.64033  1.0000
  H   H11       1.0  0.53789  0.03587  0.26617  1.0000
  H   H12       1.0  0.46211  0.96414  0.73384  1.0000
  H   H13       1.0  0.11960  0.22865  0.37649  1.0000
  H   H14       1.0  0.88040  0.77135  0.62351  1.0000
  H   H15       1.0  0.38764  0.15828  0.44172  1.0000
  H   H16       1.0  0.61236  0.84172  0.55828  1.0000
  H   H17       1.0  0.34548  0.86152  0.41976  1.0000
  H   H18       1.0  0.65452  0.13847  0.58025  1.0000
  H   H19       1.0  0.03129  0.62606  0.34153  1.0000
  H   H20       1.0  0.96871  0.37394  0.65847  1.0000
  C   C1        1.0  0.71314  0.34379  0.04796  1.0000
  C   C2        1.0  0.28686  0.65621  0.95204  1.0000
  C   C3        1.0  0.77282  0.27076  0.94627  1.0000
  C   C4        1.0  0.22718  0.72924  0.05373  1.0000
  C   C5        1.0  0.80117  0.12561  0.94814  1.0000
  C   C6        1.0  0.19883  0.87439  0.05186  1.0000
  C   C7        1.0  0.77217  0.06016  0.05196  1.0000
  C   C8        1.0  0.22783  0.93984  0.94805  1.0000
  C   C9        1.0  0.71746  0.14353  0.15176  1.0000
  C   C10       1.0  0.28254  0.85647  0.84824  1.0000
  C   C11       1.0  0.68672  0.08585  0.27032  1.0000
  C   C12       1.0  0.31328  0.91416  0.72968  1.0000
  C   C13       1.0  0.92408  0.96387  0.32153  1.0000
  C   C14       1.0  0.07592  0.03613  0.67847  1.0000
  C   C15       1.0  0.09952  0.09858  0.36730  1.0000
  C   C16       1.0  0.90048  0.90141  0.63270  1.0000
  C   C17       1.0  0.24834  0.05690  0.40280  1.0000
  C   C18       1.0  0.75166  0.94310  0.59720  1.0000
  C   C19       1.0  0.22432  0.88834  0.39189  1.0000
  C   C20       1.0  0.77568  0.11166  0.60811  1.0000
  C   C21       1.0  0.04992  0.75508  0.34736  1.0000
  C   C22       1.0  0.95007  0.24492  0.65264  1.0000
  C   C23       1.0  0.89819  0.79573  0.31276  1.0000
  C   C24       1.0  0.10180  0.20427  0.68724  1.0000
  N   N1        1.0  0.68693  0.28233  0.14876  1.0000
  N   N2        1.0  0.31306  0.71767  0.85124  1.0000
  N   N3        1.0  0.74723  0.95329  0.28193  1.0000
  N   N4        1.0  0.25277  0.04671  0.71807  1.0000
  N   N5        1.0  0.62090  0.79264  0.25248  1.0000
  N   N6        1.0  0.37910  0.20736  0.74752  1.0000
  N   N7        1.0  0.70968  0.69774  0.27033  1.0000
  N   N8        1.0  0.29032  0.30226  0.72967  1.0000
  Cl  Cl1       1.0  0.70976  0.44859  0.50368  1.0000
  Cl  Cl2       1.0  0.29024  0.55141  0.49632  1.0000
  Cl  Cl3       1.0  0.24623  0.34096  0.13119  1.0000
  Cl  Cl4       1.0  0.75377  0.65904  0.86881  1.0000
