data_image0
_chemical_formula_structural       Cd4H8C24N8O16
_chemical_formula_sum              "Cd4 H8 C24 N8 O16"
_cell_length_a       5.489
_cell_length_b       10.6608
_cell_length_c       11.8307
_cell_angle_alpha    104.274
_cell_angle_beta     90.0004
_cell_angle_gamma    90.0006

_space_group_name_H-M_alt    "P 1"
_space_group_IT_number       1

loop_
  _space_group_symop_operation_xyz
  'x, y, z'

loop_
  _atom_site_type_symbol
  _atom_site_label
  _atom_site_symmetry_multiplicity
  _atom_site_fract_x
  _atom_site_fract_y
  _atom_site_fract_z
  _atom_site_occupancy
  Cd  Cd1       1.0  0.75670  0.23056  0.76495  1.0000
  Cd  Cd2       1.0  0.25671  0.76944  0.73505  1.0000
  Cd  Cd3       1.0  0.24327  0.76945  0.23505  1.0000
  Cd  Cd4       1.0  0.74332  0.23055  0.26494  1.0000
  H   H1        1.0  0.12783  0.60136  0.95198  1.0000
  H   H2        1.0  0.62787  0.39863  0.54802  1.0000
  H   H3        1.0  0.87213  0.39863  0.04803  1.0000
  H   H4        1.0  0.37216  0.60137  0.45199  1.0000
  H   H5        1.0  0.18568  0.21400  0.55424  1.0000
  H   H6        1.0  0.68565  0.78600  0.94576  1.0000
  H   H7        1.0  0.81435  0.78601  0.44577  1.0000
  H   H8        1.0  0.31438  0.21397  0.05422  1.0000
  C   C1        1.0  0.26986  0.38065  0.78248  1.0000
  C   C2        1.0  0.76988  0.61935  0.71752  1.0000
  C   C3        1.0  0.73011  0.61935  0.21753  1.0000
  C   C4        1.0  0.23017  0.38065  0.28248  1.0000
  C   C5        1.0  0.38894  0.44447  0.89798  1.0000
  C   C6        1.0  0.88895  0.55553  0.60202  1.0000
  C   C7        1.0  0.61103  0.55553  0.10202  1.0000
  C   C8        1.0  0.11106  0.44447  0.39799  1.0000
  C   C9        1.0  0.29324  0.55560  0.97373  1.0000
  C   C10       1.0  0.79328  0.44439  0.52627  1.0000
  C   C11       1.0  0.70671  0.44438  0.02627  1.0000
  C   C12       1.0  0.20674  0.55562  0.47374  1.0000
  C   C13       1.0  0.59541  0.95169  0.63608  1.0000
  C   C14       1.0  0.09540  0.04831  0.86393  1.0000
  C   C15       1.0  0.40465  0.04833  0.36392  1.0000
  C   C16       1.0  0.90462  0.95167  0.13607  1.0000
  C   C17       1.0  0.80817  0.97765  0.56350  1.0000
  C   C18       1.0  0.30818  0.02236  0.93651  1.0000
  C   C19       1.0  0.19182  0.02235  0.43651  1.0000
  C   C20       1.0  0.69182  0.97765  0.06348  1.0000
  C   C21       1.0  0.09974  0.11922  0.52861  1.0000
  C   C22       1.0  0.59971  0.88080  0.97139  1.0000
  C   C23       1.0  0.90027  0.88080  0.47141  1.0000
  C   C24       1.0  0.40025  0.11921  0.02860  1.0000
  N   N1        1.0  0.59462  0.39047  0.92561  1.0000
  N   N2        1.0  0.09462  0.60953  0.57441  1.0000
  N   N3        1.0  0.40534  0.60952  0.07440  1.0000
  N   N4        1.0  0.90537  0.39047  0.42561  1.0000
  N   N5        1.0  0.90903  0.09595  0.59063  1.0000
  N   N6        1.0  0.40898  0.90405  0.90936  1.0000
  N   N7        1.0  0.09100  0.90404  0.40937  1.0000
  N   N8        1.0  0.59096  0.09595  0.09060  1.0000
  O   O1        1.0  0.40517  0.31418  0.70329  1.0000
  O   O2        1.0  0.90517  0.68582  0.79671  1.0000
  O   O3        1.0  0.59480  0.68583  0.29671  1.0000
  O   O4        1.0  0.09485  0.31417  0.20330  1.0000
  O   O5        1.0  0.04281  0.39861  0.77478  1.0000
  O   O6        1.0  0.54284  0.60139  0.72522  1.0000
  O   O7        1.0  0.95716  0.60139  0.22522  1.0000
  O   O8        1.0  0.45723  0.39862  0.27480  1.0000
  O   O9        1.0  0.51494  0.04375  0.71561  1.0000
  O   O10       1.0  0.01493  0.95627  0.78437  1.0000
  O   O11       1.0  0.48506  0.95624  0.28438  1.0000
  O   O12       1.0  0.98506  0.04374  0.21561  1.0000
  O   O13       1.0  0.51396  0.83619  0.60858  1.0000
  O   O14       1.0  0.01392  0.16379  0.89141  1.0000
  O   O15       1.0  0.48607  0.16383  0.39143  1.0000
  O   O16       1.0  0.98605  0.83617  0.10855  1.0000
