data_image0
_chemical_formula_structural       Zn6H52C44O44
_chemical_formula_sum              "Zn6 H52 C44 O44"
_cell_length_a       8.06414
_cell_length_b       12.1069
_cell_length_c       14.207
_cell_angle_alpha    90.0001
_cell_angle_beta     89.9999
_cell_angle_gamma    90.5883

_space_group_name_H-M_alt    "P 1"
_space_group_IT_number       1

loop_
  _space_group_symop_operation_xyz
  'x, y, z'

loop_
  _atom_site_type_symbol
  _atom_site_label
  _atom_site_symmetry_multiplicity
  _atom_site_fract_x
  _atom_site_fract_y
  _atom_site_fract_z
  _atom_site_occupancy
  Zn  Zn1       1.0  0.85023  0.32515  0.22262  1.0000
  Zn  Zn2       1.0  0.64977  0.17485  0.72262  1.0000
  Zn  Zn3       1.0  0.14977  0.67485  0.77738  1.0000
  Zn  Zn4       1.0  0.35023  0.82515  0.27738  1.0000
  Zn  Zn5       1.0  0.50000  0.50000  0.50000  1.0000
  Zn  Zn6       1.0  0.00000  0.00000  0.00000  1.0000
  H   H1        1.0  0.95489  0.44803  0.33750  1.0000
  H   H2        1.0  0.54511  0.05197  0.83750  1.0000
  H   H3        1.0  0.04511  0.55197  0.66250  1.0000
  H   H4        1.0  0.45489  0.94803  0.16250  1.0000
  H   H5        1.0  0.98842  0.53632  0.25287  1.0000
  H   H6        1.0  0.51158  0.96368  0.75287  1.0000
  H   H7        1.0  0.01158  0.46368  0.74713  1.0000
  H   H8        1.0  0.48842  0.03632  0.24713  1.0000
  H   H9        1.0  0.45876  0.54324  0.68973  1.0000
  H   H10       1.0  0.04124  0.95676  0.18973  1.0000
  H   H11       1.0  0.54124  0.45676  0.31027  1.0000
  H   H12       1.0  0.95876  0.04324  0.81027  1.0000
  H   H13       1.0  0.51979  0.41903  0.66750  1.0000
  H   H14       1.0  0.98021  0.08097  0.16750  1.0000
  H   H15       1.0  0.48021  0.58097  0.33250  1.0000
  H   H16       1.0  0.01980  0.91903  0.83250  1.0000
  H   H17       1.0  0.16857  0.44782  0.45947  1.0000
  H   H18       1.0  0.33143  0.05217  0.95947  1.0000
  H   H19       1.0  0.83143  0.55217  0.54053  1.0000
  H   H20       1.0  0.66857  0.94782  0.04053  1.0000
  H   H21       1.0  0.17212  0.56313  0.50918  1.0000
  H   H22       1.0  0.32788  0.93687  0.00918  1.0000
  H   H23       1.0  0.82788  0.43687  0.49082  1.0000
  H   H24       1.0  0.67212  0.06313  0.99082  1.0000
  H   H25       1.0  0.08169  0.29324  0.58254  1.0000
  H   H26       1.0  0.41831  0.20676  0.08254  1.0000
  H   H27       1.0  0.91831  0.70676  0.41746  1.0000
  H   H28       1.0  0.58169  0.79323  0.91746  1.0000
  H   H29       1.0  0.31161  0.97915  0.63296  1.0000
  H   H30       1.0  0.18840  0.52085  0.13296  1.0000
  H   H31       1.0  0.68839  0.02085  0.36704  1.0000
  H   H32       1.0  0.81161  0.47915  0.86704  1.0000
  H   H33       1.0  0.13348  0.06200  0.35420  1.0000
  H   H34       1.0  0.36652  0.43800  0.85420  1.0000
  H   H35       1.0  0.86652  0.93800  0.64580  1.0000
  H   H36       1.0  0.63348  0.56200  0.14580  1.0000
  H   H37       1.0  0.21604  0.32623  0.71713  1.0000
  H   H38       1.0  0.28395  0.17377  0.21713  1.0000
  H   H39       1.0  0.78395  0.67377  0.28287  1.0000
  H   H40       1.0  0.71604  0.82623  0.78287  1.0000
  H   H41       1.0  0.19854  0.25285  0.82543  1.0000
  H   H42       1.0  0.30146  0.24715  0.32543  1.0000
  H   H43       1.0  0.80146  0.74715  0.17457  1.0000
  H   H44       1.0  0.69854  0.75285  0.67457  1.0000
  H   H45       1.0  0.29044  0.81931  0.57026  1.0000
  H   H46       1.0  0.20956  0.68069  0.07026  1.0000
  H   H47       1.0  0.70956  0.18069  0.42974  1.0000
  H   H48       1.0  0.79044  0.31931  0.92974  1.0000
  H   H49       1.0  0.48456  0.88397  0.54752  1.0000
  H   H50       1.0  0.01544  0.61603  0.04752  1.0000
  H   H51       1.0  0.51544  0.11603  0.45248  1.0000
  H   H52       1.0  0.98456  0.38397  0.95248  1.0000
  C   C1        1.0  0.09889  0.18436  0.46378  1.0000
  C   C2        1.0  0.40111  0.31563  0.96378  1.0000
  C   C3        1.0  0.90110  0.81563  0.53622  1.0000
  C   C4        1.0  0.59890  0.68436  0.03622  1.0000
  C   C5        1.0  0.12389  0.21313  0.55838  1.0000
  C   C6        1.0  0.37611  0.28687  0.05838  1.0000
  C   C7        1.0  0.87611  0.78687  0.44162  1.0000
  C   C8        1.0  0.62389  0.71313  0.94162  1.0000
  C   C9        1.0  0.19938  0.13723  0.61801  1.0000
  C   C10       1.0  0.30062  0.36277  0.11801  1.0000
  C   C11       1.0  0.80061  0.86277  0.38199  1.0000
  C   C12       1.0  0.69939  0.63723  0.88199  1.0000
  C   C13       1.0  0.25648  0.03626  0.58324  1.0000
  C   C14       1.0  0.24352  0.46374  0.08324  1.0000
  C   C15       1.0  0.74352  0.96374  0.41676  1.0000
  C   C16       1.0  0.75648  0.53626  0.91676  1.0000
  C   C17       1.0  0.23721  0.01157  0.48785  1.0000
  C   C18       1.0  0.26279  0.48843  0.98785  1.0000
  C   C19       1.0  0.76279  0.98843  0.51215  1.0000
  C   C20       1.0  0.73721  0.51157  0.01215  1.0000
  C   C21       1.0  0.15404  0.08378  0.42757  1.0000
  C   C22       1.0  0.34596  0.41622  0.92757  1.0000
  C   C23       1.0  0.84596  0.91622  0.57243  1.0000
  C   C24       1.0  0.65404  0.58378  0.07242  1.0000
  C   C25       1.0  0.01116  0.26434  0.40142  1.0000
  C   C26       1.0  0.48884  0.23566  0.90142  1.0000
  C   C27       1.0  0.98884  0.73566  0.59858  1.0000
  C   C28       1.0  0.51116  0.76434  0.09858  1.0000
  C   C29       1.0  0.16117  0.25282  0.75119  1.0000
  C   C30       1.0  0.33883  0.24719  0.25119  1.0000
  C   C31       1.0  0.83883  0.74719  0.24881  1.0000
  C   C32       1.0  0.66117  0.75281  0.74881  1.0000
  C   C33       1.0  0.97274  0.25948  0.74993  1.0000
  C   C34       1.0  0.52726  0.24052  0.24993  1.0000
  C   C35       1.0  0.02726  0.74052  0.25007  1.0000
  C   C36       1.0  0.47274  0.75948  0.75007  1.0000
  C   C37       1.0  0.37692  0.84352  0.51388  1.0000
  C   C38       1.0  0.12308  0.65648  0.01388  1.0000
  C   C39       1.0  0.62308  0.15648  0.48612  1.0000
  C   C40       1.0  0.87692  0.34352  0.98612  1.0000
  C   C41       1.0  0.43737  0.74002  0.46654  1.0000
  C   C42       1.0  0.06263  0.75998  0.96654  1.0000
  C   C43       1.0  0.56263  0.25998  0.53346  1.0000
  C   C44       1.0  0.93737  0.24002  0.03346  1.0000
  O   O1        1.0  0.99634  0.36464  0.42948  1.0000
  O   O2        1.0  0.50366  0.13536  0.92948  1.0000
  O   O3        1.0  0.00366  0.63536  0.57052  1.0000
  O   O4        1.0  0.49634  0.86464  0.07052  1.0000
  O   O5        1.0  0.95530  0.22845  0.32316  1.0000
  O   O6        1.0  0.54470  0.27155  0.82316  1.0000
  O   O7        1.0  0.04470  0.77155  0.67684  1.0000
  O   O8        1.0  0.45530  0.72845  0.17684  1.0000
  O   O9        1.0  0.22459  0.15330  0.71238  1.0000
  O   O10       1.0  0.27541  0.34670  0.21238  1.0000
  O   O11       1.0  0.77541  0.84670  0.28762  1.0000
  O   O12       1.0  0.72459  0.65330  0.78762  1.0000
  O   O13       1.0  0.90587  0.35207  0.75922  1.0000
  O   O14       1.0  0.59413  0.14793  0.25922  1.0000
  O   O15       1.0  0.09412  0.64793  0.24078  1.0000
  O   O16       1.0  0.40587  0.85207  0.74078  1.0000
  O   O17       1.0  0.89272  0.16735  0.74159  1.0000
  O   O18       1.0  0.60728  0.33265  0.24158  1.0000
  O   O19       1.0  0.10728  0.83265  0.25841  1.0000
  O   O20       1.0  0.39272  0.66735  0.75842  1.0000
  O   O21       1.0  0.29892  0.91615  0.44866  1.0000
  O   O22       1.0  0.20109  0.58385  0.94866  1.0000
  O   O23       1.0  0.70108  0.08385  0.55134  1.0000
  O   O24       1.0  0.79892  0.41615  0.05134  1.0000
  O   O25       1.0  0.42584  0.72704  0.37749  1.0000
  O   O26       1.0  0.07416  0.77296  0.87749  1.0000
  O   O27       1.0  0.57416  0.27296  0.62251  1.0000
  O   O28       1.0  0.92584  0.22704  0.12251  1.0000
  O   O29       1.0  0.49712  0.66997  0.52242  1.0000
  O   O30       1.0  0.00288  0.83003  0.02243  1.0000
  O   O31       1.0  0.50288  0.33003  0.47758  1.0000
  O   O32       1.0  0.99712  0.16997  0.97757  1.0000
  O   O33       1.0  0.91658  0.47163  0.27368  1.0000
  O   O34       1.0  0.58342  0.02837  0.77368  1.0000
  O   O35       1.0  0.08342  0.52837  0.72632  1.0000
  O   O36       1.0  0.41658  0.97163  0.22632  1.0000
  O   O37       1.0  0.45031  0.48015  0.64601  1.0000
  O   O38       1.0  0.04969  0.01985  0.14601  1.0000
  O   O39       1.0  0.54969  0.51985  0.35399  1.0000
  O   O40       1.0  0.95031  0.98015  0.85399  1.0000
  O   O41       1.0  0.23988  0.51368  0.47024  1.0000
  O   O42       1.0  0.26012  0.98632  0.97024  1.0000
  O   O43       1.0  0.76012  0.48632  0.52976  1.0000
  O   O44       1.0  0.73988  0.01368  0.02976  1.0000
