data_image0
_chemical_formula_structural       Cu2H26C38N10O12
_chemical_formula_sum              "Cu2 H26 C38 N10 O12"
_cell_length_a       9.03449
_cell_length_b       8.78388
_cell_length_c       13.4655
_cell_angle_alpha    80.3421
_cell_angle_beta     76.303
_cell_angle_gamma    87.0262

_space_group_name_H-M_alt    "P 1"
_space_group_IT_number       1

loop_
  _space_group_symop_operation_xyz
  'x, y, z'

loop_
  _atom_site_type_symbol
  _atom_site_label
  _atom_site_symmetry_multiplicity
  _atom_site_fract_x
  _atom_site_fract_y
  _atom_site_fract_z
  _atom_site_occupancy
  Cu  Cu1       1.0  0.09848  0.21404  0.08446  1.0000
  Cu  Cu2       1.0  0.90147  0.78577  0.91561  1.0000
  H   H1        1.0  0.49294  0.56496  0.29235  1.0000
  H   H2        1.0  0.50739  0.43491  0.70742  1.0000
  H   H3        1.0  0.65083  0.78772  0.35006  1.0000
  H   H4        1.0  0.34934  0.21258  0.64993  1.0000
  H   H5        1.0  0.16701  0.39124  0.22764  1.0000
  H   H6        1.0  0.83302  0.60957  0.77192  1.0000
  H   H7        1.0  0.43562  0.17911  0.99352  1.0000
  H   H8        1.0  0.56409  0.82002  0.00679  1.0000
  H   H9        1.0  0.67501  0.28991  0.01739  1.0000
  H   H10       1.0  0.32499  0.70855  0.98300  1.0000
  H   H11       1.0  0.65452  0.45807  0.15189  1.0000
  H   H12       1.0  0.34581  0.54077  0.84826  1.0000
  H   H13       1.0  0.09650  0.50602  0.55854  1.0000
  H   H14       1.0  0.90350  0.49428  0.44095  1.0000
  H   H15       1.0  0.14259  0.62891  0.70459  1.0000
  H   H16       1.0  0.85729  0.37096  0.29512  1.0000
  H   H17       1.0  0.38261  0.78608  0.66990  1.0000
  H   H18       1.0  0.61727  0.21372  0.33004  1.0000
  H   H19       1.0  0.81107  0.02270  0.22907  1.0000
  H   H20       1.0  0.18913  0.97735  0.77103  1.0000
  H   H21       1.0  0.24147  0.06546  0.27910  1.0000
  H   H22       1.0  0.75840  0.93520  0.72139  1.0000
  H   H23       1.0  0.17844  0.89081  0.44728  1.0000
  H   H24       1.0  0.82127  0.11005  0.55327  1.0000
  H   H25       1.0  0.91790  0.77022  0.50803  1.0000
  H   H26       1.0  0.08198  0.23020  0.49226  1.0000
  C   C1        1.0  0.08110  0.96469  0.98986  1.0000
  C   C2        1.0  0.91898  0.03493  0.01033  1.0000
  C   C3        1.0  0.95693  0.50551  0.05733  1.0000
  C   C4        1.0  0.04290  0.49431  0.94248  1.0000
  C   C5        1.0  0.28102  0.37041  0.18360  1.0000
  C   C6        1.0  0.71901  0.62992  0.81612  1.0000
  C   C7        1.0  0.43263  0.25360  0.05102  1.0000
  C   C8        1.0  0.56725  0.74578  0.94911  1.0000
  C   C9        1.0  0.56396  0.31573  0.06462  1.0000
  C   C10       1.0  0.43606  0.68326  0.93558  1.0000
  C   C11       1.0  0.55275  0.40688  0.14124  1.0000
  C   C12       1.0  0.44741  0.59233  0.85882  1.0000
  C   C13       1.0  0.40884  0.43219  0.20402  1.0000
  C   C14       1.0  0.59132  0.56775  0.79579  1.0000
  C   C15       1.0  0.27619  0.51620  0.36906  1.0000
  C   C16       1.0  0.72392  0.48424  0.63055  1.0000
  C   C17       1.0  0.30667  0.59080  0.45465  1.0000
  C   C18       1.0  0.69344  0.40951  0.54503  1.0000
  C   C19       1.0  0.19891  0.57179  0.54934  1.0000
  C   C20       1.0  0.80111  0.42840  0.45029  1.0000
  C   C21       1.0  0.22371  0.64181  0.62939  1.0000
  C   C22       1.0  0.77623  0.35815  0.37035  1.0000
  C   C23       1.0  0.35541  0.72791  0.61128  1.0000
  C   C24       1.0  0.64455  0.27202  0.38859  1.0000
  C   C25       1.0  0.45835  0.73801  0.51482  1.0000
  C   C26       1.0  0.54166  0.26207  0.48508  1.0000
  C   C27       1.0  0.60411  0.82335  0.49896  1.0000
  C   C28       1.0  0.39585  0.17676  0.50108  1.0000
  C   C29       1.0  0.84542  0.88815  0.37263  1.0000
  C   C30       1.0  0.15465  0.11209  0.62756  1.0000
  C   C31       1.0  0.89037  0.98878  0.27903  1.0000
  C   C32       1.0  0.10977  0.01140  0.72114  1.0000
  C   C33       1.0  0.12970  0.01237  0.30646  1.0000
  C   C34       1.0  0.87023  0.98816  0.69393  1.0000
  C   C35       1.0  0.09403  0.91325  0.40079  1.0000
  C   C36       1.0  0.90581  0.08737  0.59962  1.0000
  C   C37       1.0  0.94983  0.84887  0.43499  1.0000
  C   C38       1.0  0.05009  0.15155  0.56533  1.0000
  N   N1        1.0  0.29423  0.28331  0.10884  1.0000
  N   N2        1.0  0.70565  0.71671  0.89106  1.0000
  N   N3        1.0  0.02986  0.04948  0.24628  1.0000
  N   N4        1.0  0.97022  0.95079  0.75399  1.0000
  N   N5        1.0  0.39689  0.51535  0.28561  1.0000
  N   N6        1.0  0.60335  0.48476  0.71408  1.0000
  N   N7        1.0  0.69680  0.82842  0.40249  1.0000
  N   N8        1.0  0.30330  0.17173  0.59759  1.0000
  N   N9        1.0  0.43560  0.67064  0.43725  1.0000
  N   N10       1.0  0.56453  0.32959  0.56254  1.0000
  O   O1        1.0  0.18388  0.02951  0.01716  1.0000
  O   O2        1.0  0.81616  0.97017  0.98301  1.0000
  O   O3        1.0  0.98532  0.39893  0.12843  1.0000
  O   O4        1.0  0.01450  0.60097  0.87141  1.0000
  O   O5        1.0  0.86551  0.61505  0.07498  1.0000
  O   O6        1.0  0.13424  0.38472  0.92483  1.0000
  O   O7        1.0  0.10100  0.84606  0.94616  1.0000
  O   O8        1.0  0.89904  0.15351  0.05407  1.0000
  O   O9        1.0  0.15117  0.45785  0.37732  1.0000
  O   O10       1.0  0.84883  0.54290  0.62217  1.0000
  O   O11       1.0  0.63480  0.88035  0.56964  1.0000
  O   O12       1.0  0.36501  0.11972  0.43045  1.0000
