data_image0
_chemical_formula_structural       Na2H24C20S2N6O14
_chemical_formula_sum              "Na2 H24 C20 S2 N6 O14"
_cell_length_a       5.17791
_cell_length_b       9.91739
_cell_length_c       14.289
_cell_angle_alpha    99.9297
_cell_angle_beta     95.8312
_cell_angle_gamma    100.371

_space_group_name_H-M_alt    "P 1"
_space_group_IT_number       1

loop_
  _space_group_symop_operation_xyz
  'x, y, z'

loop_
  _atom_site_type_symbol
  _atom_site_label
  _atom_site_symmetry_multiplicity
  _atom_site_fract_x
  _atom_site_fract_y
  _atom_site_fract_z
  _atom_site_occupancy
  Na  Na1       1.0  0.42861  0.96312  0.61654  1.0000
  Na  Na2       1.0  0.57137  0.03688  0.38346  1.0000
  H   H1        1.0  0.61834  0.38664  0.60718  1.0000
  H   H2        1.0  0.38164  0.61334  0.39283  1.0000
  H   H3        1.0  0.50099  0.56006  0.73409  1.0000
  H   H4        1.0  0.49901  0.43994  0.26591  1.0000
  H   H5        1.0  0.73972  0.60334  0.90113  1.0000
  H   H6        1.0  0.26031  0.39668  0.09887  1.0000
  H   H7        1.0  0.08496  0.46853  0.93868  1.0000
  H   H8        1.0  0.91506  0.53149  0.06131  1.0000
  H   H9        1.0  0.05822  0.92593  0.89957  1.0000
  H   H10       1.0  0.94177  0.07407  0.10042  1.0000
  H   H11       1.0  0.99830  0.00361  0.79587  1.0000
  H   H12       1.0  0.00169  0.99639  0.20412  1.0000
  H   H13       1.0  0.75618  0.86412  0.81727  1.0000
  H   H14       1.0  0.24381  0.13588  0.18272  1.0000
  H   H15       1.0  0.28272  0.20364  0.76492  1.0000
  H   H16       1.0  0.71728  0.79636  0.23508  1.0000
  H   H17       1.0  0.99388  0.75129  0.66578  1.0000
  H   H18       1.0  0.00612  0.24871  0.33422  1.0000
  H   H19       1.0  0.21960  0.75866  0.75138  1.0000
  H   H20       1.0  0.78041  0.24134  0.24862  1.0000
  H   H21       1.0  0.70419  0.73789  0.55074  1.0000
  H   H22       1.0  0.29581  0.26210  0.44926  1.0000
  H   H23       1.0  0.48864  0.72236  0.62362  1.0000
  H   H24       1.0  0.51137  0.27764  0.37638  1.0000
  C   C1        1.0  0.91321  0.32872  0.70091  1.0000
  C   C2        1.0  0.08679  0.67127  0.29909  1.0000
  C   C3        1.0  0.72118  0.40591  0.67999  1.0000
  C   C4        1.0  0.27881  0.59408  0.32001  1.0000
  C   C5        1.0  0.65510  0.50314  0.75136  1.0000
  C   C6        1.0  0.34490  0.49686  0.24864  1.0000
  C   C7        1.0  0.78654  0.52616  0.84487  1.0000
  C   C8        1.0  0.21347  0.47385  0.15513  1.0000
  C   C9        1.0  0.97808  0.45083  0.86679  1.0000
  C   C10       1.0  0.02193  0.54918  0.13321  1.0000
  C   C11       1.0  0.04185  0.35058  0.79583  1.0000
  C   C12       1.0  0.95816  0.64943  0.20417  1.0000
  C   C13       1.0  0.50008  0.20717  0.93415  1.0000
  C   C14       1.0  0.49992  0.79283  0.06585  1.0000
  C   C15       1.0  0.58137  0.22618  0.03411  1.0000
  C   C16       1.0  0.41863  0.77383  0.96589  1.0000
  C   C17       1.0  0.61156  0.10969  0.86801  1.0000
  C   C18       1.0  0.38844  0.89033  0.13199  1.0000
  C   C19       1.0  0.90974  0.95529  0.85159  1.0000
  C   C20       1.0  0.09026  0.04471  0.14841  1.0000
  S   S1        1.0  0.98340  0.21063  0.60138  1.0000
  S   S2        1.0  0.01659  0.78936  0.39863  1.0000
  N   N1        1.0  0.23047  0.27205  0.82025  1.0000
  N   N2        1.0  0.76954  0.72795  0.17975  1.0000
  N   N3        1.0  0.32393  0.28151  0.90923  1.0000
  N   N4        1.0  0.67608  0.71850  0.09077  1.0000
  N   N5        1.0  0.64869  0.24003  0.11637  1.0000
  N   N6        1.0  0.35131  0.75997  0.88362  1.0000
  O   O1        1.0  0.14126  0.11990  0.64223  1.0000
  O   O2        1.0  0.85872  0.88008  0.35778  1.0000
  O   O3        1.0  0.12805  0.30245  0.54580  1.0000
  O   O4        1.0  0.87195  0.69754  0.45420  1.0000
  O   O5        1.0  0.72452  0.13205  0.55046  1.0000
  O   O6        1.0  0.27547  0.86795  0.44955  1.0000
  O   O7        1.0  0.54460  0.08328  0.78049  1.0000
  O   O8        1.0  0.45541  0.91673  0.21951  1.0000
  O   O9        1.0  0.18828  0.76652  0.68377  1.0000
  O   O10       1.0  0.81172  0.23347  0.31623  1.0000
  O   O11       1.0  0.66715  0.77038  0.61666  1.0000
  O   O12       1.0  0.33285  0.22961  0.38334  1.0000
  O   O13       1.0  0.79446  0.05415  0.91329  1.0000
  O   O14       1.0  0.20554  0.94585  0.08670  1.0000
