data_image0
_chemical_formula_structural       CoH32C34N4O10
_chemical_formula_sum              "Co1 H32 C34 N4 O10"
_cell_length_a       8.79189
_cell_length_b       9.73293
_cell_length_c       9.71498
_cell_angle_alpha    93.8005
_cell_angle_beta     112.398
_cell_angle_gamma    103.79

_space_group_name_H-M_alt    "P 1"
_space_group_IT_number       1

loop_
  _space_group_symop_operation_xyz
  'x, y, z'

loop_
  _atom_site_type_symbol
  _atom_site_label
  _atom_site_symmetry_multiplicity
  _atom_site_fract_x
  _atom_site_fract_y
  _atom_site_fract_z
  _atom_site_occupancy
  Co  Co1       1.0  0.00000  0.50000  0.50000  1.0000
  H   H1        1.0  0.00598  0.48856  0.80017  1.0000
  H   H2        1.0  0.99403  0.51144  0.19983  1.0000
  H   H3        1.0  0.04474  0.66296  0.01824  1.0000
  H   H4        1.0  0.95526  0.33704  0.98176  1.0000
  H   H5        1.0  0.02167  0.98561  0.73239  1.0000
  H   H6        1.0  0.97832  0.01440  0.26761  1.0000
  H   H7        1.0  0.00069  0.80359  0.53302  1.0000
  H   H8        1.0  0.99931  0.19642  0.46698  1.0000
  H   H9        1.0  0.19130  0.01371  0.08248  1.0000
  H   H10       1.0  0.80869  0.98629  0.91752  1.0000
  H   H11       1.0  0.02896  0.89036  0.10972  1.0000
  H   H12       1.0  0.97103  0.10964  0.89027  1.0000
  H   H13       1.0  0.76210  0.95508  0.49120  1.0000
  H   H14       1.0  0.23790  0.04492  0.50879  1.0000
  H   H15       1.0  0.62484  0.48129  0.80143  1.0000
  H   H16       1.0  0.37516  0.51871  0.19857  1.0000
  H   H17       1.0  0.25767  0.40145  0.62322  1.0000
  H   H18       1.0  0.74233  0.59855  0.37679  1.0000
  H   H19       1.0  0.10080  0.34529  0.67532  1.0000
  H   H20       1.0  0.89921  0.65471  0.32469  1.0000
  H   H21       1.0  0.48138  0.62815  0.63559  1.0000
  H   H22       1.0  0.51862  0.37184  0.36441  1.0000
  H   H23       1.0  0.42219  0.84031  0.73683  1.0000
  H   H24       1.0  0.57781  0.15969  0.26318  1.0000
  H   H25       1.0  0.68392  0.75673  0.18687  1.0000
  H   H26       1.0  0.31608  0.24327  0.81313  1.0000
  H   H27       1.0  0.73042  0.54494  0.06594  1.0000
  H   H28       1.0  0.26959  0.45506  0.93406  1.0000
  H   H29       1.0  0.62010  0.98222  0.15755  1.0000
  H   H30       1.0  0.37990  0.01778  0.84245  1.0000
  H   H31       1.0  0.39926  0.89471  0.06829  1.0000
  H   H32       1.0  0.60074  0.10528  0.93170  1.0000
  C   C1        1.0  0.01615  0.60092  0.79171  1.0000
  C   C2        1.0  0.98385  0.39908  0.20829  1.0000
  C   C3        1.0  0.03351  0.69848  0.91157  1.0000
  C   C4        1.0  0.96648  0.30152  0.08842  1.0000
  C   C5        1.0  0.03745  0.84149  0.89618  1.0000
  C   C6        1.0  0.96254  0.15851  0.10381  1.0000
  C   C7        1.0  0.02426  0.87783  0.75575  1.0000
  C   C8        1.0  0.97573  0.12217  0.24425  1.0000
  C   C9        1.0  0.01080  0.77545  0.64195  1.0000
  C   C10       1.0  0.98919  0.22455  0.35804  1.0000
  C   C11       1.0  0.05576  0.94871  0.02469  1.0000
  C   C12       1.0  0.94423  0.05129  0.97531  1.0000
  C   C13       1.0  0.65492  0.11200  0.55785  1.0000
  C   C14       1.0  0.34509  0.88800  0.44215  1.0000
  C   C15       1.0  0.50566  0.13634  0.56301  1.0000
  C   C16       1.0  0.49435  0.86367  0.43699  1.0000
  C   C17       1.0  0.64736  0.97545  0.49588  1.0000
  C   C18       1.0  0.35265  0.02455  0.50412  1.0000
  C   C19       1.0  0.81540  0.23308  0.59737  1.0000
  C   C20       1.0  0.18460  0.76692  0.40264  1.0000
  C   C21       1.0  0.50699  0.27885  0.63427  1.0000
  C   C22       1.0  0.49300  0.72116  0.36573  1.0000
  C   C23       1.0  0.52569  0.66275  0.75655  1.0000
  C   C24       1.0  0.47431  0.33725  0.24345  1.0000
  C   C25       1.0  0.49332  0.78073  0.81584  1.0000
  C   C26       1.0  0.50669  0.21927  0.18417  1.0000
  C   C27       1.0  0.54865  0.81746  0.97257  1.0000
  C   C28       1.0  0.45135  0.18253  0.02743  1.0000
  C   C29       1.0  0.63802  0.73267  0.06454  1.0000
  C   C30       1.0  0.36199  0.26733  0.93546  1.0000
  C   C31       1.0  0.66614  0.61611  0.99947  1.0000
  C   C32       1.0  0.33387  0.38388  0.00053  1.0000
  C   C33       1.0  0.51346  0.93997  0.04579  1.0000
  C   C34       1.0  0.48654  0.06002  0.95421  1.0000
  N   N1        1.0  0.00765  0.63784  0.65767  1.0000
  N   N2        1.0  0.99235  0.36217  0.34233  1.0000
  N   N3        1.0  0.61052  0.58383  0.84849  1.0000
  N   N4        1.0  0.38949  0.41617  0.15151  1.0000
  O   O1        1.0  0.79561  0.33830  0.52904  1.0000
  O   O2        1.0  0.20440  0.66170  0.47097  1.0000
  O   O3        1.0  0.95960  0.21788  0.68573  1.0000
  O   O4        1.0  0.04041  0.78212  0.31428  1.0000
  O   O5        1.0  0.63860  0.34298  0.75599  1.0000
  O   O6        1.0  0.36140  0.65703  0.24400  1.0000
  O   O7        1.0  0.37675  0.32272  0.57108  1.0000
  O   O8        1.0  0.62324  0.67728  0.42891  1.0000
  O   O9        1.0  0.17597  0.43456  0.65784  1.0000
  O   O10       1.0  0.82404  0.56544  0.34216  1.0000
