data_image0
_chemical_formula_structural       Cu3H20C16N2O20
_chemical_formula_sum              "Cu3 H20 C16 N2 O20"
_cell_length_a       7.27178
_cell_length_b       8.03292
_cell_length_c       10.8428
_cell_angle_alpha    77.8603
_cell_angle_beta     85.7634
_cell_angle_gamma    75.6994

_space_group_name_H-M_alt    "P 1"
_space_group_IT_number       1

loop_
  _space_group_symop_operation_xyz
  'x, y, z'

loop_
  _atom_site_type_symbol
  _atom_site_label
  _atom_site_symmetry_multiplicity
  _atom_site_fract_x
  _atom_site_fract_y
  _atom_site_fract_z
  _atom_site_occupancy
  Cu  Cu1       1.0  0.50000  0.50000  0.50000  1.0000
  Cu  Cu2       1.0  0.59697  0.13076  0.68099  1.0000
  Cu  Cu3       1.0  0.40303  0.86924  0.31901  1.0000
  H   H1        1.0  0.42114  0.31016  0.02063  1.0000
  H   H2        1.0  0.57886  0.68984  0.97937  1.0000
  H   H3        1.0  0.22910  0.43137  0.19397  1.0000
  H   H4        1.0  0.77090  0.56864  0.80603  1.0000
  H   H5        1.0  0.98348  0.71621  0.14102  1.0000
  H   H6        1.0  0.01653  0.28380  0.85898  1.0000
  H   H7        1.0  0.10888  0.71376  0.49552  1.0000
  H   H8        1.0  0.89111  0.28624  0.50448  1.0000
  H   H9        1.0  0.08490  0.64617  0.37333  1.0000
  H   H10       1.0  0.91509  0.35384  0.62667  1.0000
  H   H11       1.0  0.41343  0.22493  0.48395  1.0000
  H   H12       1.0  0.58657  0.77506  0.51605  1.0000
  H   H13       1.0  0.39414  0.91085  0.75937  1.0000
  H   H14       1.0  0.60587  0.08914  0.24063  1.0000
  H   H15       1.0  0.42802  0.98249  0.87800  1.0000
  H   H16       1.0  0.57199  0.01750  0.12200  1.0000
  H   H17       1.0  0.73700  0.01826  0.48252  1.0000
  H   H18       1.0  0.26300  0.98174  0.51748  1.0000
  H   H19       1.0  0.82952  0.87857  0.60379  1.0000
  H   H20       1.0  0.17048  0.12144  0.39621  1.0000
  C   C1        1.0  0.41977  0.44607  0.77363  1.0000
  C   C2        1.0  0.58022  0.55392  0.22637  1.0000
  C   C3        1.0  0.29904  0.52665  0.87430  1.0000
  C   C4        1.0  0.70096  0.47334  0.12570  1.0000
  C   C5        1.0  0.31904  0.43602  0.99955  1.0000
  C   C6        1.0  0.68096  0.56398  0.00046  1.0000
  C   C7        1.0  0.21051  0.50386  0.09702  1.0000
  C   C8        1.0  0.78949  0.49614  0.90298  1.0000
  C   C9        1.0  0.07508  0.66075  0.06865  1.0000
  C   C10       1.0  0.92493  0.33926  0.93135  1.0000
  C   C11       1.0  0.05271  0.74950  0.94282  1.0000
  C   C12       1.0  0.94730  0.25050  0.05718  1.0000
  C   C13       1.0  0.16601  0.68865  0.84323  1.0000
  C   C14       1.0  0.83399  0.31135  0.15677  1.0000
  C   C15       1.0  0.14007  0.78420  0.70677  1.0000
  C   C16       1.0  0.85994  0.21580  0.29323  1.0000
  N   N1        1.0  0.89875  0.90658  0.91732  1.0000
  N   N2        1.0  0.10125  0.09343  0.08268  1.0000
  O   O1        1.0  0.43887  0.55009  0.67048  1.0000
  O   O2        1.0  0.56112  0.44991  0.32952  1.0000
  O   O3        1.0  0.49318  0.28168  0.80150  1.0000
  O   O4        1.0  0.50681  0.71832  0.19850  1.0000
  O   O5        1.0  0.23151  0.90052  0.66595  1.0000
  O   O6        1.0  0.76849  0.09948  0.33406  1.0000
  O   O7        1.0  0.02761  0.73621  0.64465  1.0000
  O   O8        1.0  0.97239  0.26379  0.35535  1.0000
  O   O9        1.0  0.88068  0.99360  0.80721  1.0000
  O   O10       1.0  0.11932  0.00640  0.19278  1.0000
  O   O11       1.0  0.79158  0.94680  0.00682  1.0000
  O   O12       1.0  0.20843  0.05320  0.99318  1.0000
  O   O13       1.0  0.17229  0.69048  0.41407  1.0000
  O   O14       1.0  0.82770  0.30953  0.58592  1.0000
  O   O15       1.0  0.42225  0.28401  0.55305  1.0000
  O   O16       1.0  0.57776  0.71598  0.44696  1.0000
  O   O17       1.0  0.49651  0.92466  0.81166  1.0000
  O   O18       1.0  0.50350  0.07533  0.18834  1.0000
  O   O19       1.0  0.70661  0.96069  0.57170  1.0000
  O   O20       1.0  0.29339  0.03931  0.42829  1.0000
