data_image0
_chemical_formula_structural       Zn4H38C50N8O16
_chemical_formula_sum              "Zn4 H38 C50 N8 O16"
_cell_length_a       12.7586
_cell_length_b       12.6737
_cell_length_c       13.0556
_cell_angle_alpha    68.3673
_cell_angle_beta     66.0966
_cell_angle_gamma    75.0607

_space_group_name_H-M_alt    "P 1"
_space_group_IT_number       1

loop_
  _space_group_symop_operation_xyz
  'x, y, z'

loop_
  _atom_site_type_symbol
  _atom_site_label
  _atom_site_symmetry_multiplicity
  _atom_site_fract_x
  _atom_site_fract_y
  _atom_site_fract_z
  _atom_site_occupancy
  Zn  Zn1       1.0  0.22918  0.29035  0.40490  1.0000
  Zn  Zn2       1.0  0.77082  0.70965  0.59510  1.0000
  Zn  Zn3       1.0  0.78102  0.82259  0.04340  1.0000
  Zn  Zn4       1.0  0.21898  0.17741  0.95660  1.0000
  H   H1        1.0  0.58849  0.99219  0.39065  1.0000
  H   H2        1.0  0.41151  0.00781  0.60935  1.0000
  H   H3        1.0  0.74004  0.87631  0.26621  1.0000
  H   H4        1.0  0.25996  0.12370  0.73379  1.0000
  H   H5        1.0  0.58651  0.99965  0.01190  1.0000
  H   H6        1.0  0.41348  0.00035  0.98810  1.0000
  H   H7        1.0  0.42959  0.12452  0.12387  1.0000
  H   H8        1.0  0.57041  0.87548  0.87613  1.0000
  H   H9        1.0  0.06844  0.46588  0.06754  1.0000
  H   H10       1.0  0.93157  0.53412  0.93246  1.0000
  H   H11       1.0  0.18698  0.32499  0.18506  1.0000
  H   H12       1.0  0.81302  0.67501  0.81494  1.0000
  H   H13       1.0  0.08873  0.51644  0.41478  1.0000
  H   H14       1.0  0.91127  0.48356  0.58522  1.0000
  H   H15       1.0  0.96593  0.66471  0.30848  1.0000
  H   H16       1.0  0.03407  0.33529  0.69152  1.0000
  H   H17       1.0  0.03843  0.14545  0.78954  1.0000
  H   H18       1.0  0.96157  0.85455  0.21046  1.0000
  H   H19       1.0  0.91520  0.01787  0.97447  1.0000
  H   H20       1.0  0.08480  0.98213  0.02553  1.0000
  H   H21       1.0  0.84620  0.85470  0.79005  1.0000
  H   H22       1.0  0.15380  0.14530  0.20995  1.0000
  H   H23       1.0  0.96370  0.97517  0.59802  1.0000
  H   H24       1.0  0.03630  0.02483  0.40198  1.0000
  H   H25       1.0  0.24043  0.31260  0.61990  1.0000
  H   H26       1.0  0.75957  0.68740  0.38010  1.0000
  H   H27       1.0  0.36388  0.39124  0.67052  1.0000
  H   H28       1.0  0.63612  0.60875  0.32949  1.0000
  H   H29       1.0  0.53292  0.54504  0.29565  1.0000
  H   H30       1.0  0.46708  0.45496  0.70436  1.0000
  H   H31       1.0  0.40185  0.45704  0.26290  1.0000
  H   H32       1.0  0.59814  0.54297  0.73710  1.0000
  H   H33       1.0  0.56555  0.55078  0.07044  1.0000
  H   H34       1.0  0.43445  0.44922  0.92956  1.0000
  H   H35       1.0  0.58395  0.66323  0.93271  1.0000
  H   H36       1.0  0.41605  0.33677  0.06729  1.0000
  H   H37       1.0  0.47055  0.68101  0.06322  1.0000
  H   H38       1.0  0.52945  0.31899  0.93677  1.0000
  C   C1        1.0  0.40538  0.13927  0.33718  1.0000
  C   C2        1.0  0.59462  0.86073  0.66282  1.0000
  C   C3        1.0  0.49857  0.06861  0.26511  1.0000
  C   C4        1.0  0.50142  0.93139  0.73489  1.0000
  C   C5        1.0  0.58636  0.99808  0.30603  1.0000
  C   C6        1.0  0.41364  0.00192  0.69397  1.0000
  C   C7        1.0  0.66983  0.93244  0.23812  1.0000
  C   C8        1.0  0.33017  0.06756  0.76188  1.0000
  C   C9        1.0  0.58359  0.00182  0.09580  1.0000
  C   C10       1.0  0.41641  0.99817  0.90420  1.0000
  C   C11       1.0  0.49755  0.07085  0.15752  1.0000
  C   C12       1.0  0.50245  0.92916  0.84248  1.0000
  C   C13       1.0  0.93597  0.66300  0.11009  1.0000
  C   C14       1.0  0.06403  0.33700  0.88991  1.0000
  C   C15       1.0  0.00867  0.57721  0.17822  1.0000
  C   C16       1.0  0.99133  0.42279  0.82178  1.0000
  C   C17       1.0  0.07153  0.48060  0.14340  1.0000
  C   C18       1.0  0.92847  0.51940  0.85660  1.0000
  C   C19       1.0  0.13615  0.40130  0.20912  1.0000
  C   C20       1.0  0.86385  0.59870  0.79088  1.0000
  C   C21       1.0  0.08105  0.50849  0.33774  1.0000
  C   C22       1.0  0.91895  0.49150  0.66226  1.0000
  C   C23       1.0  0.01384  0.59123  0.27750  1.0000
  C   C24       1.0  0.98616  0.40877  0.72250  1.0000
  C   C25       1.0  0.08191  0.14581  0.56277  1.0000
  C   C26       1.0  0.91810  0.85419  0.43722  1.0000
  C   C27       1.0  0.01054  0.07105  0.67806  1.0000
  C   C28       1.0  0.98947  0.92894  0.32194  1.0000
  C   C29       1.0  0.99697  0.08241  0.78570  1.0000
  C   C30       1.0  0.00303  0.91759  0.21430  1.0000
  C   C31       1.0  0.92949  0.01113  0.88870  1.0000
  C   C32       1.0  0.07051  0.98887  0.11129  1.0000
  C   C33       1.0  0.89070  0.91973  0.78572  1.0000
  C   C34       1.0  0.10930  0.08027  0.21427  1.0000
  C   C35       1.0  0.95625  0.98789  0.67885  1.0000
  C   C36       1.0  0.04375  0.01210  0.32115  1.0000
  C   C37       1.0  0.30625  0.36479  0.55100  1.0000
  C   C38       1.0  0.69375  0.63520  0.44901  1.0000
  C   C39       1.0  0.37632  0.40991  0.57827  1.0000
  C   C40       1.0  0.62367  0.59009  0.42173  1.0000
  C   C41       1.0  0.46117  0.47589  0.48739  1.0000
  C   C42       1.0  0.53883  0.52411  0.51262  1.0000
  C   C43       1.0  0.46982  0.49410  0.37138  1.0000
  C   C44       1.0  0.53018  0.50590  0.62862  1.0000
  C   C45       1.0  0.39635  0.44575  0.35191  1.0000
  C   C46       1.0  0.60365  0.55425  0.64809  1.0000
  C   C47       1.0  0.56067  0.64350  0.02775  1.0000
  C   C48       1.0  0.43933  0.35650  0.97224  1.0000
  C   C49       1.0  0.63697  0.69399  0.05680  1.0000
  C   C50       1.0  0.36304  0.30601  0.94319  1.0000
  N   N1        1.0  0.66824  0.93342  0.13508  1.0000
  N   N2        1.0  0.33176  0.06658  0.86492  1.0000
  N   N3        1.0  0.14047  0.41470  0.30509  1.0000
  N   N4        1.0  0.85954  0.58530  0.69491  1.0000
  N   N5        1.0  0.87731  0.93095  0.88920  1.0000
  N   N6        1.0  0.12269  0.06905  0.11080  1.0000
  N   N7        1.0  0.31585  0.38175  0.43965  1.0000
  N   N8        1.0  0.68415  0.61825  0.56035  1.0000
  O   O1        1.0  0.34664  0.22320  0.28116  1.0000
  O   O2        1.0  0.65336  0.77680  0.71884  1.0000
  O   O3        1.0  0.38822  0.11554  0.44394  1.0000
  O   O4        1.0  0.61177  0.88446  0.55606  1.0000
  O   O5        1.0  0.93612  0.65149  0.01894  1.0000
  O   O6        1.0  0.06388  0.34851  0.98105  1.0000
  O   O7        1.0  0.87416  0.74656  0.15189  1.0000
  O   O8        1.0  0.12584  0.25345  0.84811  1.0000
  O   O9        1.0  0.09741  0.12990  0.46855  1.0000
  O   O10       1.0  0.90260  0.87009  0.53145  1.0000
  O   O11       1.0  0.12465  0.22480  0.56934  1.0000
  O   O12       1.0  0.87535  0.77520  0.43066  1.0000
  O   O13       1.0  0.64568  0.65718  0.15659  1.0000
  O   O14       1.0  0.35432  0.34282  0.84341  1.0000
  O   O15       1.0  0.69023  0.77809  0.97442  1.0000
  O   O16       1.0  0.30976  0.22191  0.02558  1.0000
