data_image0
_chemical_formula_structural       Cu2Ni2H56C32N16
_chemical_formula_sum              "Cu2 Ni2 H56 C32 N16"
_cell_length_a       9.0379
_cell_length_b       11.4588
_cell_length_c       11.2751
_cell_angle_alpha    112.115
_cell_angle_beta     90.0139
_cell_angle_gamma    89.961

_space_group_name_H-M_alt    "P 1"
_space_group_IT_number       1

loop_
  _space_group_symop_operation_xyz
  'x, y, z'

loop_
  _atom_site_type_symbol
  _atom_site_label
  _atom_site_symmetry_multiplicity
  _atom_site_fract_x
  _atom_site_fract_y
  _atom_site_fract_z
  _atom_site_occupancy
  Cu  Cu1       1.0  0.38617  0.96696  0.29500  1.0000
  Cu  Cu2       1.0  0.88594  0.03310  0.70505  1.0000
  Ni  Ni1       1.0  0.88340  0.89579  0.11829  1.0000
  Ni  Ni2       1.0  0.38360  0.10432  0.88173  1.0000
  H   H1        1.0  0.24313  0.22833  0.46836  1.0000
  H   H2        1.0  0.74333  0.77164  0.53163  1.0000
  H   H3        1.0  0.28255  0.06071  0.52543  1.0000
  H   H4        1.0  0.78255  0.93958  0.47493  1.0000
  H   H5        1.0  0.46504  0.07103  0.52836  1.0000
  H   H6        1.0  0.96517  0.92935  0.47237  1.0000
  H   H7        1.0  0.51600  0.28999  0.64277  1.0000
  H   H8        1.0  0.01605  0.70981  0.35707  1.0000
  H   H9        1.0  0.33047  0.30268  0.69404  1.0000
  H   H10       1.0  0.83039  0.69735  0.30590  1.0000
  H   H11       1.0  0.48410  0.11847  0.19091  1.0000
  H   H12       1.0  0.98417  0.88201  0.80914  1.0000
  H   H13       1.0  0.30909  0.15046  0.22912  1.0000
  H   H14       1.0  0.80902  0.85025  0.77069  1.0000
  H   H15       1.0  0.28365  0.47093  0.60809  1.0000
  H   H16       1.0  0.78369  0.52910  0.39188  1.0000
  H   H17       1.0  0.43677  0.51384  0.71285  1.0000
  H   H18       1.0  0.93685  0.48612  0.28715  1.0000
  H   H19       1.0  0.31014  0.86567  0.05123  1.0000
  H   H20       1.0  0.80994  0.13402  0.94834  1.0000
  H   H21       1.0  0.48639  0.83969  0.06775  1.0000
  H   H22       1.0  0.98634  0.15964  0.93145  1.0000
  H   H23       1.0  0.61149  0.44145  0.53024  1.0000
  H   H24       1.0  0.11157  0.55821  0.46966  1.0000
  H   H25       1.0  0.48676  0.55201  0.51210  1.0000
  H   H26       1.0  0.98671  0.44787  0.48785  1.0000
  H   H27       1.0  0.42706  0.81811  0.41775  1.0000
  H   H28       1.0  0.92719  0.18124  0.58233  1.0000
  H   H29       1.0  0.25645  0.80552  0.35909  1.0000
  H   H30       1.0  0.75640  0.19431  0.64117  1.0000
  H   H31       1.0  0.33519  0.37733  0.35743  1.0000
  H   H32       1.0  0.83530  0.62263  0.64260  1.0000
  H   H33       1.0  0.52119  0.36290  0.30449  1.0000
  H   H34       1.0  0.02136  0.63683  0.69550  1.0000
  H   H35       1.0  0.57016  0.20294  0.39778  1.0000
  H   H36       1.0  0.07034  0.79668  0.60213  1.0000
  H   H37       1.0  0.22301  0.71621  0.11682  1.0000
  H   H38       1.0  0.72291  0.28415  0.88332  1.0000
  H   H39       1.0  0.51003  0.61835  0.96855  1.0000
  H   H40       1.0  0.01000  0.38166  0.03159  1.0000
  H   H41       1.0  0.33360  0.62157  0.90305  1.0000
  H   H42       1.0  0.83347  0.37865  0.09713  1.0000
  H   H43       1.0  0.40013  0.40463  0.90224  1.0000
  H   H44       1.0  0.90007  0.59543  0.09769  1.0000
  H   H45       1.0  0.23687  0.46589  0.98859  1.0000
  H   H46       1.0  0.73675  0.53439  0.01143  1.0000
  H   H47       1.0  0.39183  0.37534  0.11147  1.0000
  H   H48       1.0  0.89171  0.62466  0.88850  1.0000
  H   H49       1.0  0.54519  0.46671  0.10296  1.0000
  H   H50       1.0  0.04512  0.53318  0.89704  1.0000
  H   H51       1.0  0.42198  0.56537  0.31522  1.0000
  H   H52       1.0  0.92189  0.43456  0.68472  1.0000
  H   H53       1.0  0.25111  0.56888  0.23977  1.0000
  H   H54       1.0  0.75096  0.43125  0.76021  1.0000
  H   H55       1.0  0.53395  0.70827  0.21882  1.0000
  H   H56       1.0  0.03389  0.29179  0.78142  1.0000
  C   C1        1.0  0.03638  0.85961  0.00233  1.0000
  C   C2        1.0  0.53663  0.14053  0.99765  1.0000
  C   C3        1.0  0.74629  0.83861  0.98727  1.0000
  C   C4        1.0  0.24636  0.16147  0.01268  1.0000
  C   C5        1.0  0.73788  0.92997  0.23954  1.0000
  C   C6        1.0  0.23812  0.06994  0.76036  1.0000
  C   C7        1.0  0.01590  0.94562  0.25084  1.0000
  C   C8        1.0  0.51614  0.05450  0.74927  1.0000
  C   C9        1.0  0.35974  0.21419  0.48931  1.0000
  C   C10       1.0  0.85991  0.78589  0.51075  1.0000
  C   C11       1.0  0.40306  0.31195  0.61987  1.0000
  C   C12       1.0  0.90308  0.68798  0.38010  1.0000
  C   C13       1.0  0.39904  0.44560  0.61999  1.0000
  C   C14       1.0  0.89908  0.55429  0.37999  1.0000
  C   C15       1.0  0.49417  0.45600  0.51193  1.0000
  C   C16       1.0  0.99423  0.54380  0.48792  1.0000
  C   C17       1.0  0.44898  0.35860  0.38117  1.0000
  C   C18       1.0  0.94913  0.64129  0.61880  1.0000
  C   C19       1.0  0.45487  0.22592  0.38230  1.0000
  C   C20       1.0  0.95500  0.77407  0.61775  1.0000
  C   C21       1.0  0.34463  0.71661  0.10715  1.0000
  C   C22       1.0  0.84454  0.28341  0.89289  1.0000
  C   C23       1.0  0.39072  0.60920  0.98359  1.0000
  C   C24       1.0  0.89063  0.39090  0.01650  1.0000
  C   C25       1.0  0.35764  0.48005  0.98880  1.0000
  C   C26       1.0  0.85753  0.52012  0.01118  1.0000
  C   C27       1.0  0.42329  0.46641  0.10804  1.0000
  C   C28       1.0  0.92322  0.53364  0.89199  1.0000
  C   C29       1.0  0.37236  0.57378  0.22973  1.0000
  C   C30       1.0  0.87228  0.42626  0.77031  1.0000
  C   C31       1.0  0.41263  0.70096  0.22461  1.0000
  C   C32       1.0  0.91254  0.29901  0.77546  1.0000
  N   N1        1.0  0.13442  0.83619  0.92816  1.0000
  N   N2        1.0  0.63478  0.16390  0.07174  1.0000
  N   N3        1.0  0.66082  0.79938  0.90257  1.0000
  N   N4        1.0  0.16083  0.20059  0.09735  1.0000
  N   N5        1.0  0.64950  0.95097  0.32183  1.0000
  N   N6        1.0  0.14990  0.04874  0.67795  1.0000
  N   N7        1.0  0.09549  0.97325  0.33996  1.0000
  N   N8        1.0  0.59578  0.02690  0.66019  1.0000
  N   N9        1.0  0.37181  0.08328  0.48173  1.0000
  N   N10       1.0  0.87177  0.91683  0.51847  1.0000
  N   N11       1.0  0.40719  0.12651  0.26090  1.0000
  N   N12       1.0  0.90735  0.87370  0.73908  1.0000
  N   N13       1.0  0.38404  0.84292  0.10898  1.0000
  N   N14       1.0  0.88382  0.15689  0.89078  1.0000
  N   N15       1.0  0.36625  0.81020  0.33859  1.0000
  N   N16       1.0  0.86621  0.18975  0.66150  1.0000
