data_image0
_chemical_formula_structural       Zn2H28C32N8O8
_chemical_formula_sum              "Zn2 H28 C32 N8 O8"
_cell_length_a       9.10941
_cell_length_b       9.88803
_cell_length_c       9.88789
_cell_angle_alpha    109.392
_cell_angle_beta     97.6341
_cell_angle_gamma    97.6346

_space_group_name_H-M_alt    "P 1"
_space_group_IT_number       1

loop_
  _space_group_symop_operation_xyz
  'x, y, z'

loop_
  _atom_site_type_symbol
  _atom_site_label
  _atom_site_symmetry_multiplicity
  _atom_site_fract_x
  _atom_site_fract_y
  _atom_site_fract_z
  _atom_site_occupancy
  Zn  Zn1       1.0  0.25000  0.40283  0.59716  1.0000
  Zn  Zn2       1.0  0.75000  0.59716  0.40284  1.0000
  H   H1        1.0  0.19340  0.84320  0.52818  1.0000
  H   H2        1.0  0.30660  0.47181  0.15680  1.0000
  H   H3        1.0  0.80660  0.15680  0.47183  1.0000
  H   H4        1.0  0.69340  0.52818  0.84320  1.0000
  H   H5        1.0  0.51874  0.23619  0.69265  1.0000
  H   H6        1.0  0.98125  0.30734  0.76381  1.0000
  H   H7        1.0  0.48127  0.76381  0.30735  1.0000
  H   H8        1.0  0.01873  0.69266  0.23619  1.0000
  H   H9        1.0  0.60428  0.97910  0.67291  1.0000
  H   H10       1.0  0.89572  0.32709  0.02090  1.0000
  H   H11       1.0  0.39572  0.02090  0.32710  1.0000
  H   H12       1.0  0.10428  0.67291  0.97910  1.0000
  H   H13       1.0  0.45662  0.82727  0.62847  1.0000
  H   H14       1.0  0.04338  0.37154  0.17275  1.0000
  H   H15       1.0  0.54339  0.17274  0.37154  1.0000
  H   H16       1.0  0.95662  0.62847  0.82726  1.0000
  H   H17       1.0  0.07855  0.06198  0.44981  1.0000
  H   H18       1.0  0.42145  0.55018  0.93802  1.0000
  H   H19       1.0  0.92145  0.93803  0.55020  1.0000
  H   H20       1.0  0.57855  0.44981  0.06197  1.0000
  H   H21       1.0  0.55097  0.76651  0.83579  1.0000
  H   H22       1.0  0.94902  0.16421  0.23349  1.0000
  H   H23       1.0  0.44902  0.23348  0.16421  1.0000
  H   H24       1.0  0.05098  0.83580  0.76651  1.0000
  H   H25       1.0  0.43105  0.18852  0.90206  1.0000
  H   H26       1.0  0.06895  0.09794  0.81148  1.0000
  H   H27       1.0  0.56894  0.81147  0.09794  1.0000
  H   H28       1.0  0.93107  0.90206  0.18853  1.0000
  C   C1        1.0  0.24341  0.95537  0.54647  1.0000
  C   C2        1.0  0.25659  0.45352  0.04463  1.0000
  C   C3        1.0  0.75659  0.04463  0.45353  1.0000
  C   C4        1.0  0.74341  0.54648  0.95537  1.0000
  C   C5        1.0  0.54588  0.52832  0.58014  1.0000
  C   C6        1.0  0.95412  0.41986  0.47168  1.0000
  C   C7        1.0  0.45411  0.47168  0.41984  1.0000
  C   C8        1.0  0.04590  0.58015  0.52831  1.0000
  C   C9        1.0  0.41400  0.16016  0.63612  1.0000
  C   C10       1.0  0.08599  0.36388  0.83985  1.0000
  C   C11       1.0  0.58600  0.83985  0.36389  1.0000
  C   C12       1.0  0.91400  0.63612  0.16015  1.0000
  C   C13       1.0  0.49027  0.94483  0.68995  1.0000
  C   C14       1.0  0.00973  0.31004  0.05517  1.0000
  C   C15       1.0  0.50974  0.05516  0.31003  1.0000
  C   C16       1.0  0.99027  0.68997  0.94483  1.0000
  C   C17       1.0  0.49134  0.97465  0.85028  1.0000
  C   C18       1.0  0.00866  0.14972  0.02536  1.0000
  C   C19       1.0  0.50864  0.02534  0.14972  1.0000
  C   C20       1.0  0.99136  0.85028  0.97466  1.0000
  C   C21       1.0  0.18693  0.06459  0.51157  1.0000
  C   C22       1.0  0.31307  0.48842  0.93540  1.0000
  C   C23       1.0  0.81307  0.93541  0.48844  1.0000
  C   C24       1.0  0.68693  0.51157  0.06459  1.0000
  C   C25       1.0  0.52907  0.86944  0.90758  1.0000
  C   C26       1.0  0.97093  0.09242  0.13057  1.0000
  C   C27       1.0  0.47091  0.13056  0.09241  1.0000
  C   C28       1.0  0.02909  0.90759  0.86944  1.0000
  C   C29       1.0  0.46208  0.10507  0.94397  1.0000
  C   C30       1.0  0.03791  0.05603  0.89493  1.0000
  C   C31       1.0  0.53790  0.89493  0.05603  1.0000
  C   C32       1.0  0.96210  0.94397  0.10507  1.0000
  N   N1        1.0  0.29387  0.19151  0.56867  1.0000
  N   N2        1.0  0.20613  0.43133  0.80849  1.0000
  N   N3        1.0  0.70614  0.80850  0.43134  1.0000
  N   N4        1.0  0.79387  0.56867  0.19151  1.0000
  N   N5        1.0  0.38794  0.01779  0.62477  1.0000
  N   N6        1.0  0.11205  0.37523  0.98221  1.0000
  N   N7        1.0  0.61206  0.98221  0.37524  1.0000
  N   N8        1.0  0.88794  0.62477  0.01779  1.0000
  O   O1        1.0  0.47892  0.50193  0.67640  1.0000
  O   O2        1.0  0.02107  0.32360  0.49807  1.0000
  O   O3        1.0  0.52107  0.49807  0.32361  1.0000
  O   O4        1.0  0.97894  0.67639  0.50192  1.0000
  O   O5        1.0  0.67958  0.59637  0.60452  1.0000
  O   O6        1.0  0.82041  0.39548  0.40365  1.0000
  O   O7        1.0  0.32042  0.40364  0.39547  1.0000
  O   O8        1.0  0.17960  0.60451  0.59633  1.0000
