data_image0
_chemical_formula_structural       Zn2H22C36N6O12
_chemical_formula_sum              "Zn2 H22 C36 N6 O12"
_cell_length_a       6.88185
_cell_length_b       9.2696
_cell_length_c       13.4781
_cell_angle_alpha    100.885
_cell_angle_beta     99.5596
_cell_angle_gamma    94.2528

_space_group_name_H-M_alt    "P 1"
_space_group_IT_number       1

loop_
  _space_group_symop_operation_xyz
  'x, y, z'

loop_
  _atom_site_type_symbol
  _atom_site_label
  _atom_site_symmetry_multiplicity
  _atom_site_fract_x
  _atom_site_fract_y
  _atom_site_fract_z
  _atom_site_occupancy
  Zn  Zn1       1.0  0.88415  0.21608  0.70279  1.0000
  Zn  Zn2       1.0  0.11585  0.78392  0.29721  1.0000
  H   H1        1.0  0.12509  0.67837  0.87804  1.0000
  H   H2        1.0  0.87490  0.32162  0.12197  1.0000
  H   H3        1.0  0.71451  0.78107  0.05855  1.0000
  H   H4        1.0  0.28549  0.21892  0.94145  1.0000
  H   H5        1.0  0.82390  0.56662  0.94610  1.0000
  H   H6        1.0  0.17610  0.43338  0.05390  1.0000
  H   H7        1.0  0.88005  0.96762  0.83110  1.0000
  H   H8        1.0  0.11994  0.03238  0.16890  1.0000
  H   H9        1.0  0.78780  0.69424  0.78718  1.0000
  H   H10       1.0  0.21219  0.30576  0.21282  1.0000
  H   H11       1.0  0.66584  0.57042  0.60396  1.0000
  H   H12       1.0  0.33417  0.42958  0.39604  1.0000
  H   H13       1.0  0.64875  0.72276  0.46811  1.0000
  H   H14       1.0  0.35126  0.27725  0.53189  1.0000
  H   H15       1.0  0.65778  0.86073  0.36468  1.0000
  H   H16       1.0  0.34223  0.13927  0.63532  1.0000
  H   H17       1.0  0.67409  0.04216  0.25225  1.0000
  H   H18       1.0  0.32592  0.95784  0.74774  1.0000
  H   H19       1.0  0.78932  0.31194  0.33327  1.0000
  H   H20       1.0  0.21068  0.68806  0.66673  1.0000
  H   H21       1.0  0.87417  0.38276  0.52572  1.0000
  H   H22       1.0  0.12583  0.61724  0.47427  1.0000
  C   C1        1.0  0.53679  0.50247  0.84965  1.0000
  C   C2        1.0  0.46321  0.49753  0.15035  1.0000
  C   C3        1.0  0.33720  0.53111  0.83163  1.0000
  C   C4        1.0  0.66280  0.46890  0.16837  1.0000
  C   C5        1.0  0.27774  0.65302  0.89197  1.0000
  C   C6        1.0  0.72226  0.34698  0.10803  1.0000
  C   C7        1.0  0.41531  0.74204  0.97157  1.0000
  C   C8        1.0  0.58469  0.25796  0.02843  1.0000
  C   C9        1.0  0.61188  0.71263  0.99387  1.0000
  C   C10       1.0  0.38812  0.28737  0.00613  1.0000
  C   C11       1.0  0.67085  0.59208  0.93179  1.0000
  C   C12       1.0  0.32915  0.40792  0.06821  1.0000
  C   C13       1.0  0.61067  0.38774  0.77438  1.0000
  C   C14       1.0  0.38932  0.61225  0.22562  1.0000
  C   C15       1.0  0.17730  0.42889  0.75581  1.0000
  C   C16       1.0  0.82270  0.57111  0.24419  1.0000
  C   C17       1.0  0.83065  0.90913  0.75163  1.0000
  C   C18       1.0  0.16935  0.09087  0.24837  1.0000
  C   C19       1.0  0.77777  0.75723  0.72663  1.0000
  C   C20       1.0  0.22223  0.24277  0.27336  1.0000
  C   C21       1.0  0.71087  0.68902  0.62402  1.0000
  C   C22       1.0  0.28914  0.31098  0.37598  1.0000
  C   C23       1.0  0.70158  0.77396  0.54871  1.0000
  C   C24       1.0  0.29842  0.22604  0.45128  1.0000
  C   C25       1.0  0.75829  0.92614  0.57878  1.0000
  C   C26       1.0  0.24171  0.07386  0.42122  1.0000
  C   C27       1.0  0.75684  0.02601  0.50485  1.0000
  C   C28       1.0  0.24316  0.97399  0.49515  1.0000
  C   C29       1.0  0.70413  0.97703  0.39838  1.0000
  C   C30       1.0  0.29588  0.02297  0.60162  1.0000
  C   C31       1.0  0.71384  0.07949  0.33526  1.0000
  C   C32       1.0  0.28617  0.92051  0.66474  1.0000
  C   C33       1.0  0.77447  0.22800  0.37913  1.0000
  C   C34       1.0  0.22554  0.77200  0.62087  1.0000
  C   C35       1.0  0.82330  0.26927  0.48579  1.0000
  C   C36       1.0  0.17670  0.73073  0.51421  1.0000
  N   N1        1.0  0.34825  0.86933  0.03344  1.0000
  N   N2        1.0  0.65175  0.13066  0.96657  1.0000
  N   N3        1.0  0.82051  0.99109  0.67919  1.0000
  N   N4        1.0  0.17948  0.00891  0.32081  1.0000
  N   N5        1.0  0.81412  0.17084  0.54649  1.0000
  N   N6        1.0  0.18588  0.82916  0.45350  1.0000
  O   O1        1.0  0.75676  0.32223  0.81189  1.0000
  O   O2        1.0  0.24323  0.67777  0.18811  1.0000
  O   O3        1.0  0.53564  0.36863  0.68099  1.0000
  O   O4        1.0  0.46436  0.63137  0.31901  1.0000
  O   O5        1.0  0.16458  0.29264  0.76664  1.0000
  O   O6        1.0  0.83542  0.70736  0.23336  1.0000
  O   O7        1.0  0.05574  0.47994  0.69512  1.0000
  O   O8        1.0  0.94426  0.52006  0.30488  1.0000
  O   O9        1.0  0.47265  0.95133  0.10232  1.0000
  O   O10       1.0  0.52735  0.04866  0.89768  1.0000
  O   O11       1.0  0.17084  0.89013  0.01359  1.0000
  O   O12       1.0  0.82916  0.10987  0.98642  1.0000
