data_image0
_chemical_formula_structural       Zn2H34C44N10O12
_chemical_formula_sum              "Zn2 H34 C44 N10 O12"
_cell_length_a       8.60099
_cell_length_b       9.4043
_cell_length_c       14.7685
_cell_angle_alpha    83.7807
_cell_angle_beta     82.2798
_cell_angle_gamma    66.8146

_space_group_name_H-M_alt    "P 1"
_space_group_IT_number       1

loop_
  _space_group_symop_operation_xyz
  'x, y, z'

loop_
  _atom_site_type_symbol
  _atom_site_label
  _atom_site_symmetry_multiplicity
  _atom_site_fract_x
  _atom_site_fract_y
  _atom_site_fract_z
  _atom_site_occupancy
  Zn  Zn1       1.0  0.20066  0.25158  0.58548  1.0000
  Zn  Zn2       1.0  0.79934  0.74841  0.41451  1.0000
  H   H1        1.0  0.20115  0.55763  0.11673  1.0000
  H   H2        1.0  0.79884  0.44237  0.88328  1.0000
  H   H3        1.0  0.68092  0.18715  0.16295  1.0000
  H   H4        1.0  0.31908  0.81286  0.83705  1.0000
  H   H5        1.0  0.60130  0.20323  0.33231  1.0000
  H   H6        1.0  0.39871  0.79676  0.66769  1.0000
  H   H7        1.0  0.31823  0.05521  0.76361  1.0000
  H   H8        1.0  0.68177  0.94479  0.23639  1.0000
  H   H9        1.0  0.49443  0.38680  0.62204  1.0000
  H   H10       1.0  0.50557  0.61320  0.37796  1.0000
  H   H11       1.0  0.67575  0.25767  0.77465  1.0000
  H   H12       1.0  0.32426  0.74233  0.22535  1.0000
  H   H13       1.0  0.48414  0.97499  0.89747  1.0000
  H   H14       1.0  0.51586  0.02502  0.10253  1.0000
  H   H15       1.0  0.58711  0.09439  0.92367  1.0000
  H   H16       1.0  0.41289  0.90562  0.07633  1.0000
  H   H17       1.0  0.79338  0.83761  0.99212  1.0000
  H   H18       1.0  0.20663  0.16240  0.00788  1.0000
  H   H19       1.0  0.07499  0.62535  0.95988  1.0000
  H   H20       1.0  0.92501  0.37466  0.04012  1.0000
  H   H21       1.0  0.19744  0.56869  0.79949  1.0000
  H   H22       1.0  0.80256  0.43131  0.20051  1.0000
  H   H23       1.0  0.74917  0.92666  0.70212  1.0000
  H   H24       1.0  0.25083  0.07334  0.29788  1.0000
  H   H25       1.0  0.15917  0.60536  0.63657  1.0000
  H   H26       1.0  0.84082  0.39464  0.36343  1.0000
  H   H27       1.0  0.95699  0.72303  0.60074  1.0000
  H   H28       1.0  0.04301  0.27697  0.39926  1.0000
  H   H29       1.0  0.27212  0.71186  0.48560  1.0000
  H   H30       1.0  0.72788  0.28814  0.51440  1.0000
  H   H31       1.0  0.35015  0.97792  0.45309  1.0000
  H   H32       1.0  0.64985  0.02207  0.54691  1.0000
  H   H33       1.0  0.01997  0.02126  0.69593  1.0000
  H   H34       1.0  0.98003  0.97874  0.30407  1.0000
  C   C1        1.0  0.35696  0.38777  0.31910  1.0000
  C   C2        1.0  0.64304  0.61222  0.68090  1.0000
  C   C3        1.0  0.24560  0.49129  0.25810  1.0000
  C   C4        1.0  0.75440  0.50870  0.74190  1.0000
  C   C5        1.0  0.28811  0.47938  0.16390  1.0000
  C   C6        1.0  0.71189  0.52062  0.83610  1.0000
  C   C7        1.0  0.44169  0.36595  0.13172  1.0000
  C   C8        1.0  0.55831  0.63405  0.86828  1.0000
  C   C9        1.0  0.55883  0.26903  0.19106  1.0000
  C   C10       1.0  0.44118  0.73097  0.80894  1.0000
  C   C11       1.0  0.51461  0.28014  0.28454  1.0000
  C   C12       1.0  0.48539  0.71986  0.71546  1.0000
  C   C13       1.0  0.31665  0.38608  0.42170  1.0000
  C   C14       1.0  0.68335  0.61392  0.57830  1.0000
  C   C15       1.0  0.08100  0.61695  0.29183  1.0000
  C   C16       1.0  0.91899  0.38304  0.70818  1.0000
  C   C17       1.0  0.39151  0.12654  0.74417  1.0000
  C   C18       1.0  0.60849  0.87347  0.25583  1.0000
  C   C19       1.0  0.48462  0.29911  0.67423  1.0000
  C   C20       1.0  0.51538  0.70089  0.32577  1.0000
  C   C21       1.0  0.57482  0.23685  0.74889  1.0000
  C   C22       1.0  0.42519  0.76315  0.25111  1.0000
  C   C23       1.0  0.57910  0.02444  0.87088  1.0000
  C   C24       1.0  0.42090  0.97557  0.12912  1.0000
  C   C25       1.0  0.75167  0.89723  0.84912  1.0000
  C   C26       1.0  0.24833  0.10278  0.15088  1.0000
  C   C27       1.0  0.84489  0.81148  0.92142  1.0000
  C   C28       1.0  0.15511  0.18853  0.07859  1.0000
  C   C29       1.0  0.00330  0.69249  0.90357  1.0000
  C   C30       1.0  0.99670  0.30752  0.09643  1.0000
  C   C31       1.0  0.07242  0.66056  0.81326  1.0000
  C   C32       1.0  0.92759  0.33945  0.18674  1.0000
  C   C33       1.0  0.98196  0.74677  0.74050  1.0000
  C   C34       1.0  0.01804  0.25323  0.25950  1.0000
  C   C35       1.0  0.82042  0.86266  0.75930  1.0000
  C   C36       1.0  0.17957  0.13735  0.24070  1.0000
  C   C37       1.0  0.05511  0.71931  0.64260  1.0000
  C   C38       1.0  0.94488  0.28069  0.35740  1.0000
  C   C39       1.0  0.23176  0.81680  0.52200  1.0000
  C   C40       1.0  0.76824  0.18320  0.47800  1.0000
  C   C41       1.0  0.26923  0.94701  0.50749  1.0000
  C   C42       1.0  0.73077  0.05299  0.49251  1.0000
  C   C43       1.0  0.09868  0.97379  0.63418  1.0000
  C   C44       1.0  0.90132  0.02620  0.36581  1.0000
  N   N1        1.0  0.48055  0.34301  0.03422  1.0000
  N   N2        1.0  0.51945  0.65700  0.96578  1.0000
  N   N3        1.0  0.37116  0.22839  0.67223  1.0000
  N   N4        1.0  0.62884  0.77161  0.32777  1.0000
  N   N5        1.0  0.51382  0.12833  0.79221  1.0000
  N   N6        1.0  0.48618  0.87168  0.20778  1.0000
  N   N7        1.0  0.12456  0.83556  0.60229  1.0000
  N   N8        1.0  0.87544  0.16444  0.39771  1.0000
  N   N9        1.0  0.18548  0.04407  0.57775  1.0000
  N   N10       1.0  0.81452  0.95592  0.42225  1.0000
  O   O1        1.0  0.27183  0.27306  0.45418  1.0000
  O   O2        1.0  0.72818  0.72693  0.54583  1.0000
  O   O3        1.0  0.33907  0.47963  0.46657  1.0000
  O   O4        1.0  0.66094  0.52037  0.53343  1.0000
  O   O5        1.0  0.01465  0.58422  0.37128  1.0000
  O   O6        1.0  0.98535  0.41576  0.62872  1.0000
  O   O7        1.0  0.02222  0.74034  0.24361  1.0000
  O   O8        1.0  0.97775  0.25965  0.75639  1.0000
  O   O9        1.0  0.37206  0.42115  0.98148  1.0000
  O   O10       1.0  0.62794  0.57885  0.01852  1.0000
  O   O11       1.0  0.62126  0.24231  0.00786  1.0000
  O   O12       1.0  0.37874  0.75770  0.99213  1.0000
