data_image0
_chemical_formula_structural       Zn8H24C16I8N32
_chemical_formula_sum              "Zn8 H24 C16 I8 N32"
_cell_length_a       9.58251
_cell_length_b       9.96956
_cell_length_c       13.0223
_cell_angle_alpha    90
_cell_angle_beta     90
_cell_angle_gamma    90

_space_group_name_H-M_alt    "P 1"
_space_group_IT_number       1

loop_
  _space_group_symop_operation_xyz
  'x, y, z'

loop_
  _atom_site_type_symbol
  _atom_site_label
  _atom_site_symmetry_multiplicity
  _atom_site_fract_x
  _atom_site_fract_y
  _atom_site_fract_z
  _atom_site_occupancy
  Zn  Zn1       1.0  0.57429  0.61590  0.90068  1.0000
  Zn  Zn2       1.0  0.92571  0.38410  0.40068  1.0000
  Zn  Zn3       1.0  0.42571  0.11590  0.59932  1.0000
  Zn  Zn4       1.0  0.07429  0.88410  0.09932  1.0000
  Zn  Zn5       1.0  0.42571  0.38410  0.09932  1.0000
  Zn  Zn6       1.0  0.07429  0.61590  0.59932  1.0000
  Zn  Zn7       1.0  0.57429  0.88409  0.40068  1.0000
  Zn  Zn8       1.0  0.92571  0.11590  0.90068  1.0000
  H   H1        1.0  0.67962  0.91156  0.83470  1.0000
  H   H2        1.0  0.82038  0.08844  0.33470  1.0000
  H   H3        1.0  0.32038  0.41156  0.66530  1.0000
  H   H4        1.0  0.17962  0.58844  0.16530  1.0000
  H   H5        1.0  0.32038  0.08844  0.16530  1.0000
  H   H6        1.0  0.17962  0.91156  0.66530  1.0000
  H   H7        1.0  0.67962  0.58844  0.33470  1.0000
  H   H8        1.0  0.82039  0.41156  0.83470  1.0000
  H   H9        1.0  0.88964  0.65766  0.15072  1.0000
  H   H10       1.0  0.61036  0.34234  0.65072  1.0000
  H   H11       1.0  0.11036  0.15766  0.34928  1.0000
  H   H12       1.0  0.38964  0.84234  0.84928  1.0000
  H   H13       1.0  0.11036  0.34234  0.84928  1.0000
  H   H14       1.0  0.38964  0.65766  0.34928  1.0000
  H   H15       1.0  0.88964  0.84234  0.65072  1.0000
  H   H16       1.0  0.61036  0.15766  0.15072  1.0000
  H   H17       1.0  0.76684  0.56576  0.08442  1.0000
  H   H18       1.0  0.73316  0.43424  0.58442  1.0000
  H   H19       1.0  0.23316  0.06576  0.41558  1.0000
  H   H20       1.0  0.26685  0.93424  0.91558  1.0000
  H   H21       1.0  0.23315  0.43424  0.91558  1.0000
  H   H22       1.0  0.26684  0.56576  0.41558  1.0000
  H   H23       1.0  0.76684  0.93424  0.58442  1.0000
  H   H24       1.0  0.73315  0.06576  0.08442  1.0000
  C   C1        1.0  0.74057  0.87257  0.89848  1.0000
  C   C2        1.0  0.75943  0.12743  0.39848  1.0000
  C   C3        1.0  0.25943  0.37257  0.60152  1.0000
  C   C4        1.0  0.24057  0.62743  0.10152  1.0000
  C   C5        1.0  0.25943  0.12743  0.10152  1.0000
  C   C6        1.0  0.24057  0.87257  0.60152  1.0000
  C   C7        1.0  0.74057  0.62743  0.39848  1.0000
  C   C8        1.0  0.75943  0.37257  0.89848  1.0000
  C   C9        1.0  0.81638  0.74669  0.02026  1.0000
  C   C10       1.0  0.68362  0.25331  0.52026  1.0000
  C   C11       1.0  0.18362  0.24669  0.47974  1.0000
  C   C12       1.0  0.31638  0.75331  0.97974  1.0000
  C   C13       1.0  0.18362  0.25331  0.97974  1.0000
  C   C14       1.0  0.31638  0.74669  0.47974  1.0000
  C   C15       1.0  0.81638  0.75331  0.52026  1.0000
  C   C16       1.0  0.68362  0.24669  0.02026  1.0000
  I   I1        1.0  0.52896  0.65341  0.70988  1.0000
  I   I2        1.0  0.97104  0.34659  0.20988  1.0000
  I   I3        1.0  0.47104  0.15341  0.79012  1.0000
  I   I4        1.0  0.02896  0.84659  0.29012  1.0000
  I   I5        1.0  0.47104  0.34659  0.29012  1.0000
  I   I6        1.0  0.02896  0.65341  0.79012  1.0000
  I   I7        1.0  0.52896  0.84659  0.20988  1.0000
  I   I8        1.0  0.97104  0.15341  0.70988  1.0000
  N   N1        1.0  0.84708  0.93720  0.94007  1.0000
  N   N2        1.0  0.65292  0.06280  0.44007  1.0000
  N   N3        1.0  0.15292  0.43720  0.55993  1.0000
  N   N4        1.0  0.34708  0.56280  0.05993  1.0000
  N   N5        1.0  0.15292  0.06280  0.05993  1.0000
  N   N6        1.0  0.34708  0.93720  0.55993  1.0000
  N   N7        1.0  0.84708  0.56280  0.44007  1.0000
  N   N8        1.0  0.65292  0.43720  0.94007  1.0000
  N   N9        1.0  0.71637  0.75383  0.94582  1.0000
  N   N10       1.0  0.78363  0.24617  0.44582  1.0000
  N   N11       1.0  0.28363  0.25383  0.55418  1.0000
  N   N12       1.0  0.21637  0.74617  0.05418  1.0000
  N   N13       1.0  0.28363  0.24617  0.05418  1.0000
  N   N14       1.0  0.21637  0.75383  0.55418  1.0000
  N   N15       1.0  0.71637  0.74617  0.44582  1.0000
  N   N16       1.0  0.78363  0.25383  0.94582  1.0000
  N   N17       1.0  0.89775  0.85677  0.01871  1.0000
  N   N18       1.0  0.60225  0.14323  0.51871  1.0000
  N   N19       1.0  0.10225  0.35677  0.48129  1.0000
  N   N20       1.0  0.39775  0.64323  0.98129  1.0000
  N   N21       1.0  0.10225  0.14323  0.98129  1.0000
  N   N22       1.0  0.39775  0.85677  0.48129  1.0000
  N   N23       1.0  0.89775  0.64323  0.51871  1.0000
  N   N24       1.0  0.60225  0.35677  0.01871  1.0000
  N   N25       1.0  0.83674  0.64189  0.08399  1.0000
  N   N26       1.0  0.66326  0.35811  0.58399  1.0000
  N   N27       1.0  0.16326  0.14189  0.41601  1.0000
  N   N28       1.0  0.33674  0.85811  0.91601  1.0000
  N   N29       1.0  0.16326  0.35811  0.91601  1.0000
  N   N30       1.0  0.33674  0.64189  0.41601  1.0000
  N   N31       1.0  0.83674  0.85811  0.58399  1.0000
  N   N32       1.0  0.66326  0.14189  0.08399  1.0000
