data_image0
_chemical_formula_structural       Zn4H8C8I4N12
_chemical_formula_sum              "Zn4 H8 C8 I4 N12"
_cell_length_a       6.74149
_cell_length_b       9.39432
_cell_length_c       9.75806
_cell_angle_alpha    89.9996
_cell_angle_beta     90.0006
_cell_angle_gamma    108.555

_space_group_name_H-M_alt    "P 1"
_space_group_IT_number       1

loop_
  _space_group_symop_operation_xyz
  'x, y, z'

loop_
  _atom_site_type_symbol
  _atom_site_label
  _atom_site_symmetry_multiplicity
  _atom_site_fract_x
  _atom_site_fract_y
  _atom_site_fract_z
  _atom_site_occupancy
  Zn  Zn1       1.0  0.46213  0.67606  0.43102  1.0000
  Zn  Zn2       1.0  0.03786  0.82394  0.93102  1.0000
  Zn  Zn3       1.0  0.53786  0.32394  0.56898  1.0000
  Zn  Zn4       1.0  0.96213  0.17606  0.06898  1.0000
  H   H1        1.0  0.65063  0.00635  0.30351  1.0000
  H   H2        1.0  0.84937  0.49365  0.80352  1.0000
  H   H3        1.0  0.34937  0.99365  0.69649  1.0000
  H   H4        1.0  0.15063  0.50635  0.19648  1.0000
  H   H5        1.0  0.77391  0.61259  0.18229  1.0000
  H   H6        1.0  0.72609  0.88740  0.68229  1.0000
  H   H7        1.0  0.22610  0.38741  0.81771  1.0000
  H   H8        1.0  0.27390  0.11259  0.31771  1.0000
  C   C1        1.0  0.77397  0.72820  0.18870  1.0000
  C   C2        1.0  0.72603  0.77180  0.68869  1.0000
  C   C3        1.0  0.22603  0.27180  0.81130  1.0000
  C   C4        1.0  0.27397  0.22820  0.31131  1.0000
  C   C5        1.0  0.70951  0.92760  0.24875  1.0000
  C   C6        1.0  0.79050  0.57240  0.74875  1.0000
  C   C7        1.0  0.29049  0.07240  0.75125  1.0000
  C   C8        1.0  0.20951  0.42760  0.25125  1.0000
  I   I1        1.0  0.18670  0.80712  0.45235  1.0000
  I   I2        1.0  0.31331  0.69289  0.95235  1.0000
  I   I3        1.0  0.81330  0.19288  0.54765  1.0000
  I   I4        1.0  0.68670  0.30712  0.04765  1.0000
  N   N1        1.0  0.87866  0.83592  0.10268  1.0000
  N   N2        1.0  0.62134  0.66408  0.60268  1.0000
  N   N3        1.0  0.12134  0.16409  0.89732  1.0000
  N   N4        1.0  0.37865  0.33592  0.39732  1.0000
  N   N5        1.0  0.83785  0.96437  0.14179  1.0000
  N   N6        1.0  0.66215  0.53563  0.64179  1.0000
  N   N7        1.0  0.16214  0.03563  0.85821  1.0000
  N   N8        1.0  0.33785  0.46437  0.35821  1.0000
  N   N9        1.0  0.66627  0.78125  0.28183  1.0000
  N   N10       1.0  0.83373  0.71875  0.78183  1.0000
  N   N11       1.0  0.33373  0.21875  0.71817  1.0000
  N   N12       1.0  0.16627  0.28125  0.21817  1.0000
