data_image0
_chemical_formula_structural       Cu6H16C24I6N4
_chemical_formula_sum              "Cu6 H16 C24 I6 N4"
_cell_length_a       4.0814
_cell_length_b       13.1691
_cell_length_c       15.6444
_cell_angle_alpha    112.825
_cell_angle_beta     92.4598
_cell_angle_gamma    97.4941

_space_group_name_H-M_alt    "P 1"
_space_group_IT_number       1

loop_
  _space_group_symop_operation_xyz
  'x, y, z'

loop_
  _atom_site_type_symbol
  _atom_site_label
  _atom_site_symmetry_multiplicity
  _atom_site_fract_x
  _atom_site_fract_y
  _atom_site_fract_z
  _atom_site_occupancy
  Cu  Cu1       1.0  0.94428  0.93006  0.40624  1.0000
  Cu  Cu2       1.0  0.05573  0.06994  0.59376  1.0000
  Cu  Cu3       1.0  0.47923  0.03267  0.36096  1.0000
  Cu  Cu4       1.0  0.52078  0.96733  0.63904  1.0000
  Cu  Cu5       1.0  0.98655  0.18995  0.20193  1.0000
  Cu  Cu6       1.0  0.01345  0.81005  0.79806  1.0000
  H   H1        1.0  0.05703  0.38482  0.40664  1.0000
  H   H2        1.0  0.94296  0.61518  0.59336  1.0000
  H   H3        1.0  0.38032  0.57926  0.47629  1.0000
  H   H4        1.0  0.61966  0.42074  0.52371  1.0000
  H   H5        1.0  0.69868  0.65278  0.37335  1.0000
  H   H6        1.0  0.30129  0.34722  0.62666  1.0000
  H   H7        1.0  0.85909  0.62019  0.21231  1.0000
  H   H8        1.0  0.14089  0.37981  0.78770  1.0000
  H   H9        1.0  0.80463  0.49897  0.04389  1.0000
  H   H10       1.0  0.19538  0.50104  0.95612  1.0000
  H   H11       1.0  0.55067  0.31728  0.90952  1.0000
  H   H12       1.0  0.44935  0.68273  0.09048  1.0000
  H   H13       1.0  0.17521  0.13386  0.85762  1.0000
  H   H14       1.0  0.82481  0.86614  0.14238  1.0000
  H   H15       1.0  0.90289  0.07868  0.97623  1.0000
  H   H16       1.0  0.09711  0.92132  0.02377  1.0000
  C   C1        1.0  0.19216  0.42038  0.36336  1.0000
  C   C2        1.0  0.80783  0.57961  0.63664  1.0000
  C   C3        1.0  0.37551  0.52866  0.40205  1.0000
  C   C4        1.0  0.62447  0.47133  0.59795  1.0000
  C   C5        1.0  0.55034  0.56968  0.34523  1.0000
  C   C6        1.0  0.44964  0.43032  0.65477  1.0000
  C   C7        1.0  0.53342  0.50251  0.24912  1.0000
  C   C8        1.0  0.46658  0.49749  0.75088  1.0000
  C   C9        1.0  0.70417  0.53810  0.18500  1.0000
  C   C10       1.0  0.29583  0.46190  0.81501  1.0000
  C   C11       1.0  0.67446  0.47098  0.09214  1.0000
  C   C12       1.0  0.32555  0.52902  0.90786  1.0000
  C   C13       1.0  0.47028  0.36344  0.05549  1.0000
  C   C14       1.0  0.52973  0.63655  0.94451  1.0000
  C   C15       1.0  0.42435  0.29212  0.95991  1.0000
  C   C16       1.0  0.57567  0.70788  0.04009  1.0000
  C   C17       1.0  0.21849  0.19023  0.93095  1.0000
  C   C18       1.0  0.78152  0.80978  0.06905  1.0000
  C   C19       1.0  0.06530  0.15886  0.99762  1.0000
  C   C20       1.0  0.93471  0.84114  0.00238  1.0000
  C   C21       1.0  0.30216  0.32539  0.11768  1.0000
  C   C22       1.0  0.69784  0.67461  0.88232  1.0000
  C   C23       1.0  0.33579  0.39532  0.21559  1.0000
  C   C24       1.0  0.66420  0.60467  0.78441  1.0000
  I   I1        1.0  0.04264  0.14851  0.46004  1.0000
  I   I2        1.0  0.95737  0.85149  0.53996  1.0000
  I   I3        1.0  0.37989  0.81783  0.30040  1.0000
  I   I4        1.0  0.62011  0.18217  0.69960  1.0000
  I   I5        1.0  0.45669  0.07788  0.21126  1.0000
  I   I6        1.0  0.54331  0.92212  0.78874  1.0000
  N   N1        1.0  0.10503  0.22389  0.08859  1.0000
  N   N2        1.0  0.89498  0.77611  0.91141  1.0000
  N   N3        1.0  0.17174  0.35450  0.27271  1.0000
  N   N4        1.0  0.82825  0.64550  0.72729  1.0000
