data_image0
_chemical_formula_structural       Zn4H44C56N24O16
_chemical_formula_sum              "Zn4 H44 C56 N24 O16"
_cell_length_a       9.73504
_cell_length_b       9.73498
_cell_length_c       20.5013
_cell_angle_alpha    79.8997
_cell_angle_beta     79.8988
_cell_angle_gamma    86.2047

_space_group_name_H-M_alt    "P 1"
_space_group_IT_number       1

loop_
  _space_group_symop_operation_xyz
  'x, y, z'

loop_
  _atom_site_type_symbol
  _atom_site_label
  _atom_site_symmetry_multiplicity
  _atom_site_fract_x
  _atom_site_fract_y
  _atom_site_fract_z
  _atom_site_occupancy
  Zn  Zn1       1.0  0.83005  0.77472  0.95227  1.0000
  Zn  Zn2       1.0  0.22528  0.16995  0.54773  1.0000
  Zn  Zn3       1.0  0.16995  0.22529  0.04773  1.0000
  Zn  Zn4       1.0  0.77472  0.83004  0.45227  1.0000
  H   H1        1.0  0.84516  0.82832  0.20274  1.0000
  H   H2        1.0  0.17168  0.15483  0.29726  1.0000
  H   H3        1.0  0.15484  0.17167  0.79726  1.0000
  H   H4        1.0  0.82832  0.84517  0.70274  1.0000
  H   H5        1.0  0.53323  0.59424  0.34516  1.0000
  H   H6        1.0  0.40576  0.46677  0.15484  1.0000
  H   H7        1.0  0.46675  0.40578  0.65484  1.0000
  H   H8        1.0  0.59423  0.53324  0.84516  1.0000
  H   H9        1.0  0.59594  0.55146  0.13604  1.0000
  H   H10       1.0  0.44853  0.40405  0.36396  1.0000
  H   H11       1.0  0.40406  0.44853  0.86396  1.0000
  H   H12       1.0  0.55147  0.59595  0.63604  1.0000
  H   H13       1.0  0.07208  0.65195  0.03906  1.0000
  H   H14       1.0  0.34804  0.92792  0.46094  1.0000
  H   H15       1.0  0.92792  0.34805  0.96094  1.0000
  H   H16       1.0  0.65196  0.07208  0.53906  1.0000
  H   H17       1.0  0.09744  0.77375  0.83014  1.0000
  H   H18       1.0  0.22624  0.90257  0.66986  1.0000
  H   H19       1.0  0.90256  0.22626  0.16986  1.0000
  H   H20       1.0  0.77376  0.09742  0.33014  1.0000
  H   H21       1.0  0.42943  0.54276  0.95726  1.0000
  H   H22       1.0  0.45724  0.57057  0.54273  1.0000
  H   H23       1.0  0.57057  0.45724  0.04273  1.0000
  H   H24       1.0  0.54276  0.42942  0.45726  1.0000
  H   H25       1.0  0.32686  0.55061  0.03768  1.0000
  H   H26       1.0  0.44939  0.67315  0.46232  1.0000
  H   H27       1.0  0.67314  0.44939  0.96232  1.0000
  H   H28       1.0  0.55061  0.32685  0.53768  1.0000
  H   H29       1.0  0.53479  0.70378  0.01717  1.0000
  H   H30       1.0  0.29623  0.46520  0.48283  1.0000
  H   H31       1.0  0.46521  0.29622  0.98283  1.0000
  H   H32       1.0  0.70377  0.53479  0.51717  1.0000
  H   H33       1.0  0.48518  0.79064  0.94048  1.0000
  H   H34       1.0  0.20936  0.51482  0.55952  1.0000
  H   H35       1.0  0.51483  0.20935  0.05952  1.0000
  H   H36       1.0  0.79064  0.48517  0.44048  1.0000
  H   H37       1.0  0.17506  0.92955  0.15623  1.0000
  H   H38       1.0  0.07045  0.82495  0.34377  1.0000
  H   H39       1.0  0.82494  0.07044  0.84377  1.0000
  H   H40       1.0  0.92955  0.17506  0.65623  1.0000
  H   H41       1.0  0.34716  0.01901  0.95106  1.0000
  H   H42       1.0  0.98099  0.65283  0.54893  1.0000
  H   H43       1.0  0.65286  0.98099  0.04894  1.0000
  H   H44       1.0  0.01901  0.34716  0.45106  1.0000
  C   C1        1.0  0.72378  0.69611  0.16213  1.0000
  C   C2        1.0  0.30390  0.27620  0.33787  1.0000
  C   C3        1.0  0.27621  0.30390  0.83787  1.0000
  C   C4        1.0  0.69610  0.72379  0.66213  1.0000
  C   C5        1.0  0.76214  0.75388  0.21382  1.0000
  C   C6        1.0  0.24612  0.23785  0.28618  1.0000
  C   C7        1.0  0.23786  0.24612  0.78618  1.0000
  C   C8        1.0  0.75388  0.76215  0.71382  1.0000
  C   C9        1.0  0.69346  0.71507  0.27985  1.0000
  C   C10       1.0  0.28494  0.30654  0.22015  1.0000
  C   C11       1.0  0.30653  0.28494  0.72015  1.0000
  C   C12       1.0  0.71506  0.69347  0.77985  1.0000
  C   C13       1.0  0.58688  0.61942  0.29359  1.0000
  C   C14       1.0  0.38058  0.41312  0.20642  1.0000
  C   C15       1.0  0.41311  0.38060  0.70641  1.0000
  C   C16       1.0  0.61942  0.58689  0.79359  1.0000
  C   C17       1.0  0.54900  0.55804  0.24261  1.0000
  C   C18       1.0  0.44196  0.45100  0.25740  1.0000
  C   C19       1.0  0.45099  0.44197  0.75739  1.0000
  C   C20       1.0  0.55804  0.54900  0.74261  1.0000
  C   C21       1.0  0.61916  0.59849  0.17694  1.0000
  C   C22       1.0  0.40150  0.38084  0.32306  1.0000
  C   C23       1.0  0.38085  0.40151  0.82306  1.0000
  C   C24       1.0  0.59849  0.61916  0.67694  1.0000
  C   C25       1.0  0.79516  0.73893  0.09109  1.0000
  C   C26       1.0  0.26107  0.20483  0.40891  1.0000
  C   C27       1.0  0.20484  0.26108  0.90891  1.0000
  C   C28       1.0  0.73893  0.79517  0.59109  1.0000
  C   C29       1.0  0.73731  0.77437  0.33523  1.0000
  C   C30       1.0  0.22562  0.26269  0.16477  1.0000
  C   C31       1.0  0.26270  0.22563  0.66477  1.0000
  C   C32       1.0  0.77438  0.73730  0.83523  1.0000
  C   C33       1.0  0.10965  0.67162  0.98537  1.0000
  C   C34       1.0  0.32838  0.89035  0.51463  1.0000
  C   C35       1.0  0.89035  0.32839  0.01463  1.0000
  C   C36       1.0  0.67162  0.10965  0.48537  1.0000
  C   C37       1.0  0.12794  0.73499  0.87868  1.0000
  C   C38       1.0  0.26501  0.87206  0.62132  1.0000
  C   C39       1.0  0.87206  0.26502  0.12132  1.0000
  C   C40       1.0  0.73499  0.12793  0.37868  1.0000
  C   C41       1.0  0.36308  0.61095  0.98779  1.0000
  C   C42       1.0  0.38906  0.63693  0.51221  1.0000
  C   C43       1.0  0.63692  0.38906  0.01221  1.0000
  C   C44       1.0  0.61095  0.36307  0.48779  1.0000
  C   C45       1.0  0.44532  0.73695  0.99127  1.0000
  C   C46       1.0  0.26306  0.55468  0.50873  1.0000
  C   C47       1.0  0.55468  0.26305  0.00873  1.0000
  C   C48       1.0  0.73695  0.44532  0.49127  1.0000
  C   C49       1.0  0.23272  0.91768  0.10711  1.0000
  C   C50       1.0  0.08232  0.76728  0.39289  1.0000
  C   C51       1.0  0.76728  0.08232  0.89289  1.0000
  C   C52       1.0  0.91768  0.23272  0.60711  1.0000
  C   C53       1.0  0.31918  0.96811  0.00277  1.0000
  C   C54       1.0  0.03189  0.68081  0.49722  1.0000
  C   C55       1.0  0.68083  0.03188  0.99723  1.0000
  C   C56       1.0  0.96812  0.31918  0.50277  1.0000
  N   N1        1.0  0.03415  0.72277  0.93744  1.0000
  N   N2        1.0  0.27722  0.96585  0.56257  1.0000
  N   N3        1.0  0.96585  0.27723  0.06256  1.0000
  N   N4        1.0  0.72279  0.03414  0.43744  1.0000
  N   N5        1.0  0.24220  0.65384  0.95593  1.0000
  N   N6        1.0  0.34615  0.75780  0.54408  1.0000
  N   N7        1.0  0.75780  0.34616  0.04407  1.0000
  N   N8        1.0  0.65385  0.24219  0.45593  1.0000
  N   N9        1.0  0.25667  0.69474  0.88804  1.0000
  N   N10       1.0  0.30525  0.74333  0.61196  1.0000
  N   N11       1.0  0.74333  0.30526  0.11196  1.0000
  N   N12       1.0  0.69474  0.25666  0.38804  1.0000
  N   N13       1.0  0.35832  0.83686  0.02676  1.0000
  N   N14       1.0  0.16315  0.64167  0.47324  1.0000
  N   N15       1.0  0.64168  0.16314  0.97324  1.0000
  N   N16       1.0  0.83686  0.35832  0.52676  1.0000
  N   N17       1.0  0.30345  0.80224  0.09320  1.0000
  N   N18       1.0  0.19776  0.69656  0.40680  1.0000
  N   N19       1.0  0.69655  0.19776  0.90680  1.0000
  N   N20       1.0  0.80224  0.30345  0.59320  1.0000
  N   N21       1.0  0.24046  0.02302  0.05282  1.0000
  N   N22       1.0  0.97698  0.75953  0.44718  1.0000
  N   N23       1.0  0.75954  0.97698  0.94718  1.0000
  N   N24       1.0  0.02302  0.24048  0.55282  1.0000
  O   O1        1.0  0.74425  0.68900  0.04522  1.0000
  O   O2        1.0  0.31100  0.25573  0.45479  1.0000
  O   O3        1.0  0.25573  0.31100  0.95478  1.0000
  O   O4        1.0  0.68900  0.74427  0.54522  1.0000
  O   O5        1.0  0.89495  0.81926  0.07786  1.0000
  O   O6        1.0  0.18074  0.10504  0.42214  1.0000
  O   O7        1.0  0.10505  0.18072  0.92215  1.0000
  O   O8        1.0  0.81928  0.89495  0.57786  1.0000
  O   O9        1.0  0.83157  0.86208  0.32235  1.0000
  O   O10       1.0  0.13792  0.16843  0.17766  1.0000
  O   O11       1.0  0.16844  0.13792  0.67766  1.0000
  O   O12       1.0  0.86207  0.83158  0.82234  1.0000
  O   O13       1.0  0.67592  0.72965  0.39654  1.0000
  O   O14       1.0  0.27035  0.32409  0.10347  1.0000
  O   O15       1.0  0.32408  0.27035  0.60346  1.0000
  O   O16       1.0  0.72966  0.67593  0.89653  1.0000
