data_image0
_chemical_formula_structural       Ca4H24C40O28
_chemical_formula_sum              "Ca4 H24 C40 O28"
_cell_length_a       4.29209
_cell_length_b       10.7531
_cell_length_c       21.6329
_cell_angle_alpha    90
_cell_angle_beta     90
_cell_angle_gamma    91.852

_space_group_name_H-M_alt    "P 1"
_space_group_IT_number       1

loop_
  _space_group_symop_operation_xyz
  'x, y, z'

loop_
  _atom_site_type_symbol
  _atom_site_label
  _atom_site_symmetry_multiplicity
  _atom_site_fract_x
  _atom_site_fract_y
  _atom_site_fract_z
  _atom_site_occupancy
  Ca  Ca1       1.0  0.58810  0.17868  0.50689  1.0000
  Ca  Ca2       1.0  0.41190  0.32132  0.00689  1.0000
  Ca  Ca3       1.0  0.41190  0.82132  0.49311  1.0000
  Ca  Ca4       1.0  0.58810  0.67868  0.99311  1.0000
  H   H1        1.0  0.17231  0.52630  0.43858  1.0000
  H   H2        1.0  0.82769  0.97370  0.93858  1.0000
  H   H3        1.0  0.82769  0.47370  0.56142  1.0000
  H   H4        1.0  0.17231  0.02630  0.06142  1.0000
  H   H5        1.0  0.75905  0.70489  0.28133  1.0000
  H   H6        1.0  0.24095  0.79511  0.78133  1.0000
  H   H7        1.0  0.24095  0.29511  0.71867  1.0000
  H   H8        1.0  0.75904  0.20489  0.21867  1.0000
  H   H9        1.0  0.32842  0.38518  0.25528  1.0000
  H   H10       1.0  0.67158  0.11482  0.75528  1.0000
  H   H11       1.0  0.67158  0.61482  0.74472  1.0000
  H   H12       1.0  0.32842  0.88518  0.24472  1.0000
  H   H13       1.0  0.11480  0.39998  0.15532  1.0000
  H   H14       1.0  0.88520  0.10002  0.65532  1.0000
  H   H15       1.0  0.88520  0.60002  0.84468  1.0000
  H   H16       1.0  0.11480  0.89998  0.34468  1.0000
  H   H17       1.0  0.41613  0.51470  0.16689  1.0000
  H   H18       1.0  0.58387  0.98530  0.66689  1.0000
  H   H19       1.0  0.58387  0.48530  0.83311  1.0000
  H   H20       1.0  0.41613  0.01470  0.33311  1.0000
  H   H21       1.0  0.71440  0.20966  0.36081  1.0000
  H   H22       1.0  0.28560  0.29034  0.86081  1.0000
  H   H23       1.0  0.28560  0.79034  0.63919  1.0000
  H   H24       1.0  0.71440  0.70966  0.13919  1.0000
  C   C1        1.0  0.26611  0.44646  0.34946  1.0000
  C   C2        1.0  0.73389  0.05354  0.84946  1.0000
  C   C3        1.0  0.73389  0.55354  0.65054  1.0000
  C   C4        1.0  0.26611  0.94646  0.15054  1.0000
  C   C5        1.0  0.13488  0.53306  0.38894  1.0000
  C   C6        1.0  0.86512  0.96694  0.88894  1.0000
  C   C7        1.0  0.86512  0.46694  0.61106  1.0000
  C   C8        1.0  0.13488  0.03306  0.11106  1.0000
  C   C9        1.0  0.95398  0.62683  0.36428  1.0000
  C   C10       1.0  0.04602  0.87317  0.86428  1.0000
  C   C11       1.0  0.04602  0.37317  0.63572  1.0000
  C   C12       1.0  0.95398  0.12683  0.13572  1.0000
  C   C13       1.0  0.90362  0.63326  0.30076  1.0000
  C   C14       1.0  0.09639  0.86674  0.80076  1.0000
  C   C15       1.0  0.09638  0.36674  0.69924  1.0000
  C   C16       1.0  0.90361  0.13326  0.19924  1.0000
  C   C17       1.0  0.04067  0.54750  0.26127  1.0000
  C   C18       1.0  0.95933  0.95250  0.76127  1.0000
  C   C19       1.0  0.95933  0.45250  0.73873  1.0000
  C   C20       1.0  0.04067  0.04750  0.23873  1.0000
  C   C21       1.0  0.22262  0.45338  0.28517  1.0000
  C   C22       1.0  0.77738  0.04662  0.78517  1.0000
  C   C23       1.0  0.77738  0.54662  0.71483  1.0000
  C   C24       1.0  0.22262  0.95338  0.21483  1.0000
  C   C25       1.0  0.45340  0.34779  0.37747  1.0000
  C   C26       1.0  0.54660  0.15221  0.87747  1.0000
  C   C27       1.0  0.54660  0.65221  0.62253  1.0000
  C   C28       1.0  0.45340  0.84779  0.12253  1.0000
  C   C29       1.0  0.81216  0.72069  0.40572  1.0000
  C   C30       1.0  0.18784  0.77931  0.90572  1.0000
  C   C31       1.0  0.18784  0.27931  0.59428  1.0000
  C   C32       1.0  0.81216  0.22069  0.09428  1.0000
  C   C33       1.0  0.16671  0.50094  0.15611  1.0000
  C   C34       1.0  0.83329  0.99906  0.65612  1.0000
  C   C35       1.0  0.83330  0.49906  0.84389  1.0000
  C   C36       1.0  0.16671  0.00094  0.34389  1.0000
  C   C37       1.0  0.10343  0.55420  0.09250  1.0000
  C   C38       1.0  0.89657  0.94580  0.59250  1.0000
  C   C39       1.0  0.89657  0.44580  0.90750  1.0000
  C   C40       1.0  0.10343  0.05420  0.40750  1.0000
  O   O1        1.0  0.48613  0.33824  0.43437  1.0000
  O   O2        1.0  0.51387  0.16176  0.93437  1.0000
  O   O3        1.0  0.51387  0.66176  0.56563  1.0000
  O   O4        1.0  0.48613  0.83824  0.06563  1.0000
  O   O5        1.0  0.58062  0.27071  0.33733  1.0000
  O   O6        1.0  0.41938  0.22929  0.83733  1.0000
  O   O7        1.0  0.41938  0.72929  0.66267  1.0000
  O   O8        1.0  0.58062  0.77071  0.16267  1.0000
  O   O9        1.0  0.93096  0.73910  0.45990  1.0000
  O   O10       1.0  0.06904  0.76090  0.95990  1.0000
  O   O11       1.0  0.06904  0.26090  0.54010  1.0000
  O   O12       1.0  0.93096  0.23910  0.04010  1.0000
  O   O13       1.0  0.57509  0.77799  0.38789  1.0000
  O   O14       1.0  0.42491  0.72201  0.88789  1.0000
  O   O15       1.0  0.42491  0.22201  0.61211  1.0000
  O   O16       1.0  0.57508  0.27799  0.11211  1.0000
  O   O17       1.0  0.97783  0.56291  0.19981  1.0000
  O   O18       1.0  0.02217  0.93709  0.69981  1.0000
  O   O19       1.0  0.02217  0.43709  0.80019  1.0000
  O   O20       1.0  0.97783  0.06291  0.30019  1.0000
  O   O21       1.0  0.27576  0.51823  0.04831  1.0000
  O   O22       1.0  0.72424  0.98176  0.54831  1.0000
  O   O23       1.0  0.72425  0.48176  0.95169  1.0000
  O   O24       1.0  0.27576  0.01824  0.45169  1.0000
  O   O25       1.0  0.89064  0.63182  0.08589  1.0000
  O   O26       1.0  0.10935  0.86818  0.58589  1.0000
  O   O27       1.0  0.10935  0.36818  0.91410  1.0000
  O   O28       1.0  0.89065  0.13182  0.41410  1.0000
