data_image0
_chemical_formula_structural       Ca2H24C32O20
_chemical_formula_sum              "Ca2 H24 C32 O20"
_cell_length_a       7.51049
_cell_length_b       10.51
_cell_length_c       10.51
_cell_angle_alpha    65.5822
_cell_angle_beta     78.5766
_cell_angle_gamma    78.5765

_space_group_name_H-M_alt    "P 1"
_space_group_IT_number       1

loop_
  _space_group_symop_operation_xyz
  'x, y, z'

loop_
  _atom_site_type_symbol
  _atom_site_label
  _atom_site_symmetry_multiplicity
  _atom_site_fract_x
  _atom_site_fract_y
  _atom_site_fract_z
  _atom_site_occupancy
  Ca  Ca1       1.0  0.25000  0.55705  0.44295  1.0000
  Ca  Ca2       1.0  0.75000  0.44295  0.55705  1.0000
  H   H1        1.0  0.18636  0.39786  0.00052  1.0000
  H   H2        1.0  0.31365  0.99948  0.60214  1.0000
  H   H3        1.0  0.81364  0.60214  0.99948  1.0000
  H   H4        1.0  0.68636  0.00052  0.39786  1.0000
  H   H5        1.0  0.07756  0.96905  0.21812  1.0000
  H   H6        1.0  0.42245  0.78188  0.03095  1.0000
  H   H7        1.0  0.92245  0.03095  0.78188  1.0000
  H   H8        1.0  0.57756  0.21812  0.96905  1.0000
  H   H9        1.0  0.98294  0.19856  0.78450  1.0000
  H   H10       1.0  0.51705  0.21550  0.80145  1.0000
  H   H11       1.0  0.01705  0.80144  0.21550  1.0000
  H   H12       1.0  0.48294  0.78451  0.19855  1.0000
  H   H13       1.0  0.25574  0.28176  0.34227  1.0000
  H   H14       1.0  0.24427  0.65773  0.71825  1.0000
  H   H15       1.0  0.74427  0.71825  0.65773  1.0000
  H   H16       1.0  0.75574  0.34226  0.28176  1.0000
  H   H17       1.0  0.95379  0.78243  0.45637  1.0000
  H   H18       1.0  0.54621  0.54363  0.21757  1.0000
  H   H19       1.0  0.04621  0.21757  0.54363  1.0000
  H   H20       1.0  0.45379  0.45637  0.78243  1.0000
  H   H21       1.0  0.11690  0.87090  0.42940  1.0000
  H   H22       1.0  0.38310  0.57060  0.12911  1.0000
  H   H23       1.0  0.88310  0.12910  0.57060  1.0000
  H   H24       1.0  0.61690  0.42940  0.87089  1.0000
  C   C1        1.0  0.10665  0.43134  0.74337  1.0000
  C   C2        1.0  0.39334  0.25663  0.56866  1.0000
  C   C3        1.0  0.89334  0.56866  0.25663  1.0000
  C   C4        1.0  0.60666  0.74337  0.43134  1.0000
  C   C5        1.0  0.08412  0.30886  0.88045  1.0000
  C   C6        1.0  0.41588  0.11955  0.69114  1.0000
  C   C7        1.0  0.91587  0.69114  0.11955  1.0000
  C   C8        1.0  0.58412  0.88045  0.30886  1.0000
  C   C9        1.0  0.13824  0.30602  0.00163  1.0000
  C   C10       1.0  0.36176  0.99837  0.69397  1.0000
  C   C11       1.0  0.86176  0.69397  0.99837  1.0000
  C   C12       1.0  0.63824  0.00163  0.30603  1.0000
  C   C13       1.0  0.12859  0.18281  0.12405  1.0000
  C   C14       1.0  0.37142  0.87595  0.81719  1.0000
  C   C15       1.0  0.87142  0.81719  0.87594  1.0000
  C   C16       1.0  0.62858  0.12405  0.18281  1.0000
  C   C17       1.0  0.17772  0.17201  0.25893  1.0000
  C   C18       1.0  0.32228  0.74107  0.82799  1.0000
  C   C19       1.0  0.82228  0.82799  0.74107  1.0000
  C   C20       1.0  0.67772  0.25893  0.17201  1.0000
  C   C21       1.0  0.07640  0.06356  0.12192  1.0000
  C   C22       1.0  0.42361  0.87808  0.93644  1.0000
  C   C23       1.0  0.92361  0.93644  0.87808  1.0000
  C   C24       1.0  0.57639  0.12192  0.06356  1.0000
  C   C25       1.0  0.02504  0.06426  0.00074  1.0000
  C   C26       1.0  0.47496  0.99927  0.93574  1.0000
  C   C27       1.0  0.97496  0.93574  0.99927  1.0000
  C   C28       1.0  0.52504  0.00074  0.06426  1.0000
  C   C29       1.0  0.02338  0.19095  0.88152  1.0000
  C   C30       1.0  0.47662  0.11848  0.80905  1.0000
  C   C31       1.0  0.97661  0.80906  0.11848  1.0000
  C   C32       1.0  0.52338  0.88152  0.19095  1.0000
  O   O1        1.0  0.01187  0.45208  0.64683  1.0000
  O   O2        1.0  0.48812  0.35317  0.54792  1.0000
  O   O3        1.0  0.98812  0.54792  0.35317  1.0000
  O   O4        1.0  0.51188  0.64683  0.45208  1.0000
  O   O5        1.0  0.23406  0.50635  0.71969  1.0000
  O   O6        1.0  0.26594  0.28031  0.49365  1.0000
  O   O7        1.0  0.76594  0.49365  0.28031  1.0000
  O   O8        1.0  0.73406  0.71969  0.50635  1.0000
  O   O9        1.0  0.22708  0.29150  0.24860  1.0000
  O   O10       1.0  0.27292  0.75140  0.70850  1.0000
  O   O11       1.0  0.77292  0.70850  0.75140  1.0000
  O   O12       1.0  0.72708  0.24859  0.29150  1.0000
  O   O13       1.0  0.17340  0.06431  0.36851  1.0000
  O   O14       1.0  0.32660  0.63148  0.93570  1.0000
  O   O15       1.0  0.82660  0.93570  0.63148  1.0000
  O   O16       1.0  0.67341  0.36851  0.06431  1.0000
  O   O17       1.0  0.08808  0.78291  0.43054  1.0000
  O   O18       1.0  0.41192  0.56946  0.21710  1.0000
  O   O19       1.0  0.91192  0.21710  0.56946  1.0000
  O   O20       1.0  0.58807  0.43054  0.78290  1.0000
