data_image0
_chemical_formula_structural       Ag2H16C22N6O8
_chemical_formula_sum              "Ag2 H16 C22 N6 O8"
_cell_length_a       7.5409
_cell_length_b       8.72069
_cell_length_c       8.92503
_cell_angle_alpha    90.0005
_cell_angle_beta     90.0001
_cell_angle_gamma    101.712

_space_group_name_H-M_alt    "P 1"
_space_group_IT_number       1

loop_
  _space_group_symop_operation_xyz
  'x, y, z'

loop_
  _atom_site_type_symbol
  _atom_site_label
  _atom_site_symmetry_multiplicity
  _atom_site_fract_x
  _atom_site_fract_y
  _atom_site_fract_z
  _atom_site_occupancy
  Ag  Ag1       1.0  0.51895  0.84884  0.26823  1.0000
  Ag  Ag2       1.0  0.48106  0.15116  0.76823  1.0000
  H   H1        1.0  0.19111  0.91193  0.06877  1.0000
  H   H2        1.0  0.80888  0.08807  0.56877  1.0000
  H   H3        1.0  0.07452  0.85478  0.81176  1.0000
  H   H4        1.0  0.92548  0.14522  0.31176  1.0000
  H   H5        1.0  0.41249  0.50984  0.78056  1.0000
  H   H6        1.0  0.58752  0.49016  0.28057  1.0000
  H   H7        1.0  0.52153  0.58570  0.03804  1.0000
  H   H8        1.0  0.47846  0.41430  0.53805  1.0000
  H   H9        1.0  0.60176  0.77247  0.60022  1.0000
  H   H10       1.0  0.39824  0.22753  0.10022  1.0000
  H   H11       1.0  0.83904  0.67711  0.74437  1.0000
  H   H12       1.0  0.16096  0.32289  0.24437  1.0000
  H   H13       1.0  0.14227  0.68820  0.33124  1.0000
  H   H14       1.0  0.85773  0.31180  0.83124  1.0000
  H   H15       1.0  0.89147  0.78962  0.20389  1.0000
  H   H16       1.0  0.10853  0.21038  0.70389  1.0000
  C   C1        1.0  0.23615  0.82285  0.00138  1.0000
  C   C2        1.0  0.76385  0.17715  0.50138  1.0000
  C   C3        1.0  0.17015  0.78876  0.85673  1.0000
  C   C4        1.0  0.82986  0.21124  0.35673  1.0000
  C   C5        1.0  0.23012  0.67197  0.77495  1.0000
  C   C6        1.0  0.76988  0.32803  0.27496  1.0000
  C   C7        1.0  0.35993  0.59922  0.84129  1.0000
  C   C8        1.0  0.64007  0.40078  0.34130  1.0000
  C   C9        1.0  0.41982  0.64052  0.98538  1.0000
  C   C10       1.0  0.58018  0.35948  0.48538  1.0000
  C   C11       1.0  0.72350  0.75220  0.54465  1.0000
  C   C12       1.0  0.27650  0.24780  0.04465  1.0000
  C   C13       1.0  0.85832  0.69963  0.62482  1.0000
  C   C14       1.0  0.14168  0.30037  0.12481  1.0000
  C   C15       1.0  0.01351  0.67761  0.54865  1.0000
  C   C16       1.0  0.98649  0.32238  0.04865  1.0000
  C   C17       1.0  0.02393  0.70565  0.39390  1.0000
  C   C18       1.0  0.97607  0.29435  0.89390  1.0000
  C   C19       1.0  0.88630  0.76121  0.32296  1.0000
  C   C20       1.0  0.11371  0.23879  0.82296  1.0000
  C   C21       1.0  0.16976  0.62365  0.61928  1.0000
  C   C22       1.0  0.83024  0.37635  0.11929  1.0000
  N   N1        1.0  0.35765  0.74989  0.06576  1.0000
  N   N2        1.0  0.64235  0.25011  0.56576  1.0000
  N   N3        1.0  0.73757  0.78464  0.39716  1.0000
  N   N4        1.0  0.26244  0.21536  0.89716  1.0000
  N   N5        1.0  0.27860  0.02332  0.44981  1.0000
  N   N6        1.0  0.72139  0.97668  0.94981  1.0000
  O   O1        1.0  0.25128  0.53980  0.54559  1.0000
  O   O2        1.0  0.74872  0.46021  0.04560  1.0000
  O   O3        1.0  0.31250  0.02488  0.30920  1.0000
  O   O4        1.0  0.68750  0.97512  0.80920  1.0000
  O   O5        1.0  0.16673  0.09968  0.49931  1.0000
  O   O6        1.0  0.83326  0.90032  0.99931  1.0000
  O   O7        1.0  0.35912  0.94426  0.53694  1.0000
  O   O8        1.0  0.64088  0.05574  0.03694  1.0000
