data_image0
_chemical_formula_structural       Ag4H32C48S4N20O12
_chemical_formula_sum              "Ag4 H32 C48 S4 N20 O12"
_cell_length_a       7.01015
_cell_length_b       13.1222
_cell_length_c       14.7356
_cell_angle_alpha    90.0003
_cell_angle_beta     90.0001
_cell_angle_gamma    102.136

_space_group_name_H-M_alt    "P 1"
_space_group_IT_number       1

loop_
  _space_group_symop_operation_xyz
  'x, y, z'

loop_
  _atom_site_type_symbol
  _atom_site_label
  _atom_site_symmetry_multiplicity
  _atom_site_fract_x
  _atom_site_fract_y
  _atom_site_fract_z
  _atom_site_occupancy
  Ag  Ag1       1.0  0.75267  0.75538  0.47445  1.0000
  Ag  Ag2       1.0  0.25268  0.25538  0.02554  1.0000
  Ag  Ag3       1.0  0.24733  0.24463  0.52555  1.0000
  Ag  Ag4       1.0  0.74733  0.74462  0.97446  1.0000
  H   H1        1.0  0.68835  0.46552  0.73013  1.0000
  H   H2        1.0  0.18835  0.96552  0.76987  1.0000
  H   H3        1.0  0.31165  0.53448  0.26987  1.0000
  H   H4        1.0  0.81165  0.03448  0.23013  1.0000
  H   H5        1.0  0.72793  0.31920  0.62899  1.0000
  H   H6        1.0  0.22793  0.81919  0.87101  1.0000
  H   H7        1.0  0.27207  0.68080  0.37101  1.0000
  H   H8        1.0  0.77207  0.18080  0.12899  1.0000
  H   H9        1.0  0.76533  0.34939  0.46182  1.0000
  H   H10       1.0  0.26532  0.84939  0.03818  1.0000
  H   H11       1.0  0.23467  0.65061  0.53818  1.0000
  H   H12       1.0  0.73467  0.15061  0.96182  1.0000
  H   H13       1.0  0.76304  0.52968  0.40174  1.0000
  H   H14       1.0  0.26303  0.02968  0.09826  1.0000
  H   H15       1.0  0.23697  0.47032  0.59826  1.0000
  H   H16       1.0  0.73696  0.97032  0.90174  1.0000
  H   H17       1.0  0.07532  0.62698  0.68494  1.0000
  H   H18       1.0  0.57533  0.12698  0.81506  1.0000
  H   H19       1.0  0.92467  0.37301  0.31506  1.0000
  H   H20       1.0  0.42467  0.87301  0.18494  1.0000
  H   H21       1.0  0.32395  0.54993  0.76949  1.0000
  H   H22       1.0  0.82395  0.04993  0.73051  1.0000
  H   H23       1.0  0.67605  0.45007  0.23050  1.0000
  H   H24       1.0  0.17605  0.95007  0.26949  1.0000
  H   H25       1.0  0.30723  0.54145  0.93811  1.0000
  H   H26       1.0  0.80722  0.04145  0.56189  1.0000
  H   H27       1.0  0.69278  0.45854  0.06189  1.0000
  H   H28       1.0  0.19278  0.95855  0.43811  1.0000
  H   H29       1.0  0.05115  0.61524  0.01803  1.0000
  H   H30       1.0  0.55115  0.11524  0.48197  1.0000
  H   H31       1.0  0.94886  0.38476  0.98197  1.0000
  H   H32       1.0  0.44886  0.88476  0.51803  1.0000
  C   C1        1.0  0.68170  0.66393  0.67519  1.0000
  C   C2        1.0  0.18170  0.16393  0.82481  1.0000
  C   C3        1.0  0.31830  0.33607  0.32481  1.0000
  C   C4        1.0  0.81829  0.83607  0.17519  1.0000
  C   C5        1.0  0.77241  0.69604  0.76085  1.0000
  C   C6        1.0  0.27242  0.19604  0.73916  1.0000
  C   C7        1.0  0.22759  0.30396  0.23915  1.0000
  C   C8        1.0  0.72758  0.80396  0.26085  1.0000
  C   C9        1.0  0.70823  0.57499  0.61828  1.0000
  C   C10       1.0  0.20823  0.07499  0.88172  1.0000
  C   C11       1.0  0.29177  0.42501  0.38172  1.0000
  C   C12       1.0  0.79177  0.92501  0.11828  1.0000
  C   C13       1.0  0.70591  0.47746  0.65701  1.0000
  C   C14       1.0  0.20590  0.97746  0.84298  1.0000
  C   C15       1.0  0.29410  0.52254  0.34299  1.0000
  C   C16       1.0  0.79410  0.02254  0.15701  1.0000
  C   C17       1.0  0.72807  0.39572  0.60038  1.0000
  C   C18       1.0  0.22806  0.89572  0.89962  1.0000
  C   C19       1.0  0.27193  0.60428  0.39962  1.0000
  C   C20       1.0  0.77193  0.10428  0.10038  1.0000
  C   C21       1.0  0.74936  0.41253  0.50719  1.0000
  C   C22       1.0  0.24936  0.91253  0.99281  1.0000
  C   C23       1.0  0.25064  0.58748  0.49281  1.0000
  C   C24       1.0  0.75063  0.08747  0.00719  1.0000
  C   C25       1.0  0.74817  0.51185  0.47411  1.0000
  C   C26       1.0  0.24816  0.01185  0.02589  1.0000
  C   C27       1.0  0.25184  0.48815  0.52589  1.0000
  C   C28       1.0  0.75183  0.98815  0.97411  1.0000
  C   C29       1.0  0.92460  0.65350  0.80739  1.0000
  C   C30       1.0  0.42461  0.15351  0.69261  1.0000
  C   C31       1.0  0.07540  0.34649  0.19261  1.0000
  C   C32       1.0  0.57539  0.84649  0.30739  1.0000
  C   C33       1.0  0.07049  0.61936  0.75851  1.0000
  C   C34       1.0  0.57050  0.11936  0.74150  1.0000
  C   C35       1.0  0.92950  0.38064  0.24149  1.0000
  C   C36       1.0  0.42950  0.88064  0.25850  1.0000
  C   C37       1.0  0.20980  0.57843  0.80547  1.0000
  C   C38       1.0  0.70980  0.07843  0.69453  1.0000
  C   C39       1.0  0.79020  0.42157  0.19452  1.0000
  C   C40       1.0  0.29020  0.92157  0.30547  1.0000
  C   C41       1.0  0.20210  0.57452  0.89983  1.0000
  C   C42       1.0  0.70210  0.07452  0.60018  1.0000
  C   C43       1.0  0.79790  0.42548  0.10017  1.0000
  C   C44       1.0  0.29790  0.92548  0.39983  1.0000
  C   C45       1.0  0.05752  0.61382  0.94413  1.0000
  C   C46       1.0  0.55752  0.11382  0.55587  1.0000
  C   C47       1.0  0.94248  0.38617  0.05586  1.0000
  C   C48       1.0  0.44248  0.88618  0.44414  1.0000
  S   S1        1.0  0.54817  0.80739  0.72828  1.0000
  S   S2        1.0  0.04818  0.30739  0.77172  1.0000
  S   S3        1.0  0.45182  0.19261  0.27172  1.0000
  S   S4        1.0  0.95182  0.69261  0.22828  1.0000
  N   N1        1.0  0.55376  0.72114  0.64935  1.0000
  N   N2        1.0  0.05376  0.22113  0.85065  1.0000
  N   N3        1.0  0.44624  0.27886  0.35065  1.0000
  N   N4        1.0  0.94624  0.77887  0.14935  1.0000
  N   N5        1.0  0.70728  0.77578  0.79754  1.0000
  N   N6        1.0  0.20729  0.27579  0.70246  1.0000
  N   N7        1.0  0.29272  0.22421  0.20246  1.0000
  N   N8        1.0  0.79272  0.72422  0.29754  1.0000
  N   N9        1.0  0.72892  0.59161  0.52792  1.0000
  N   N10       1.0  0.22892  0.09161  0.97208  1.0000
  N   N11       1.0  0.27109  0.40839  0.47208  1.0000
  N   N12       1.0  0.77107  0.90839  0.02792  1.0000
  N   N13       1.0  0.92099  0.65237  0.89941  1.0000
  N   N14       1.0  0.42100  0.15238  0.60059  1.0000
  N   N15       1.0  0.07901  0.34762  0.10059  1.0000
  N   N16       1.0  0.57900  0.84763  0.39941  1.0000
  N   N17       1.0  0.08826  0.86060  0.60688  1.0000
  N   N18       1.0  0.58826  0.36060  0.89312  1.0000
  N   N19       1.0  0.91175  0.13940  0.39312  1.0000
  N   N20       1.0  0.41174  0.63940  0.10688  1.0000
  O   O1        1.0  0.25191  0.89048  0.64531  1.0000
  O   O2        1.0  0.75191  0.39048  0.85469  1.0000
  O   O3        1.0  0.74810  0.10952  0.35469  1.0000
  O   O4        1.0  0.24809  0.60952  0.14531  1.0000
  O   O5        1.0  0.95254  0.90892  0.61821  1.0000
  O   O6        1.0  0.45254  0.40892  0.88179  1.0000
  O   O7        1.0  0.04747  0.09109  0.38180  1.0000
  O   O8        1.0  0.54746  0.59108  0.11821  1.0000
  O   O9        1.0  0.06181  0.77980  0.55548  1.0000
  O   O10       1.0  0.56181  0.27980  0.94452  1.0000
  O   O11       1.0  0.93819  0.22021  0.44453  1.0000
  O   O12       1.0  0.43819  0.72021  0.05548  1.0000
