data_image0
_chemical_formula_structural       Li2H16C20N8O2F6
_chemical_formula_sum              "Li2 H16 C20 N8 O2 F6"
_cell_length_a       8.14975
_cell_length_b       8.59434
_cell_length_c       8.6312
_cell_angle_alpha    73.4937
_cell_angle_beta     85.0694
_cell_angle_gamma    88.2096

_space_group_name_H-M_alt    "P 1"
_space_group_IT_number       1

loop_
  _space_group_symop_operation_xyz
  'x, y, z'

loop_
  _atom_site_type_symbol
  _atom_site_label
  _atom_site_symmetry_multiplicity
  _atom_site_fract_x
  _atom_site_fract_y
  _atom_site_fract_z
  _atom_site_occupancy
  Li  Li1       1.0  0.75843  0.76176  0.16530  1.0000
  Li  Li2       1.0  0.24156  0.23824  0.83470  1.0000
  H   H1        1.0  0.75045  0.89291  0.49411  1.0000
  H   H2        1.0  0.24955  0.10709  0.50589  1.0000
  H   H3        1.0  0.94644  0.89730  0.38087  1.0000
  H   H4        1.0  0.05356  0.10269  0.61913  1.0000
  H   H5        1.0  0.90523  0.78023  0.72087  1.0000
  H   H6        1.0  0.09478  0.21977  0.27913  1.0000
  H   H7        1.0  0.06093  0.70249  0.60521  1.0000
  H   H8        1.0  0.93908  0.29751  0.39479  1.0000
  H   H9        1.0  0.92440  0.45457  0.67842  1.0000
  H   H10       1.0  0.07560  0.54543  0.32158  1.0000
  H   H11       1.0  0.76018  0.53415  0.78297  1.0000
  H   H12       1.0  0.23982  0.46585  0.21703  1.0000
  H   H13       1.0  0.72708  0.46391  0.48373  1.0000
  H   H14       1.0  0.27292  0.53609  0.51627  1.0000
  H   H15       1.0  0.60158  0.60629  0.55752  1.0000
  H   H16       1.0  0.39843  0.39371  0.44248  1.0000
  C   C1        1.0  0.73087  0.14095  0.10766  1.0000
  C   C2        1.0  0.26912  0.85905  0.89234  1.0000
  C   C3        1.0  0.62018  0.25311  0.15458  1.0000
  C   C4        1.0  0.37982  0.74689  0.84542  1.0000
  C   C5        1.0  0.50632  0.02381  0.21465  1.0000
  C   C6        1.0  0.49368  0.97619  0.78535  1.0000
  C   C7        1.0  0.89035  0.17155  0.03039  1.0000
  C   C8        1.0  0.10965  0.82845  0.96961  1.0000
  C   C9        1.0  0.64934  0.41723  0.14149  1.0000
  C   C10       1.0  0.35066  0.58277  0.85850  1.0000
  C   C11       1.0  0.38282  0.89263  0.28614  1.0000
  C   C12       1.0  0.61719  0.10737  0.71386  1.0000
  C   C13       1.0  0.85685  0.81947  0.46843  1.0000
  C   C14       1.0  0.14315  0.18053  0.53157  1.0000
  C   C15       1.0  0.92756  0.71985  0.62498  1.0000
  C   C16       1.0  0.07244  0.28015  0.37502  1.0000
  C   C17       1.0  0.83646  0.55551  0.66809  1.0000
  C   C18       1.0  0.16355  0.44449  0.33191  1.0000
  C   C19       1.0  0.72899  0.57195  0.52678  1.0000
  C   C20       1.0  0.27102  0.42805  0.47322  1.0000
  N   N1        1.0  0.65563  0.99337  0.14717  1.0000
  N   N2        1.0  0.34437  0.00663  0.85283  1.0000
  N   N3        1.0  0.02190  0.20149  0.96575  1.0000
  N   N4        1.0  0.97809  0.79852  0.03425  1.0000
  N   N5        1.0  0.67845  0.55165  0.13288  1.0000
  N   N6        1.0  0.32154  0.44835  0.86712  1.0000
  N   N7        1.0  0.47702  0.17609  0.22258  1.0000
  N   N8        1.0  0.52297  0.82391  0.77742  1.0000
  O   O1        1.0  0.80194  0.70094  0.39419  1.0000
  O   O2        1.0  0.19806  0.29906  0.60581  1.0000
  F   F1        1.0  0.37556  0.84385  0.45280  1.0000
  F   F2        1.0  0.62445  0.15615  0.54720  1.0000
  F   F3        1.0  0.42027  0.75777  0.23649  1.0000
  F   F4        1.0  0.57973  0.24223  0.76352  1.0000
  F   F5        1.0  0.22713  0.94065  0.24657  1.0000
  F   F6        1.0  0.77287  0.05935  0.75343  1.0000
