data_image0
_chemical_formula_structural       Li4H16C36N16O12F12
_chemical_formula_sum              "Li4 H16 C36 N16 O12 F12"
_cell_length_a       8.61662
_cell_length_b       11.631
_cell_length_c       12.1491
_cell_angle_alpha    106.36
_cell_angle_beta     89.9999
_cell_angle_gamma    90

_space_group_name_H-M_alt    "P 1"
_space_group_IT_number       1

loop_
  _space_group_symop_operation_xyz
  'x, y, z'

loop_
  _atom_site_type_symbol
  _atom_site_label
  _atom_site_symmetry_multiplicity
  _atom_site_fract_x
  _atom_site_fract_y
  _atom_site_fract_z
  _atom_site_occupancy
  Li  Li1       1.0  0.69806  0.70883  0.55685  1.0000
  Li  Li2       1.0  0.19806  0.79117  0.94315  1.0000
  Li  Li3       1.0  0.30194  0.29117  0.44315  1.0000
  Li  Li4       1.0  0.80194  0.20883  0.05685  1.0000
  H   H1        1.0  0.87326  0.93491  0.19056  1.0000
  H   H2        1.0  0.37326  0.56509  0.30944  1.0000
  H   H3        1.0  0.12674  0.06509  0.80944  1.0000
  H   H4        1.0  0.62674  0.43491  0.69056  1.0000
  H   H5        1.0  0.98169  0.79527  0.15477  1.0000
  H   H6        1.0  0.48169  0.70473  0.34523  1.0000
  H   H7        1.0  0.01831  0.20473  0.84523  1.0000
  H   H8        1.0  0.51831  0.29527  0.65477  1.0000
  H   H9        1.0  0.13590  0.86946  0.32366  1.0000
  H   H10       1.0  0.63590  0.63054  0.17634  1.0000
  H   H11       1.0  0.86410  0.13054  0.67634  1.0000
  H   H12       1.0  0.36410  0.36946  0.82366  1.0000
  H   H13       1.0  0.03117  0.00895  0.35749  1.0000
  H   H14       1.0  0.53117  0.49105  0.14251  1.0000
  H   H15       1.0  0.96883  0.99105  0.64251  1.0000
  H   H16       1.0  0.46883  0.50895  0.85749  1.0000
  C   C1        1.0  0.66285  0.30044  0.40592  1.0000
  C   C2        1.0  0.16285  0.19956  0.09408  1.0000
  C   C3        1.0  0.33715  0.69956  0.59408  1.0000
  C   C4        1.0  0.83715  0.80044  0.90592  1.0000
  C   C5        1.0  0.78741  0.21870  0.37137  1.0000
  C   C6        1.0  0.28740  0.28130  0.12863  1.0000
  C   C7        1.0  0.21259  0.78130  0.62863  1.0000
  C   C8        1.0  0.71260  0.71870  0.87137  1.0000
  C   C9        1.0  0.57501  0.12348  0.34053  1.0000
  C   C10       1.0  0.07501  0.37652  0.15947  1.0000
  C   C11       1.0  0.42499  0.87652  0.65947  1.0000
  C   C12       1.0  0.92499  0.62348  0.84053  1.0000
  C   C13       1.0  0.67291  0.42543  0.45199  1.0000
  C   C14       1.0  0.17291  0.07457  0.04801  1.0000
  C   C15       1.0  0.32709  0.57457  0.54801  1.0000
  C   C16       1.0  0.82709  0.92543  0.95199  1.0000
  C   C17       1.0  0.94749  0.24435  0.37697  1.0000
  C   C18       1.0  0.44749  0.25565  0.12303  1.0000
  C   C19       1.0  0.05251  0.75565  0.62303  1.0000
  C   C20       1.0  0.55251  0.74435  0.87697  1.0000
  C   C21       1.0  0.46294  0.02140  0.30277  1.0000
  C   C22       1.0  0.96294  0.47860  0.19723  1.0000
  C   C23       1.0  0.53706  0.97860  0.69723  1.0000
  C   C24       1.0  0.03706  0.52140  0.80277  1.0000
  C   C25       1.0  0.80718  0.81636  0.37418  1.0000
  C   C26       1.0  0.30718  0.68364  0.12582  1.0000
  C   C27       1.0  0.19282  0.18364  0.62582  1.0000
  C   C28       1.0  0.69282  0.31636  0.87418  1.0000
  C   C29       1.0  0.92171  0.86320  0.22212  1.0000
  C   C30       1.0  0.42171  0.63680  0.27788  1.0000
  C   C31       1.0  0.07829  0.13680  0.77788  1.0000
  C   C32       1.0  0.57829  0.36320  0.72212  1.0000
  C   C33       1.0  0.02128  0.91133  0.33023  1.0000
  C   C34       1.0  0.52128  0.58867  0.16977  1.0000
  C   C35       1.0  0.97872  0.08867  0.66977  1.0000
  C   C36       1.0  0.47872  0.41133  0.83023  1.0000
  N   N1        1.0  0.52663  0.23771  0.38588  1.0000
  N   N2        1.0  0.02663  0.26229  0.11412  1.0000
  N   N3        1.0  0.47337  0.76229  0.61412  1.0000
  N   N4        1.0  0.97337  0.73771  0.88588  1.0000
  N   N5        1.0  0.68583  0.52883  0.49048  1.0000
  N   N6        1.0  0.18583  0.97117  0.00952  1.0000
  N   N7        1.0  0.31417  0.47117  0.50952  1.0000
  N   N8        1.0  0.81417  0.02883  0.99048  1.0000
  N   N9        1.0  0.07981  0.26644  0.38201  1.0000
  N   N10       1.0  0.57981  0.23356  0.11800  1.0000
  N   N11       1.0  0.92019  0.73356  0.61799  1.0000
  N   N12       1.0  0.42019  0.76644  0.88201  1.0000
  N   N13       1.0  0.72905  0.10581  0.32984  1.0000
  N   N14       1.0  0.22905  0.39419  0.17016  1.0000
  N   N15       1.0  0.27096  0.89419  0.67016  1.0000
  N   N16       1.0  0.77095  0.60581  0.82984  1.0000
  O   O1        1.0  0.71362  0.77537  0.42875  1.0000
  O   O2        1.0  0.21362  0.72463  0.07125  1.0000
  O   O3        1.0  0.28638  0.22463  0.57125  1.0000
  O   O4        1.0  0.78638  0.27537  0.92875  1.0000
  O   O5        1.0  0.79172  0.80502  0.26180  1.0000
  O   O6        1.0  0.29172  0.69498  0.23820  1.0000
  O   O7        1.0  0.20828  0.19498  0.73820  1.0000
  O   O8        1.0  0.70828  0.30503  0.76180  1.0000
  O   O9        1.0  0.93563  0.87633  0.41927  1.0000
  O   O10       1.0  0.43563  0.62367  0.08073  1.0000
  O   O11       1.0  0.06437  0.12367  0.58073  1.0000
  O   O12       1.0  0.56437  0.37634  0.91927  1.0000
  F   F1        1.0  0.31537  0.06277  0.29679  1.0000
  F   F2        1.0  0.81537  0.43723  0.20321  1.0000
  F   F3        1.0  0.68463  0.93723  0.70321  1.0000
  F   F4        1.0  0.18463  0.56277  0.79679  1.0000
  F   F5        1.0  0.45805  0.95098  0.37592  1.0000
  F   F6        1.0  0.95805  0.54902  0.12408  1.0000
  F   F7        1.0  0.54195  0.04902  0.62408  1.0000
  F   F8        1.0  0.04195  0.45098  0.87592  1.0000
  F   F9        1.0  0.49904  0.94767  0.19713  1.0000
  F   F10       1.0  0.99904  0.55233  0.30287  1.0000
  F   F11       1.0  0.50096  0.05233  0.80287  1.0000
  F   F12       1.0  0.00096  0.44767  0.69713  1.0000
