data_image0
_chemical_formula_structural       Cu8H32C24S16N8
_chemical_formula_sum              "Cu8 H32 C24 S16 N8"
_cell_length_a       9.64152
_cell_length_b       10.2767
_cell_length_c       12.8381
_cell_angle_alpha    70.2066
_cell_angle_beta     82.7697
_cell_angle_gamma    70.6695

_space_group_name_H-M_alt    "P 1"
_space_group_IT_number       1

loop_
  _space_group_symop_operation_xyz
  'x, y, z'

loop_
  _atom_site_type_symbol
  _atom_site_label
  _atom_site_symmetry_multiplicity
  _atom_site_fract_x
  _atom_site_fract_y
  _atom_site_fract_z
  _atom_site_occupancy
  Cu  Cu1       1.0  0.40648  0.59053  0.08999  1.0000
  Cu  Cu2       1.0  0.59352  0.40947  0.91001  1.0000
  Cu  Cu3       1.0  0.03466  0.83577  0.98469  1.0000
  Cu  Cu4       1.0  0.96534  0.16423  0.01531  1.0000
  Cu  Cu5       1.0  0.16172  0.53825  0.05346  1.0000
  Cu  Cu6       1.0  0.83828  0.46175  0.94654  1.0000
  Cu  Cu7       1.0  0.15605  0.71098  0.18063  1.0000
  Cu  Cu8       1.0  0.84395  0.28902  0.81937  1.0000
  H   H1        1.0  0.50320  0.95684  0.75996  1.0000
  H   H2        1.0  0.49680  0.04317  0.24004  1.0000
  H   H3        1.0  0.60868  0.99483  0.84468  1.0000
  H   H4        1.0  0.39132  0.00518  0.15531  1.0000
  H   H5        1.0  0.55728  0.71849  0.88043  1.0000
  H   H6        1.0  0.44272  0.28151  0.11957  1.0000
  H   H7        1.0  0.64834  0.75843  0.97196  1.0000
  H   H8        1.0  0.35166  0.24158  0.02804  1.0000
  H   H9        1.0  0.10834  0.06254  0.77589  1.0000
  H   H10       1.0  0.89166  0.93746  0.22410  1.0000
  H   H11       1.0  0.00366  0.98711  0.72292  1.0000
  H   H12       1.0  0.99634  0.01289  0.27708  1.0000
  H   H13       1.0  0.29273  0.03286  0.64026  1.0000
  H   H14       1.0  0.70727  0.96714  0.35974  1.0000
  H   H15       1.0  0.17758  0.97840  0.57650  1.0000
  H   H16       1.0  0.82242  0.02159  0.42350  1.0000
  H   H17       1.0  0.70308  0.70551  0.38519  1.0000
  H   H18       1.0  0.29692  0.29449  0.61481  1.0000
  H   H19       1.0  0.77336  0.51788  0.46279  1.0000
  H   H20       1.0  0.22665  0.48212  0.53721  1.0000
  H   H21       1.0  0.02529  0.51050  0.40534  1.0000
  H   H22       1.0  0.97471  0.48950  0.59466  1.0000
  H   H23       1.0  0.95203  0.69209  0.40910  1.0000
  H   H24       1.0  0.04797  0.30790  0.59090  1.0000
  H   H25       1.0  0.18551  0.18049  0.18604  1.0000
  H   H26       1.0  0.81448  0.81952  0.81396  1.0000
  H   H27       1.0  0.00814  0.30311  0.19257  1.0000
  H   H28       1.0  0.99186  0.69689  0.80744  1.0000
  H   H29       1.0  0.13937  0.07488  0.37839  1.0000
  H   H30       1.0  0.86062  0.92513  0.62161  1.0000
  H   H31       1.0  0.00928  0.24180  0.38834  1.0000
  H   H32       1.0  0.99072  0.75821  0.61166  1.0000
  C   C1        1.0  0.32451  0.90908  0.99666  1.0000
  C   C2        1.0  0.67548  0.09092  0.00334  1.0000
  C   C3        1.0  0.51908  0.95112  0.84477  1.0000
  C   C4        1.0  0.48092  0.04889  0.15523  1.0000
  C   C5        1.0  0.54645  0.79503  0.92573  1.0000
  C   C6        1.0  0.45355  0.20497  0.07427  1.0000
  C   C7        1.0  0.11463  0.96941  0.74941  1.0000
  C   C8        1.0  0.88537  0.03059  0.25059  1.0000
  C   C9        1.0  0.22881  0.95746  0.65456  1.0000
  C   C10       1.0  0.77119  0.04253  0.34544  1.0000
  C   C11       1.0  0.26592  0.73353  0.82827  1.0000
  C   C12       1.0  0.73408  0.26647  0.17173  1.0000
  C   C13       1.0  0.89332  0.63657  0.19238  1.0000
  C   C14       1.0  0.10668  0.36343  0.80762  1.0000
  C   C15       1.0  0.78679  0.60215  0.38600  1.0000
  C   C16       1.0  0.21321  0.39785  0.61400  1.0000
  C   C17       1.0  0.94182  0.61635  0.36924  1.0000
  C   C18       1.0  0.05818  0.38365  0.63076  1.0000
  C   C19       1.0  0.25388  0.37917  0.27746  1.0000
  C   C20       1.0  0.74612  0.62084  0.72254  1.0000
  C   C21       1.0  0.11944  0.26133  0.22607  1.0000
  C   C22       1.0  0.88055  0.73867  0.77393  1.0000
  C   C23       1.0  0.11579  0.19318  0.35280  1.0000
  C   C24       1.0  0.88421  0.80682  0.64720  1.0000
  S   S1        1.0  0.16378  0.92993  0.07812  1.0000
  S   S2        1.0  0.83621  0.07007  0.92188  1.0000
  S   S3        1.0  0.35169  0.06238  0.89348  1.0000
  S   S4        1.0  0.64831  0.93762  0.10652  1.0000
  S   S5        1.0  0.33304  0.56099  0.92390  1.0000
  S   S6        1.0  0.66696  0.43901  0.07609  1.0000
  S   S7        1.0  0.35256  0.77145  0.69680  1.0000
  S   S8        1.0  0.64744  0.22854  0.30320  1.0000
  S   S9        1.0  0.91655  0.66617  0.05106  1.0000
  S   S10       1.0  0.08345  0.33383  0.94894  1.0000
  S   S11       1.0  0.75990  0.55667  0.26589  1.0000
  S   S12       1.0  0.24010  0.44332  0.73411  1.0000
  S   S13       1.0  0.34025  0.50575  0.26935  1.0000
  S   S14       1.0  0.65975  0.49425  0.73065  1.0000
  S   S15       1.0  0.25922  0.23567  0.40266  1.0000
  S   S16       1.0  0.74077  0.76433  0.59734  1.0000
  N   N1        1.0  0.42511  0.78586  0.00558  1.0000
  N   N2        1.0  0.57489  0.21414  0.99442  1.0000
  N   N3        1.0  0.15297  0.83718  0.84474  1.0000
  N   N4        1.0  0.84703  0.16282  0.15526  1.0000
  N   N5        1.0  0.97269  0.66748  0.25035  1.0000
  N   N6        1.0  0.02731  0.33252  0.74966  1.0000
  N   N7        1.0  0.18184  0.38062  0.19776  1.0000
  N   N8        1.0  0.81815  0.61938  0.80224  1.0000
