data_image0
_chemical_formula_structural       Cd4H28C48N8O16
_chemical_formula_sum              "Cd4 H28 C48 N8 O16"
_cell_length_a       7.41532
_cell_length_b       8.07285
_cell_length_c       18.5052
_cell_angle_alpha    89.9961
_cell_angle_beta     90.0088
_cell_angle_gamma    90.1066

_space_group_name_H-M_alt    "P 1"
_space_group_IT_number       1

loop_
  _space_group_symop_operation_xyz
  'x, y, z'

loop_
  _atom_site_type_symbol
  _atom_site_label
  _atom_site_symmetry_multiplicity
  _atom_site_fract_x
  _atom_site_fract_y
  _atom_site_fract_z
  _atom_site_occupancy
  Cd  Cd1       1.0  0.43876  0.47301  0.30269  1.0000
  Cd  Cd2       1.0  0.06123  0.52694  0.80271  1.0000
  Cd  Cd3       1.0  0.56125  0.52698  0.69732  1.0000
  Cd  Cd4       1.0  0.93877  0.47307  0.19730  1.0000
  H   H1        1.0  0.59931  0.11326  0.22720  1.0000
  H   H2        1.0  0.90081  0.88675  0.72715  1.0000
  H   H3        1.0  0.40072  0.88673  0.77280  1.0000
  H   H4        1.0  0.09918  0.11324  0.27284  1.0000
  H   H5        1.0  0.51691  0.35872  0.47483  1.0000
  H   H6        1.0  0.98309  0.64131  0.97481  1.0000
  H   H7        1.0  0.48311  0.64129  0.52516  1.0000
  H   H8        1.0  0.01689  0.35870  0.02518  1.0000
  H   H9        1.0  0.83092  0.96398  0.56662  1.0000
  H   H10       1.0  0.66895  0.03601  0.06649  1.0000
  H   H11       1.0  0.16906  0.03601  0.43338  1.0000
  H   H12       1.0  0.33103  0.96398  0.93349  1.0000
  H   H13       1.0  0.88978  0.84449  0.44450  1.0000
  H   H14       1.0  0.61019  0.15554  0.94436  1.0000
  H   H15       1.0  0.11023  0.15551  0.55550  1.0000
  H   H16       1.0  0.38978  0.84445  0.05563  1.0000
  H   H17       1.0  0.74698  0.36172  0.06702  1.0000
  H   H18       1.0  0.75302  0.63822  0.56699  1.0000
  H   H19       1.0  0.25293  0.63832  0.93300  1.0000
  H   H20       1.0  0.24710  0.36175  0.43303  1.0000
  H   H21       1.0  0.76524  0.39042  0.93322  1.0000
  H   H22       1.0  0.73476  0.60958  0.43320  1.0000
  H   H23       1.0  0.23468  0.60965  0.06679  1.0000
  H   H24       1.0  0.26536  0.39036  0.56682  1.0000
  H   H25       1.0  0.77209  0.89228  0.29266  1.0000
  H   H26       1.0  0.72799  0.10773  0.79254  1.0000
  H   H27       1.0  0.22792  0.10772  0.70734  1.0000
  H   H28       1.0  0.27200  0.89226  0.20745  1.0000
  C   C1        1.0  0.61903  0.11115  0.28526  1.0000
  C   C2        1.0  0.88104  0.88884  0.78519  1.0000
  C   C3        1.0  0.38099  0.88886  0.71474  1.0000
  C   C4        1.0  0.11895  0.11116  0.21480  1.0000
  C   C5        1.0  0.61673  0.17304  0.40001  1.0000
  C   C6        1.0  0.88325  0.82696  0.89995  1.0000
  C   C7        1.0  0.38329  0.82696  0.59999  1.0000
  C   C8        1.0  0.11674  0.17305  0.10005  1.0000
  C   C9        1.0  0.59133  0.24383  0.46802  1.0000
  C   C10       1.0  0.90864  0.75619  0.96797  1.0000
  C   C11       1.0  0.40869  0.75618  0.53197  1.0000
  C   C12       1.0  0.09134  0.24381  0.03202  1.0000
  C   C13       1.0  0.66790  0.16481  0.52787  1.0000
  C   C14       1.0  0.83203  0.83520  0.02780  1.0000
  C   C15       1.0  0.33210  0.83519  0.47213  1.0000
  C   C16       1.0  0.16797  0.16481  0.97219  1.0000
  C   C17       1.0  0.77204  0.02026  0.51864  1.0000
  C   C18       1.0  0.72790  0.97976  0.01854  1.0000
  C   C19       1.0  0.22796  0.97974  0.48136  1.0000
  C   C20       1.0  0.27208  0.02024  0.98145  1.0000
  C   C21       1.0  0.80353  0.95183  0.45097  1.0000
  C   C22       1.0  0.69644  0.04818  0.95085  1.0000
  C   C23       1.0  0.19647  0.04817  0.54903  1.0000
  C   C24       1.0  0.30355  0.95183  0.04914  1.0000
  C   C25       1.0  0.72117  0.02752  0.39194  1.0000
  C   C26       1.0  0.77881  0.97247  0.89184  1.0000
  C   C27       1.0  0.27884  0.97248  0.60806  1.0000
  C   C28       1.0  0.22118  0.02752  0.10815  1.0000
  C   C29       1.0  0.64560  0.23783  0.60236  1.0000
  C   C30       1.0  0.85433  0.76220  0.10231  1.0000
  C   C31       1.0  0.35440  0.76217  0.39763  1.0000
  C   C32       1.0  0.14564  0.23780  0.89768  1.0000
  C   C33       1.0  0.48850  0.48191  0.15513  1.0000
  C   C34       1.0  0.01149  0.51806  0.65513  1.0000
  C   C35       1.0  0.51142  0.51816  0.84488  1.0000
  C   C36       1.0  0.98856  0.48190  0.34488  1.0000
  C   C37       1.0  0.49268  0.48803  0.07510  1.0000
  C   C38       1.0  0.00734  0.51194  0.57510  1.0000
  C   C39       1.0  0.50724  0.51201  0.92492  1.0000
  C   C40       1.0  0.99275  0.48800  0.42492  1.0000
  C   C41       1.0  0.63991  0.42325  0.03737  1.0000
  C   C42       1.0  0.86011  0.57672  0.53736  1.0000
  C   C43       1.0  0.36002  0.57678  0.96264  1.0000
  C   C44       1.0  0.14001  0.42324  0.46266  1.0000
  C   C45       1.0  0.64871  0.43673  0.96270  1.0000
  C   C46       1.0  0.85129  0.56325  0.46269  1.0000
  C   C47       1.0  0.35122  0.56331  0.03731  1.0000
  C   C48       1.0  0.14881  0.43670  0.53733  1.0000
  N   N1        1.0  0.55586  0.22227  0.33188  1.0000
  N   N2        1.0  0.94415  0.77770  0.83183  1.0000
  N   N3        1.0  0.44416  0.77772  0.66812  1.0000
  N   N4        1.0  0.05582  0.22230  0.16816  1.0000
  N   N5        1.0  0.71886  0.99253  0.31851  1.0000
  N   N6        1.0  0.78118  0.00747  0.81840  1.0000
  N   N7        1.0  0.28114  0.00746  0.68149  1.0000
  N   N8        1.0  0.21880  0.99252  0.18158  1.0000
  O   O1        1.0  0.72288  0.17642  0.65622  1.0000
  O   O2        1.0  0.77705  0.82359  0.15615  1.0000
  O   O3        1.0  0.27710  0.82357  0.34377  1.0000
  O   O4        1.0  0.22293  0.17644  0.84384  1.0000
  O   O5        1.0  0.54291  0.36880  0.60397  1.0000
  O   O6        1.0  0.95703  0.63124  0.10394  1.0000
  O   O7        1.0  0.45711  0.63122  0.39603  1.0000
  O   O8        1.0  0.04291  0.36874  0.89605  1.0000
  O   O9        1.0  0.62030  0.41767  0.19012  1.0000
  O   O10       1.0  0.87973  0.58231  0.69010  1.0000
  O   O11       1.0  0.37967  0.58241  0.80989  1.0000
  O   O12       1.0  0.12031  0.41760  0.30990  1.0000
  O   O13       1.0  0.35148  0.54012  0.18861  1.0000
  O   O14       1.0  0.14853  0.45982  0.68863  1.0000
  O   O15       1.0  0.64848  0.45994  0.81141  1.0000
  O   O16       1.0  0.85154  0.54014  0.31140  1.0000
