data_image0
_chemical_formula_structural       H30Pb2C40N4O12
_chemical_formula_sum              "H30 Pb2 C40 N4 O12"
_cell_length_a       9.85146
_cell_length_b       9.9584
_cell_length_c       11.3447
_cell_angle_alpha    65.3001
_cell_angle_beta     84.446
_cell_angle_gamma    67.7816

_space_group_name_H-M_alt    "P 1"
_space_group_IT_number       1

loop_
  _space_group_symop_operation_xyz
  'x, y, z'

loop_
  _atom_site_type_symbol
  _atom_site_label
  _atom_site_symmetry_multiplicity
  _atom_site_fract_x
  _atom_site_fract_y
  _atom_site_fract_z
  _atom_site_occupancy
  H   H1        1.0  0.27291  0.36059  0.19408  1.0000
  H   H2        1.0  0.72710  0.63941  0.80593  1.0000
  H   H3        1.0  0.07695  0.75553  0.82679  1.0000
  H   H4        1.0  0.92306  0.24446  0.17322  1.0000
  H   H5        1.0  0.82946  0.69301  0.16850  1.0000
  H   H6        1.0  0.17054  0.30698  0.83150  1.0000
  H   H7        1.0  0.31261  0.69132  0.78910  1.0000
  H   H8        1.0  0.68739  0.30868  0.21090  1.0000
  H   H9        1.0  0.23891  0.56914  0.76194  1.0000
  H   H10       1.0  0.76109  0.43086  0.23806  1.0000
  H   H11       1.0  0.42877  0.63662  0.57812  1.0000
  H   H12       1.0  0.57123  0.36338  0.42188  1.0000
  H   H13       1.0  0.67796  0.49402  0.52010  1.0000
  H   H14       1.0  0.32204  0.50599  0.47990  1.0000
  H   H15       1.0  0.79931  0.16561  0.90224  1.0000
  H   H16       1.0  0.20068  0.83439  0.09776  1.0000
  H   H17       1.0  0.55766  0.29680  0.97635  1.0000
  H   H18       1.0  0.44234  0.70320  0.02365  1.0000
  H   H19       1.0  0.85081  0.82334  0.75818  1.0000
  H   H20       1.0  0.14919  0.17667  0.24182  1.0000
  H   H21       1.0  0.84023  0.01546  0.73535  1.0000
  H   H22       1.0  0.15977  0.98454  0.26466  1.0000
  H   H23       1.0  0.65749  0.08554  0.54368  1.0000
  H   H24       1.0  0.34252  0.91447  0.45632  1.0000
  H   H25       1.0  0.38641  0.18957  0.48723  1.0000
  H   H26       1.0  0.61360  0.81043  0.51277  1.0000
  H   H27       1.0  0.30020  0.01508  0.87514  1.0000
  H   H28       1.0  0.69980  0.98492  0.12485  1.0000
  H   H29       1.0  0.56666  0.90162  0.94804  1.0000
  H   H30       1.0  0.43333  0.09838  0.05196  1.0000
  Pb  Pb1       1.0  0.03646  0.22780  0.61677  1.0000
  Pb  Pb2       1.0  0.96355  0.77220  0.38323  1.0000
  C   C1        1.0  0.03844  0.42938  0.33737  1.0000
  C   C2        1.0  0.96155  0.57062  0.66264  1.0000
  C   C3        1.0  0.05138  0.51986  0.19603  1.0000
  C   C4        1.0  0.94861  0.48014  0.80398  1.0000
  C   C5        1.0  0.17934  0.46598  0.13733  1.0000
  C   C6        1.0  0.82066  0.53401  0.86268  1.0000
  C   C7        1.0  0.18718  0.55009  0.00430  1.0000
  C   C8        1.0  0.81281  0.44990  0.99570  1.0000
  C   C9        1.0  0.06926  0.68830  0.92966  1.0000
  C   C10       1.0  0.93074  0.31169  0.07034  1.0000
  C   C11       1.0  0.94096  0.73825  0.99057  1.0000
  C   C12       1.0  0.05903  0.26175  0.00944  1.0000
  C   C13       1.0  0.93152  0.65624  0.12340  1.0000
  C   C14       1.0  0.06849  0.34375  0.87661  1.0000
  C   C15       1.0  0.32686  0.56604  0.81760  1.0000
  C   C16       1.0  0.67314  0.43395  0.18240  1.0000
  C   C17       1.0  0.47403  0.47787  0.78263  1.0000
  C   C18       1.0  0.52597  0.52212  0.21737  1.0000
  C   C19       1.0  0.50897  0.53296  0.65267  1.0000
  C   C20       1.0  0.49103  0.46704  0.34733  1.0000
  C   C21       1.0  0.64651  0.45327  0.62027  1.0000
  C   C22       1.0  0.35349  0.54673  0.37973  1.0000
  C   C23       1.0  0.71426  0.27066  0.83260  1.0000
  C   C24       1.0  0.28573  0.72934  0.16739  1.0000
  C   C25       1.0  0.57956  0.34289  0.87419  1.0000
  C   C26       1.0  0.42043  0.65711  0.12581  1.0000
  C   C27       1.0  0.79528  0.92207  0.78800  1.0000
  C   C28       1.0  0.20472  0.07793  0.21200  1.0000
  C   C29       1.0  0.63358  0.98684  0.75148  1.0000
  C   C30       1.0  0.36642  0.01317  0.24852  1.0000
  C   C31       1.0  0.58175  0.06773  0.62020  1.0000
  C   C32       1.0  0.41825  0.93228  0.37981  1.0000
  C   C33       1.0  0.43154  0.12570  0.58827  1.0000
  C   C34       1.0  0.56846  0.87431  0.41173  1.0000
  C   C35       1.0  0.38291  0.02820  0.80401  1.0000
  C   C36       1.0  0.61709  0.97180  0.19599  1.0000
  C   C37       1.0  0.53110  0.96581  0.84503  1.0000
  C   C38       1.0  0.46890  0.03420  0.15497  1.0000
  C   C39       1.0  0.92646  0.06762  0.46079  1.0000
  C   C40       1.0  0.07355  0.93238  0.53920  1.0000
  N   N1        1.0  0.33298  0.10754  0.67839  1.0000
  N   N2        1.0  0.66702  0.89247  0.32161  1.0000
  N   N3        1.0  0.74846  0.32374  0.70842  1.0000
  N   N4        1.0  0.25153  0.67626  0.29157  1.0000
  O   O1        1.0  0.86860  0.18596  0.48967  1.0000
  O   O2        1.0  0.13141  0.81402  0.51033  1.0000
  O   O3        1.0  0.87303  0.05020  0.37289  1.0000
  O   O4        1.0  0.12699  0.94980  0.62709  1.0000
  O   O5        1.0  0.93067  0.49407  0.39282  1.0000
  O   O6        1.0  0.06932  0.50593  0.60718  1.0000
  O   O7        1.0  0.13592  0.28985  0.39740  1.0000
  O   O8        1.0  0.86407  0.71015  0.60260  1.0000
  O   O9        1.0  0.81746  0.86785  0.92577  1.0000
  O   O10       1.0  0.18255  0.13214  0.07424  1.0000
  O   O11       1.0  0.31575  0.48863  0.95429  1.0000
  O   O12       1.0  0.68425  0.51136  0.04571  1.0000
