data_image0
_chemical_formula_structural       Cu2H34C38N10O12
_chemical_formula_sum              "Cu2 H34 C38 N10 O12"
_cell_length_a       8.11994
_cell_length_b       11.0989
_cell_length_c       11.5607
_cell_angle_alpha    75.8773
_cell_angle_beta     71.16
_cell_angle_gamma    76.0199

_space_group_name_H-M_alt    "P 1"
_space_group_IT_number       1

loop_
  _space_group_symop_operation_xyz
  'x, y, z'

loop_
  _atom_site_type_symbol
  _atom_site_label
  _atom_site_symmetry_multiplicity
  _atom_site_fract_x
  _atom_site_fract_y
  _atom_site_fract_z
  _atom_site_occupancy
  Cu  Cu1       1.0  0.25527  0.20002  0.29270  1.0000
  Cu  Cu2       1.0  0.74472  0.79998  0.70730  1.0000
  H   H1        1.0  0.19306  0.15013  0.68276  1.0000
  H   H2        1.0  0.80695  0.84986  0.31724  1.0000
  H   H3        1.0  0.91623  0.30863  0.73330  1.0000
  H   H4        1.0  0.08378  0.69136  0.26669  1.0000
  H   H5        1.0  0.90618  0.49279  0.82392  1.0000
  H   H6        1.0  0.09383  0.50721  0.17607  1.0000
  H   H7        1.0  0.16872  0.52406  0.87093  1.0000
  H   H8        1.0  0.83129  0.47593  0.12906  1.0000
  H   H9        1.0  0.66409  0.41885  0.98758  1.0000
  H   H10       1.0  0.33591  0.58115  0.01242  1.0000
  H   H11       1.0  0.71171  0.26650  0.94385  1.0000
  H   H12       1.0  0.28828  0.73349  0.05615  1.0000
  H   H13       1.0  0.40973  0.03767  0.10435  1.0000
  H   H14       1.0  0.59025  0.96232  0.89567  1.0000
  H   H15       1.0  0.31128  0.94848  0.96657  1.0000
  H   H16       1.0  0.68870  0.05150  0.03347  1.0000
  H   H17       1.0  0.77575  0.12106  0.14133  1.0000
  H   H18       1.0  0.22424  0.87895  0.85867  1.0000
  H   H19       1.0  0.90071  0.20071  0.27035  1.0000
  H   H20       1.0  0.09928  0.79932  0.72963  1.0000
  H   H21       1.0  0.10080  0.43496  0.40153  1.0000
  H   H22       1.0  0.89920  0.56504  0.59847  1.0000
  H   H23       1.0  0.20237  0.57462  0.49158  1.0000
  H   H24       1.0  0.79763  0.42539  0.50842  1.0000
  H   H25       1.0  0.70680  0.31789  0.43784  1.0000
  H   H26       1.0  0.29320  0.68212  0.56215  1.0000
  H   H27       1.0  0.57746  0.18774  0.35525  1.0000
  H   H28       1.0  0.42253  0.81227  0.64473  1.0000
  H   H29       1.0  0.85885  0.15978  0.59019  1.0000
  H   H30       1.0  0.14116  0.84022  0.40981  1.0000
  H   H31       1.0  0.42717  0.95065  0.34790  1.0000
  H   H32       1.0  0.57284  0.04935  0.65209  1.0000
  H   H33       1.0  0.31189  0.02203  0.46150  1.0000
  H   H34       1.0  0.68811  0.97798  0.53849  1.0000
  C   C1        1.0  0.32865  0.35579  0.79903  1.0000
  C   C2        1.0  0.67136  0.64421  0.20097  1.0000
  C   C3        1.0  0.33701  0.25098  0.74664  1.0000
  C   C4        1.0  0.66300  0.74901  0.25336  1.0000
  C   C5        1.0  0.18784  0.23079  0.72280  1.0000
  C   C6        1.0  0.81217  0.76920  0.27720  1.0000
  C   C7        1.0  0.03541  0.31983  0.75087  1.0000
  C   C8        1.0  0.96460  0.68016  0.24913  1.0000
  C   C9        1.0  0.02909  0.42535  0.80228  1.0000
  C   C10       1.0  0.97092  0.57464  0.19772  1.0000
  C   C11       1.0  0.17451  0.44535  0.82841  1.0000
  C   C12       1.0  0.82549  0.55465  0.17159  1.0000
  C   C13       1.0  0.60968  0.34976  0.96340  1.0000
  C   C14       1.0  0.39032  0.65024  0.03660  1.0000
  C   C15       1.0  0.44678  0.31584  0.06746  1.0000
  C   C16       1.0  0.55322  0.68416  0.93254  1.0000
  C   C17       1.0  0.27081  0.05407  0.10801  1.0000
  C   C18       1.0  0.72918  0.94592  0.89201  1.0000
  C   C19       1.0  0.21358  0.00456  0.03160  1.0000
  C   C20       1.0  0.78640  0.99542  0.96842  1.0000
  C   C21       1.0  0.03276  0.02628  0.03972  1.0000
  C   C22       1.0  0.96723  0.97371  0.96030  1.0000
  C   C23       1.0  0.91840  0.09931  0.12734  1.0000
  C   C24       1.0  0.08159  0.90069  0.87266  1.0000
  C   C25       1.0  0.98621  0.14563  0.20045  1.0000
  C   C26       1.0  0.01377  0.85439  0.79955  1.0000
  C   C27       1.0  0.23397  0.41314  0.41189  1.0000
  C   C28       1.0  0.76602  0.58687  0.58810  1.0000
  C   C29       1.0  0.29286  0.49068  0.46215  1.0000
  C   C30       1.0  0.70714  0.50933  0.53784  1.0000
  C   C31       1.0  0.46589  0.45994  0.47357  1.0000
  C   C32       1.0  0.53411  0.54007  0.52642  1.0000
  C   C33       1.0  0.57101  0.34926  0.43262  1.0000
  C   C34       1.0  0.42899  0.65075  0.56737  1.0000
  C   C35       1.0  0.50212  0.27593  0.38452  1.0000
  C   C36       1.0  0.49787  0.72408  0.61548  1.0000
  C   C37       1.0  0.99539  0.14313  0.52755  1.0000
  C   C38       1.0  0.00461  0.85687  0.47245  1.0000
  N   N1        1.0  0.49747  0.34048  0.80613  1.0000
  N   N2        1.0  0.50254  0.65951  0.19386  1.0000
  N   N3        1.0  0.60304  0.23830  0.76181  1.0000
  N   N4        1.0  0.39697  0.76170  0.23819  1.0000
  N   N5        1.0  0.50659  0.18279  0.72667  1.0000
  N   N6        1.0  0.49342  0.81720  0.27333  1.0000
  N   N7        1.0  0.15989  0.12434  0.19123  1.0000
  N   N8        1.0  0.84009  0.87567  0.80877  1.0000
  N   N9        1.0  0.33624  0.30756  0.37352  1.0000
  N   N10       1.0  0.66375  0.69244  0.62648  1.0000
  O   O1        1.0  0.56552  0.41694  0.84905  1.0000
  O   O2        1.0  0.43449  0.58306  0.15095  1.0000
  O   O3        1.0  0.48084  0.21796  0.14895  1.0000
  O   O4        1.0  0.51915  0.78204  0.85105  1.0000
  O   O5        1.0  0.29857  0.38200  0.06945  1.0000
  O   O6        1.0  0.70142  0.61800  0.93054  1.0000
  O   O7        1.0  0.40956  0.02770  0.38285  1.0000
  O   O8        1.0  0.59045  0.97230  0.61715  1.0000
  O   O9        1.0  0.01753  0.21880  0.42143  1.0000
  O   O10       1.0  0.98246  0.78121  0.57857  1.0000
  O   O11       1.0  0.10752  0.05803  0.56600  1.0000
  O   O12       1.0  0.89248  0.94196  0.43400  1.0000
