data_image0
_chemical_formula_structural       NiP2H22C10O10
_chemical_formula_sum              "Ni1 P2 H22 C10 O10"
_cell_length_a       4.87915
_cell_length_b       6.92831
_cell_length_c       11.8496
_cell_angle_alpha    97.5653
_cell_angle_beta     90.2468
_cell_angle_gamma    105.267

_space_group_name_H-M_alt    "P 1"
_space_group_IT_number       1

loop_
  _space_group_symop_operation_xyz
  'x, y, z'

loop_
  _atom_site_type_symbol
  _atom_site_label
  _atom_site_symmetry_multiplicity
  _atom_site_fract_x
  _atom_site_fract_y
  _atom_site_fract_z
  _atom_site_occupancy
  Ni  Ni1       1.0  0.00001  1.00000  0.00000  1.0000
  P   P1        1.0  0.79151  0.28498  0.79968  1.0000
  P   P2        1.0  0.20849  0.71502  0.20031  1.0000
  H   H1        1.0  0.26333  0.41870  0.80349  1.0000
  H   H2        1.0  0.73668  0.58130  0.19651  1.0000
  H   H3        1.0  0.60864  0.15138  0.08681  1.0000
  H   H4        1.0  0.39137  0.84861  0.91319  1.0000
  H   H5        1.0  0.87972  0.26686  0.15952  1.0000
  H   H6        1.0  0.12029  0.73313  0.84048  1.0000
  H   H7        1.0  0.43086  0.28830  0.95589  1.0000
  H   H8        1.0  0.56916  0.71171  0.04411  1.0000
  H   H9        1.0  0.34327  0.36693  0.07896  1.0000
  H   H10       1.0  0.65675  0.63307  0.92104  1.0000
  H   H11       1.0  0.05719  0.36733  0.52303  1.0000
  H   H12       1.0  0.94279  0.63266  0.47697  1.0000
  H   H13       1.0  0.44344  0.08054  0.66586  1.0000
  H   H14       1.0  0.55655  0.91945  0.33414  1.0000
  H   H15       1.0  0.61034  0.31295  0.62000  1.0000
  H   H16       1.0  0.38964  0.68705  0.38000  1.0000
  H   H17       1.0  0.58987  0.58500  0.61118  1.0000
  H   H18       1.0  0.41014  0.41502  0.38882  1.0000
  H   H19       1.0  0.37507  0.75645  0.61981  1.0000
  H   H20       1.0  0.62491  0.24355  0.38019  1.0000
  H   H21       1.0  0.64305  0.78683  0.72580  1.0000
  H   H22       1.0  0.35695  0.21319  0.27421  1.0000
  C   C1        1.0  0.03091  0.20440  0.51212  1.0000
  C   C2        1.0  0.96907  0.79561  0.48788  1.0000
  C   C3        1.0  0.80205  0.87719  0.56620  1.0000
  C   C4        1.0  0.19794  0.12282  0.43380  1.0000
  C   C5        1.0  0.65215  0.18474  0.65579  1.0000
  C   C6        1.0  0.34783  0.81526  0.34421  1.0000
  C   C7        1.0  0.83340  0.08686  0.57796  1.0000
  C   C8        1.0  0.16657  0.91315  0.42204  1.0000
  C   C9        1.0  0.59244  0.74389  0.63407  1.0000
  C   C10       1.0  0.40755  0.25611  0.36593  1.0000
  O   O1        1.0  0.58093  0.40254  0.85089  1.0000
  O   O2        1.0  0.41908  0.59746  0.14911  1.0000
  O   O3        1.0  0.84085  0.12358  0.86376  1.0000
  O   O4        1.0  0.15917  0.87642  0.13624  1.0000
  O   O5        1.0  0.08220  0.45670  0.78781  1.0000
  O   O6        1.0  0.91781  0.54329  0.21219  1.0000
  O   O7        1.0  0.78253  0.12978  0.12242  1.0000
  O   O8        1.0  0.21748  0.87021  0.87758  1.0000
  O   O9        1.0  0.35362  0.23981  0.02906  1.0000
  O   O10       1.0  0.64639  0.76018  0.97094  1.0000
