data_image0
_chemical_formula_structural       Zn2H48C56N8O12
_chemical_formula_sum              "Zn2 H48 C56 N8 O12"
_cell_length_a       10.7189
_cell_length_b       11.4583
_cell_length_c       11.9878
_cell_angle_alpha    88.1077
_cell_angle_beta     84.4417
_cell_angle_gamma    73.8616

_space_group_name_H-M_alt    "P 1"
_space_group_IT_number       1

loop_
  _space_group_symop_operation_xyz
  'x, y, z'

loop_
  _atom_site_type_symbol
  _atom_site_label
  _atom_site_symmetry_multiplicity
  _atom_site_fract_x
  _atom_site_fract_y
  _atom_site_fract_z
  _atom_site_occupancy
  Zn  Zn1       1.0  0.56978  0.06650  0.75032  1.0000
  Zn  Zn2       1.0  0.43022  0.93349  0.24968  1.0000
  H   H1        1.0  0.86580  0.21671  0.26308  1.0000
  H   H2        1.0  0.13421  0.78329  0.73689  1.0000
  H   H3        1.0  0.97344  0.18358  0.37241  1.0000
  H   H4        1.0  0.02655  0.81642  0.62758  1.0000
  H   H5        1.0  0.02589  0.23178  0.23756  1.0000
  H   H6        1.0  0.97411  0.76823  0.76243  1.0000
  H   H7        1.0  0.82842  0.63021  0.35286  1.0000
  H   H8        1.0  0.17158  0.36979  0.64713  1.0000
  H   H9        1.0  0.74117  0.81894  0.46340  1.0000
  H   H10       1.0  0.25884  0.18105  0.53659  1.0000
  H   H11       1.0  0.76187  0.60772  0.76893  1.0000
  H   H12       1.0  0.23813  0.39228  0.23105  1.0000
  H   H13       1.0  0.85597  0.41986  0.65911  1.0000
  H   H14       1.0  0.14402  0.58014  0.34088  1.0000
  H   H15       1.0  0.58166  0.64103  0.03786  1.0000
  H   H16       1.0  0.41834  0.35898  0.96214  1.0000
  H   H17       1.0  0.65546  0.55721  0.15356  1.0000
  H   H18       1.0  0.34454  0.44280  0.84643  1.0000
  H   H19       1.0  0.53240  0.51249  0.08819  1.0000
  H   H20       1.0  0.46760  0.48751  0.91181  1.0000
  H   H21       1.0  0.87200  0.32819  0.82077  1.0000
  H   H22       1.0  0.12801  0.67182  0.17923  1.0000
  H   H23       1.0  0.08828  0.20828  0.72874  1.0000
  H   H24       1.0  0.91172  0.79172  0.27127  1.0000
  H   H25       1.0  0.27089  0.23940  0.02567  1.0000
  H   H26       1.0  0.72912  0.76060  0.97434  1.0000
  H   H27       1.0  0.06010  0.36584  0.11298  1.0000
  H   H28       1.0  0.93990  0.63416  0.88704  1.0000
  H   H29       1.0  0.53657  0.13981  0.50731  1.0000
  H   H30       1.0  0.46344  0.86019  0.49270  1.0000
  H   H31       1.0  0.49094  0.32958  0.39544  1.0000
  H   H32       1.0  0.50906  0.67041  0.60456  1.0000
  H   H33       1.0  0.55656  0.51240  0.68686  1.0000
  H   H34       1.0  0.44344  0.48760  0.31314  1.0000
  H   H35       1.0  0.60245  0.31627  0.78366  1.0000
  H   H36       1.0  0.39754  0.68373  0.21634  1.0000
  H   H37       1.0  0.84952  0.04426  0.70172  1.0000
  H   H38       1.0  0.15048  0.95573  0.29829  1.0000
  H   H39       1.0  0.04859  0.00117  0.80263  1.0000
  H   H40       1.0  0.95140  0.99883  0.19737  1.0000
  H   H41       1.0  0.79604  0.04266  0.11245  1.0000
  H   H42       1.0  0.20395  0.95735  0.88756  1.0000
  H   H43       1.0  0.60871  0.08456  0.99771  1.0000
  H   H44       1.0  0.39128  0.91544  0.00230  1.0000
  H   H45       1.0  0.93110  0.32875  0.49188  1.0000
  H   H46       1.0  0.06889  0.67124  0.50810  1.0000
  H   H47       1.0  0.84312  0.43982  0.11265  1.0000
  H   H48       1.0  0.15687  0.56019  0.88736  1.0000
  C   C1        1.0  0.94263  0.24372  0.30116  1.0000
  C   C2        1.0  0.05737  0.75628  0.69882  1.0000
  C   C3        1.0  0.89144  0.37626  0.33217  1.0000
  C   C4        1.0  0.10856  0.62374  0.66781  1.0000
  C   C5        1.0  0.84642  0.51268  0.49871  1.0000
  C   C6        1.0  0.15357  0.48731  0.50127  1.0000
  C   C7        1.0  0.81669  0.62586  0.44375  1.0000
  C   C8        1.0  0.18331  0.37414  0.55624  1.0000
  C   C9        1.0  0.76819  0.73163  0.50686  1.0000
  C   C10       1.0  0.23182  0.26836  0.49314  1.0000
  C   C11       1.0  0.74651  0.72655  0.62406  1.0000
  C   C12       1.0  0.25350  0.27345  0.37593  1.0000
  C   C13       1.0  0.78035  0.61316  0.67823  1.0000
  C   C14       1.0  0.21965  0.38683  0.32176  1.0000
  C   C15       1.0  0.83103  0.50765  0.61627  1.0000
  C   C16       1.0  0.16897  0.49234  0.38371  1.0000
  C   C17       1.0  0.67904  0.83790  0.69136  1.0000
  C   C18       1.0  0.32097  0.16210  0.30863  1.0000
  C   C19       1.0  0.61690  0.54952  0.07360  1.0000
  C   C20       1.0  0.38310  0.45048  0.92640  1.0000
  C   C21       1.0  0.71737  0.47214  0.98993  1.0000
  C   C22       1.0  0.28264  0.52786  0.01006  1.0000
  C   C23       1.0  0.95186  0.35370  0.97287  1.0000
  C   C24       1.0  0.04815  0.64630  0.02714  1.0000
  C   C25       1.0  0.96027  0.30970  0.86351  1.0000
  C   C26       1.0  0.03974  0.69030  0.13650  1.0000
  C   C27       1.0  0.08022  0.24294  0.81354  1.0000
  C   C28       1.0  0.91978  0.75707  0.18646  1.0000
  C   C29       1.0  0.19350  0.21696  0.86985  1.0000
  C   C30       1.0  0.80650  0.78304  0.13016  1.0000
  C   C31       1.0  0.18467  0.26039  0.97935  1.0000
  C   C32       1.0  0.81533  0.73961  0.02066  1.0000
  C   C33       1.0  0.06590  0.32856  0.02949  1.0000
  C   C34       1.0  0.93410  0.67144  0.97052  1.0000
  C   C35       1.0  0.31995  0.14523  0.81252  1.0000
  C   C36       1.0  0.68006  0.85478  0.18749  1.0000
  C   C37       1.0  0.54130  0.22479  0.54278  1.0000
  C   C38       1.0  0.45870  0.77521  0.45722  1.0000
  C   C39       1.0  0.51582  0.33221  0.48097  1.0000
  C   C40       1.0  0.48418  0.66779  0.51903  1.0000
  C   C41       1.0  0.51669  0.44129  0.53070  1.0000
  C   C42       1.0  0.48331  0.55871  0.46930  1.0000
  C   C43       1.0  0.55012  0.43381  0.64169  1.0000
  C   C44       1.0  0.44987  0.56619  0.35832  1.0000
  C   C45       1.0  0.57633  0.32286  0.69753  1.0000
  C   C46       1.0  0.42367  0.67714  0.30248  1.0000
  C   C47       1.0  0.84324  0.04344  0.79320  1.0000
  C   C48       1.0  0.15675  0.95655  0.20680  1.0000
  C   C49       1.0  0.95390  0.01798  0.85046  1.0000
  C   C50       1.0  0.04610  0.98202  0.14954  1.0000
  C   C51       1.0  0.94185  0.01520  0.96815  1.0000
  C   C52       1.0  0.05815  0.98480  0.03186  1.0000
  C   C53       1.0  0.81475  0.04251  0.02164  1.0000
  C   C54       1.0  0.18525  0.95750  0.97837  1.0000
  C   C55       1.0  0.70828  0.06678  0.95840  1.0000
  C   C56       1.0  0.29172  0.93323  0.04161  1.0000
  N   N1        1.0  0.89195  0.40090  0.44266  1.0000
  N   N2        1.0  0.10803  0.59910  0.55733  1.0000
  N   N3        1.0  0.83613  0.42152  0.03009  1.0000
  N   N4        1.0  0.16387  0.57848  0.96991  1.0000
  N   N5        1.0  0.57006  0.22001  0.64998  1.0000
  N   N6        1.0  0.42994  0.77999  0.35003  1.0000
  N   N7        1.0  0.72240  0.06639  0.84575  1.0000
  N   N8        1.0  0.27760  0.93360  0.15426  1.0000
  O   O1        1.0  0.85003  0.45637  0.26183  1.0000
  O   O2        1.0  0.14995  0.54363  0.73816  1.0000
  O   O3        1.0  0.64811  0.82995  0.79436  1.0000
  O   O4        1.0  0.35187  0.17003  0.20563  1.0000
  O   O5        1.0  0.65329  0.94065  0.63638  1.0000
  O   O6        1.0  0.34674  0.05935  0.36363  1.0000
  O   O7        1.0  0.69317  0.45756  0.89267  1.0000
  O   O8        1.0  0.30684  0.54246  0.10733  1.0000
  O   O9        1.0  0.42359  0.13316  0.86520  1.0000
  O   O10       1.0  0.57642  0.86685  0.13481  1.0000
  O   O11       1.0  0.32501  0.10045  0.71709  1.0000
  O   O12       1.0  0.67499  0.89955  0.28292  1.0000
