data_image0
_chemical_formula_structural       Zn4H36C44N12O20
_chemical_formula_sum              "Zn4 H36 C44 N12 O20"
_cell_length_a       10.2156
_cell_length_b       10.2445
_cell_length_c       11.7031
_cell_angle_alpha    90
_cell_angle_beta     90
_cell_angle_gamma    92.7197

_space_group_name_H-M_alt    "P 1"
_space_group_IT_number       1

loop_
  _space_group_symop_operation_xyz
  'x, y, z'

loop_
  _atom_site_type_symbol
  _atom_site_label
  _atom_site_symmetry_multiplicity
  _atom_site_fract_x
  _atom_site_fract_y
  _atom_site_fract_z
  _atom_site_occupancy
  Zn  Zn1       1.0  0.03480  0.74637  0.70827  1.0000
  Zn  Zn2       1.0  0.96520  0.75363  0.20827  1.0000
  Zn  Zn3       1.0  0.96520  0.25363  0.29173  1.0000
  Zn  Zn4       1.0  0.03480  0.24637  0.79173  1.0000
  H   H1        1.0  0.00193  0.85187  0.50471  1.0000
  H   H2        1.0  0.99807  0.64813  0.00471  1.0000
  H   H3        1.0  0.99807  0.14813  0.49529  1.0000
  H   H4        1.0  0.00193  0.35187  0.99529  1.0000
  H   H5        1.0  0.59455  0.99255  0.99475  1.0000
  H   H6        1.0  0.40545  0.50745  0.49475  1.0000
  H   H7        1.0  0.40545  0.00745  0.00525  1.0000
  H   H8        1.0  0.59455  0.49255  0.50525  1.0000
  H   H9        1.0  0.75472  0.07051  0.99770  1.0000
  H   H10       1.0  0.24528  0.42949  0.49769  1.0000
  H   H11       1.0  0.24528  0.92949  0.00231  1.0000
  H   H12       1.0  0.75472  0.57051  0.50231  1.0000
  H   H13       1.0  0.71068  0.94801  0.10011  1.0000
  H   H14       1.0  0.28932  0.55199  0.60011  1.0000
  H   H15       1.0  0.28932  0.05199  0.89989  1.0000
  H   H16       1.0  0.71068  0.44801  0.39989  1.0000
  H   H17       1.0  0.23480  0.57881  0.07730  1.0000
  H   H18       1.0  0.76520  0.92119  0.57730  1.0000
  H   H19       1.0  0.76520  0.42119  0.92270  1.0000
  H   H20       1.0  0.23480  0.07881  0.42270  1.0000
  H   H21       1.0  0.45866  0.74232  0.79622  1.0000
  H   H22       1.0  0.54134  0.75768  0.29621  1.0000
  H   H23       1.0  0.54134  0.25768  0.20379  1.0000
  H   H24       1.0  0.45866  0.24232  0.70379  1.0000
  H   H25       1.0  0.43520  0.58116  0.19701  1.0000
  H   H26       1.0  0.56480  0.91884  0.69701  1.0000
  H   H27       1.0  0.56480  0.41884  0.80299  1.0000
  H   H28       1.0  0.43520  0.08116  0.30299  1.0000
  H   H29       1.0  0.64949  0.67097  0.11736  1.0000
  H   H30       1.0  0.35051  0.82903  0.61736  1.0000
  H   H31       1.0  0.35051  0.32903  0.88264  1.0000
  H   H32       1.0  0.64949  0.17097  0.38264  1.0000
  H   H33       1.0  0.08448  0.95100  0.58388  1.0000
  H   H34       1.0  0.91552  0.54900  0.08388  1.0000
  H   H35       1.0  0.91553  0.04900  0.41612  1.0000
  H   H36       1.0  0.08448  0.45100  0.91612  1.0000
  C   C1        1.0  0.69872  0.97800  0.01068  1.0000
  C   C2        1.0  0.30128  0.52200  0.51067  1.0000
  C   C3        1.0  0.30128  0.02200  0.98933  1.0000
  C   C4        1.0  0.69872  0.47800  0.48933  1.0000
  C   C5        1.0  0.74872  0.87964  0.93124  1.0000
  C   C6        1.0  0.25128  0.62036  0.43124  1.0000
  C   C7        1.0  0.25128  0.12037  0.06876  1.0000
  C   C8        1.0  0.74872  0.37964  0.56876  1.0000
  C   C9        1.0  0.86129  0.88020  0.86524  1.0000
  C   C10       1.0  0.13871  0.61980  0.36524  1.0000
  C   C11       1.0  0.13871  0.11980  0.13476  1.0000
  C   C12       1.0  0.86129  0.38020  0.63476  1.0000
  C   C13       1.0  0.97155  0.97683  0.84682  1.0000
  C   C14       1.0  0.02845  0.52316  0.34682  1.0000
  C   C15       1.0  0.02846  0.02316  0.15318  1.0000
  C   C16       1.0  0.97155  0.47684  0.65318  1.0000
  C   C17       1.0  0.21221  0.66414  0.85932  1.0000
  C   C18       1.0  0.78778  0.83586  0.35932  1.0000
  C   C19       1.0  0.78779  0.33586  0.14068  1.0000
  C   C20       1.0  0.21221  0.16414  0.64068  1.0000
  C   C21       1.0  0.33407  0.66119  0.92978  1.0000
  C   C22       1.0  0.66592  0.83881  0.42977  1.0000
  C   C23       1.0  0.66593  0.33881  0.07023  1.0000
  C   C24       1.0  0.33407  0.16119  0.57022  1.0000
  C   C25       1.0  0.32810  0.61646  0.04281  1.0000
  C   C26       1.0  0.67191  0.88354  0.54281  1.0000
  C   C27       1.0  0.67190  0.38354  0.95719  1.0000
  C   C28       1.0  0.32810  0.11646  0.45719  1.0000
  C   C29       1.0  0.45396  0.70797  0.88413  1.0000
  C   C30       1.0  0.54604  0.79204  0.38413  1.0000
  C   C31       1.0  0.54604  0.29204  0.11587  1.0000
  C   C32       1.0  0.45396  0.20796  0.61587  1.0000
  C   C33       1.0  0.56536  0.71066  0.95252  1.0000
  C   C34       1.0  0.43464  0.78934  0.45252  1.0000
  C   C35       1.0  0.43464  0.28935  0.04748  1.0000
  C   C36       1.0  0.56536  0.21066  0.54748  1.0000
  C   C37       1.0  0.44085  0.61900  0.10997  1.0000
  C   C38       1.0  0.55915  0.88100  0.60997  1.0000
  C   C39       1.0  0.55915  0.38100  0.89003  1.0000
  C   C40       1.0  0.44085  0.11900  0.39003  1.0000
  C   C41       1.0  0.56063  0.66696  0.06573  1.0000
  C   C42       1.0  0.43937  0.83304  0.56573  1.0000
  C   C43       1.0  0.43937  0.33304  0.93427  1.0000
  C   C44       1.0  0.56063  0.16696  0.43427  1.0000
  N   N1        1.0  0.68727  0.76166  0.90646  1.0000
  N   N2        1.0  0.31272  0.73834  0.40646  1.0000
  N   N3        1.0  0.31273  0.23834  0.09354  1.0000
  N   N4        1.0  0.68727  0.26166  0.59354  1.0000
  N   N5        1.0  0.75544  0.69239  0.82901  1.0000
  N   N6        1.0  0.24456  0.80761  0.32901  1.0000
  N   N7        1.0  0.24456  0.30761  0.17099  1.0000
  N   N8        1.0  0.75544  0.19239  0.67099  1.0000
  N   N9        1.0  0.86055  0.76568  0.80575  1.0000
  N   N10       1.0  0.13945  0.73432  0.30576  1.0000
  N   N11       1.0  0.13945  0.23432  0.19425  1.0000
  N   N12       1.0  0.86055  0.26568  0.69425  1.0000
  O   O1        1.0  0.10379  0.62101  0.90163  1.0000
  O   O2        1.0  0.89621  0.87899  0.40163  1.0000
  O   O3        1.0  0.89621  0.37899  0.09837  1.0000
  O   O4        1.0  0.10379  0.12101  0.59837  1.0000
  O   O5        1.0  0.22126  0.71282  0.75903  1.0000
  O   O6        1.0  0.77874  0.78718  0.25903  1.0000
  O   O7        1.0  0.77874  0.28718  0.24097  1.0000
  O   O8        1.0  0.22126  0.21282  0.74097  1.0000
  O   O9        1.0  0.06858  0.93631  0.79258  1.0000
  O   O10       1.0  0.93142  0.56369  0.29258  1.0000
  O   O11       1.0  0.93142  0.06369  0.20742  1.0000
  O   O12       1.0  0.06858  0.43631  0.70742  1.0000
  O   O13       1.0  0.95878  0.09302  0.88364  1.0000
  O   O14       1.0  0.04122  0.40698  0.38364  1.0000
  O   O15       1.0  0.04122  0.90698  0.11636  1.0000
  O   O16       1.0  0.95878  0.59302  0.61636  1.0000
  O   O17       1.0  0.07075  0.85660  0.56520  1.0000
  O   O18       1.0  0.92925  0.64340  0.06520  1.0000
  O   O19       1.0  0.92925  0.14340  0.43480  1.0000
  O   O20       1.0  0.07075  0.35660  0.93480  1.0000
