data_image0
_chemical_formula_structural       CoP2H22C10O10
_chemical_formula_sum              "Co1 P2 H22 C10 O10"
_cell_length_a       4.83333
_cell_length_b       6.89522
_cell_length_c       12.002
_cell_angle_alpha    98.6939
_cell_angle_beta     89.3319
_cell_angle_gamma    105.715

_space_group_name_H-M_alt    "P 1"
_space_group_IT_number       1

loop_
  _space_group_symop_operation_xyz
  'x, y, z'

loop_
  _atom_site_type_symbol
  _atom_site_label
  _atom_site_symmetry_multiplicity
  _atom_site_fract_x
  _atom_site_fract_y
  _atom_site_fract_z
  _atom_site_occupancy
  Co  Co1       1.0  1.00000  0.00000  0.00000  1.0000
  P   P1        1.0  0.79119  0.28729  0.79949  1.0000
  P   P2        1.0  0.20881  0.71272  0.20051  1.0000
  H   H1        1.0  0.26681  0.42489  0.80512  1.0000
  H   H2        1.0  0.73320  0.57512  0.19488  1.0000
  H   H3        1.0  0.60637  0.14748  0.08128  1.0000
  H   H4        1.0  0.39363  0.85253  0.91873  1.0000
  H   H5        1.0  0.87900  0.26912  0.15336  1.0000
  H   H6        1.0  0.12100  0.73089  0.84664  1.0000
  H   H7        1.0  0.42262  0.28311  0.95422  1.0000
  H   H8        1.0  0.57737  0.71689  0.04578  1.0000
  H   H9        1.0  0.33759  0.36264  0.07744  1.0000
  H   H10       1.0  0.66241  0.63737  0.92256  1.0000
  H   H11       1.0  0.06160  0.37073  0.52429  1.0000
  H   H12       1.0  0.93841  0.62926  0.47571  1.0000
  H   H13       1.0  0.43686  0.08630  0.66555  1.0000
  H   H14       1.0  0.56314  0.91370  0.33444  1.0000
  H   H15       1.0  0.61482  0.32104  0.62329  1.0000
  H   H16       1.0  0.38521  0.67894  0.37671  1.0000
  H   H17       1.0  0.57923  0.58472  0.60908  1.0000
  H   H18       1.0  0.42072  0.41527  0.39092  1.0000
  H   H19       1.0  0.36618  0.75899  0.62089  1.0000
  H   H20       1.0  0.63382  0.24102  0.37909  1.0000
  H   H21       1.0  0.63786  0.79000  0.72398  1.0000
  H   H22       1.0  0.36211  0.20998  0.27602  1.0000
  C   C1        1.0  0.03347  0.20630  0.51273  1.0000
  C   C2        1.0  0.96654  0.79371  0.48728  1.0000
  C   C3        1.0  0.79808  0.87770  0.56565  1.0000
  C   C4        1.0  0.20192  0.12227  0.43435  1.0000
  C   C5        1.0  0.65070  0.18983  0.65662  1.0000
  C   C6        1.0  0.34931  0.81017  0.34339  1.0000
  C   C7        1.0  0.83221  0.08923  0.57801  1.0000
  C   C8        1.0  0.16779  0.91075  0.42200  1.0000
  C   C9        1.0  0.58498  0.74541  0.63335  1.0000
  C   C10       1.0  0.41501  0.25458  0.36664  1.0000
  O   O1        1.0  0.57810  0.40461  0.85377  1.0000
  O   O2        1.0  0.42190  0.59540  0.14622  1.0000
  O   O3        1.0  0.84333  0.12548  0.86017  1.0000
  O   O4        1.0  0.15666  0.87453  0.13984  1.0000
  O   O5        1.0  0.08536  0.46289  0.78836  1.0000
  O   O6        1.0  0.91464  0.53712  0.21164  1.0000
  O   O7        1.0  0.78448  0.12972  0.11503  1.0000
  O   O8        1.0  0.21552  0.87029  0.88497  1.0000
  O   O9        1.0  0.34483  0.23331  0.02652  1.0000
  O   O10       1.0  0.65517  0.76670  0.97348  1.0000
