data_image0
_chemical_formula_structural       Zn4Mo4H36C40N12O16
_chemical_formula_sum              "Zn4 Mo4 H36 C40 N12 O16"
_cell_length_a       6.37389
_cell_length_b       9.5025
_cell_length_c       22.1963
_cell_angle_alpha    89.9997
_cell_angle_beta     90.0001
_cell_angle_gamma    107.966

_space_group_name_H-M_alt    "P 1"
_space_group_IT_number       1

loop_
  _space_group_symop_operation_xyz
  'x, y, z'

loop_
  _atom_site_type_symbol
  _atom_site_label
  _atom_site_symmetry_multiplicity
  _atom_site_fract_x
  _atom_site_fract_y
  _atom_site_fract_z
  _atom_site_occupancy
  Zn  Zn1       1.0  0.84040  0.35623  0.46834  1.0000
  Zn  Zn2       1.0  0.65960  0.64377  0.96834  1.0000
  Zn  Zn3       1.0  0.15960  0.64377  0.53166  1.0000
  Zn  Zn4       1.0  0.34040  0.35623  0.03166  1.0000
  Mo  Mo1       1.0  0.59052  0.48412  0.58267  1.0000
  Mo  Mo2       1.0  0.90948  0.51588  0.08267  1.0000
  Mo  Mo3       1.0  0.40948  0.51588  0.41733  1.0000
  Mo  Mo4       1.0  0.09052  0.48412  0.91733  1.0000
  H   H1        1.0  0.65762  0.88780  0.42841  1.0000
  H   H2        1.0  0.84237  0.11220  0.92841  1.0000
  H   H3        1.0  0.34238  0.11220  0.57159  1.0000
  H   H4        1.0  0.15762  0.88780  0.07159  1.0000
  H   H5        1.0  0.88407  0.43424  0.34233  1.0000
  H   H6        1.0  0.61593  0.56576  0.84233  1.0000
  H   H7        1.0  0.11593  0.56576  0.65767  1.0000
  H   H8        1.0  0.38407  0.43424  0.15767  1.0000
  H   H9        1.0  0.80847  0.31804  0.24031  1.0000
  H   H10       1.0  0.69154  0.68197  0.74031  1.0000
  H   H11       1.0  0.19154  0.68197  0.75969  1.0000
  H   H12       1.0  0.30847  0.31803  0.25969  1.0000
  H   H13       1.0  0.67807  0.03906  0.23483  1.0000
  H   H14       1.0  0.82193  0.96095  0.73484  1.0000
  H   H15       1.0  0.32193  0.96094  0.76517  1.0000
  H   H16       1.0  0.17807  0.03906  0.26516  1.0000
  H   H17       1.0  0.63361  0.89157  0.33032  1.0000
  H   H18       1.0  0.86639  0.10843  0.83032  1.0000
  H   H19       1.0  0.36640  0.10843  0.66968  1.0000
  H   H20       1.0  0.13360  0.89157  0.16968  1.0000
  H   H21       1.0  0.66819  0.80020  0.51785  1.0000
  H   H22       1.0  0.83182  0.19980  0.01785  1.0000
  H   H23       1.0  0.33182  0.19980  0.48215  1.0000
  H   H24       1.0  0.16818  0.80020  0.98215  1.0000
  H   H25       1.0  0.74640  0.83954  0.62696  1.0000
  H   H26       1.0  0.75361  0.16046  0.12696  1.0000
  H   H27       1.0  0.25360  0.16046  0.37304  1.0000
  H   H28       1.0  0.24639  0.83954  0.87304  1.0000
  H   H29       1.0  0.89914  0.10605  0.66533  1.0000
  H   H30       1.0  0.60086  0.89394  0.16533  1.0000
  H   H31       1.0  0.10085  0.89394  0.33467  1.0000
  H   H32       1.0  0.39914  0.10606  0.83467  1.0000
  H   H33       1.0  0.94326  0.30975  0.59197  1.0000
  H   H34       1.0  0.55673  0.69025  0.09196  1.0000
  H   H35       1.0  0.05673  0.69025  0.40804  1.0000
  H   H36       1.0  0.44327  0.30975  0.90803  1.0000
  C   C1        1.0  0.82812  0.31441  0.33702  1.0000
  C   C2        1.0  0.67188  0.68559  0.83702  1.0000
  C   C3        1.0  0.17188  0.68559  0.66298  1.0000
  C   C4        1.0  0.32812  0.31441  0.16298  1.0000
  C   C5        1.0  0.78596  0.24983  0.28074  1.0000
  C   C6        1.0  0.71404  0.75017  0.78074  1.0000
  C   C7        1.0  0.21404  0.75017  0.71927  1.0000
  C   C8        1.0  0.28596  0.24983  0.21926  1.0000
  C   C9        1.0  0.71415  0.09487  0.27817  1.0000
  C   C10       1.0  0.78585  0.90513  0.77817  1.0000
  C   C11       1.0  0.28586  0.90513  0.72183  1.0000
  C   C12       1.0  0.21414  0.09487  0.22183  1.0000
  C   C13       1.0  0.68934  0.01222  0.33047  1.0000
  C   C14       1.0  0.81066  0.98779  0.83047  1.0000
  C   C15       1.0  0.31066  0.98778  0.66953  1.0000
  C   C16       1.0  0.18934  0.01221  0.16953  1.0000
  C   C17       1.0  0.73750  0.08703  0.38624  1.0000
  C   C18       1.0  0.76250  0.91297  0.88624  1.0000
  C   C19       1.0  0.26250  0.91297  0.61377  1.0000
  C   C20       1.0  0.23750  0.08703  0.11376  1.0000
  C   C21       1.0  0.76099  0.03371  0.49717  1.0000
  C   C22       1.0  0.73901  0.96629  0.99717  1.0000
  C   C23       1.0  0.23902  0.96629  0.50283  1.0000
  C   C24       1.0  0.26098  0.03371  0.00283  1.0000
  C   C25       1.0  0.73034  0.91155  0.53624  1.0000
  C   C26       1.0  0.76966  0.08845  0.03624  1.0000
  C   C27       1.0  0.26967  0.08845  0.46376  1.0000
  C   C28       1.0  0.23033  0.91155  0.96376  1.0000
  C   C29       1.0  0.77403  0.93460  0.59694  1.0000
  C   C30       1.0  0.72597  0.06540  0.09694  1.0000
  C   C31       1.0  0.22598  0.06540  0.40306  1.0000
  C   C32       1.0  0.27402  0.93460  0.90306  1.0000
  C   C33       1.0  0.85544  0.08025  0.61835  1.0000
  C   C34       1.0  0.64456  0.91974  0.11835  1.0000
  C   C35       1.0  0.14456  0.91974  0.38165  1.0000
  C   C36       1.0  0.35544  0.08026  0.88165  1.0000
  C   C37       1.0  0.88197  0.19458  0.57795  1.0000
  C   C38       1.0  0.61803  0.80541  0.07795  1.0000
  C   C39       1.0  0.11803  0.80542  0.42205  1.0000
  C   C40       1.0  0.38197  0.19459  0.92205  1.0000
  N   N1        1.0  0.80438  0.23597  0.38885  1.0000
  N   N2        1.0  0.69563  0.76403  0.88885  1.0000
  N   N3        1.0  0.19563  0.76403  0.61115  1.0000
  N   N4        1.0  0.30437  0.23597  0.11115  1.0000
  N   N5        1.0  0.71250  0.00120  0.43742  1.0000
  N   N6        1.0  0.78750  0.99880  0.93742  1.0000
  N   N7        1.0  0.28750  0.99880  0.56258  1.0000
  N   N8        1.0  0.21250  0.00120  0.06258  1.0000
  N   N9        1.0  0.83199  0.17396  0.51851  1.0000
  N   N10       1.0  0.66801  0.82604  0.01851  1.0000
  N   N11       1.0  0.16801  0.82604  0.48149  1.0000
  N   N12       1.0  0.33199  0.17396  0.98149  1.0000
  O   O1        1.0  0.86151  0.50037  0.54790  1.0000
  O   O2        1.0  0.63850  0.49963  0.04790  1.0000
  O   O3        1.0  0.13850  0.49963  0.45210  1.0000
  O   O4        1.0  0.36150  0.50037  0.95210  1.0000
  O   O5        1.0  0.64327  0.55697  0.65450  1.0000
  O   O6        1.0  0.85673  0.44303  0.15450  1.0000
  O   O7        1.0  0.35673  0.44303  0.34550  1.0000
  O   O8        1.0  0.14327  0.55697  0.84550  1.0000
  O   O9        1.0  0.43560  0.29650  0.58931  1.0000
  O   O10       1.0  0.06440  0.70350  0.08930  1.0000
  O   O11       1.0  0.56440  0.70350  0.41069  1.0000
  O   O12       1.0  0.93559  0.29649  0.91069  1.0000
  O   O13       1.0  0.43432  0.58745  0.54516  1.0000
  O   O14       1.0  0.06568  0.41255  0.04516  1.0000
  O   O15       1.0  0.56568  0.41256  0.45484  1.0000
  O   O16       1.0  0.93432  0.58744  0.95484  1.0000
