data_image0
_chemical_formula_structural       Ag2H18C8I2N2O2
_chemical_formula_sum              "Ag2 H18 C8 I2 N2 O2"
_cell_length_a       4.4177
_cell_length_b       9.05077
_cell_length_c       9.31504
_cell_angle_alpha    95.7014
_cell_angle_beta     103.896
_cell_angle_gamma    89.9803

_space_group_name_H-M_alt    "P 1"
_space_group_IT_number       1

loop_
  _space_group_symop_operation_xyz
  'x, y, z'

loop_
  _atom_site_type_symbol
  _atom_site_label
  _atom_site_symmetry_multiplicity
  _atom_site_fract_x
  _atom_site_fract_y
  _atom_site_fract_z
  _atom_site_occupancy
  Ag  Ag1       1.0  0.75712  0.11662  0.47783  1.0000
  Ag  Ag2       1.0  0.27879  0.88480  0.52288  1.0000
  H   H1        1.0  0.36893  0.05609  0.13239  1.0000
  H   H2        1.0  0.24418  0.94325  0.86989  1.0000
  H   H3        1.0  0.09796  0.10497  0.24015  1.0000
  H   H4        1.0  0.86302  0.89587  0.76247  1.0000
  H   H5        1.0  0.86891  0.15966  0.97957  1.0000
  H   H6        1.0  0.90159  0.83792  0.02294  1.0000
  H   H7        1.0  0.20661  0.26786  0.98053  1.0000
  H   H8        1.0  0.23618  0.72902  0.01861  1.0000
  H   H9        1.0  0.29807  0.49850  0.13166  1.0000
  H   H10       1.0  0.16962  0.49992  0.86538  1.0000
  H   H11       1.0  0.02433  0.55553  0.23884  1.0000
  H   H12       1.0  0.78600  0.44497  0.75865  1.0000
  H   H13       1.0  0.19758  0.35662  0.40454  1.0000
  H   H14       1.0  0.79178  0.64643  0.59580  1.0000
  H   H15       1.0  0.52814  0.46406  0.39607  1.0000
  H   H16       1.0  0.12879  0.53795  0.60131  1.0000
  H   H17       1.0  0.64787  0.28118  0.22423  1.0000
  H   H18       1.0  0.42671  0.71843  0.77556  1.0000
  C   C1        1.0  0.25066  0.15058  0.17654  1.0000
  C   C2        1.0  0.08012  0.84931  0.82505  1.0000
  C   C3        1.0  0.05841  0.23106  0.05107  1.0000
  C   C4        1.0  0.01606  0.76722  0.94973  1.0000
  C   C5        1.0  0.14776  0.45990  0.20039  1.0000
  C   C6        1.0  0.94971  0.53993  0.79784  1.0000
  C   C7        1.0  0.34347  0.38636  0.33057  1.0000
  C   C8        1.0  0.01285  0.61507  0.66850  1.0000
  I   I1        1.0  0.34158  0.18478  0.67376  1.0000
  I   I2        1.0  0.66597  0.81632  0.32711  1.0000
  N   N1        1.0  0.48832  0.24945  0.28093  1.0000
  N   N2        1.0  0.21013  0.75113  0.71936  1.0000
  O   O1        1.0  0.91273  0.35795  0.10907  1.0000
  O   O2        1.0  0.80964  0.64127  0.89082  1.0000
