data_image0
_chemical_formula_structural       Cd2H52C40N8O12
_chemical_formula_sum              "Cd2 H52 C40 N8 O12"
_cell_length_a       9.20988
_cell_length_b       10.1028
_cell_length_c       13.171
_cell_angle_alpha    90.0002
_cell_angle_beta     90
_cell_angle_gamma    102.589

_space_group_name_H-M_alt    "P 1"
_space_group_IT_number       1

loop_
  _space_group_symop_operation_xyz
  'x, y, z'

loop_
  _atom_site_type_symbol
  _atom_site_label
  _atom_site_symmetry_multiplicity
  _atom_site_fract_x
  _atom_site_fract_y
  _atom_site_fract_z
  _atom_site_occupancy
  Cd  Cd1       1.0  1.00000  0.00000  0.00000  1.0000
  Cd  Cd2       1.0  1.00000  0.50000  0.50000  1.0000
  H   H1        1.0  0.82355  0.12519  0.88627  1.0000
  H   H2        1.0  0.17645  0.37480  0.38628  1.0000
  H   H3        1.0  0.17645  0.87480  0.11372  1.0000
  H   H4        1.0  0.82355  0.62520  0.61372  1.0000
  H   H5        1.0  0.81805  0.99844  0.81021  1.0000
  H   H6        1.0  0.18195  0.50156  0.31021  1.0000
  H   H7        1.0  0.18196  0.00157  0.18979  1.0000
  H   H8        1.0  0.81805  0.49844  0.68979  1.0000
  H   H9        1.0  0.05696  0.20657  0.81292  1.0000
  H   H10       1.0  0.94304  0.29342  0.31292  1.0000
  H   H11       1.0  0.94304  0.79343  0.18708  1.0000
  H   H12       1.0  0.05696  0.70658  0.68708  1.0000
  H   H13       1.0  0.23733  0.28172  0.67370  1.0000
  H   H14       1.0  0.76266  0.21828  0.17370  1.0000
  H   H15       1.0  0.76266  0.71828  0.32629  1.0000
  H   H16       1.0  0.23734  0.78171  0.82630  1.0000
  H   H17       1.0  0.52757  0.05209  0.81492  1.0000
  H   H18       1.0  0.47243  0.44790  0.31492  1.0000
  H   H19       1.0  0.47243  0.94790  0.18508  1.0000
  H   H20       1.0  0.52758  0.55209  0.68508  1.0000
  H   H21       1.0  0.33283  0.98489  0.94934  1.0000
  H   H22       1.0  0.66717  0.51510  0.44934  1.0000
  H   H23       1.0  0.66716  0.01511  0.05066  1.0000
  H   H24       1.0  0.33284  0.48490  0.55066  1.0000
  H   H25       1.0  0.47017  0.28271  0.59566  1.0000
  H   H26       1.0  0.52982  0.21729  0.09566  1.0000
  H   H27       1.0  0.52982  0.71730  0.40433  1.0000
  H   H28       1.0  0.47018  0.78271  0.90434  1.0000
  H   H29       1.0  0.61751  0.25201  0.67335  1.0000
  H   H30       1.0  0.38249  0.24799  0.17335  1.0000
  H   H31       1.0  0.38249  0.74799  0.32665  1.0000
  H   H32       1.0  0.61752  0.75201  0.82665  1.0000
  H   H33       1.0  0.32381  0.08275  0.49641  1.0000
  H   H34       1.0  0.67619  0.41725  0.99641  1.0000
  H   H35       1.0  0.67619  0.91725  0.50359  1.0000
  H   H36       1.0  0.32382  0.58276  0.00359  1.0000
  H   H37       1.0  0.28828  0.98809  0.61159  1.0000
  H   H38       1.0  0.71172  0.51191  0.11160  1.0000
  H   H39       1.0  0.71172  0.01191  0.38840  1.0000
  H   H40       1.0  0.28828  0.48809  0.88840  1.0000
  H   H41       1.0  0.72883  0.16426  0.53757  1.0000
  H   H42       1.0  0.27116  0.33574  0.03756  1.0000
  H   H43       1.0  0.27116  0.83574  0.46244  1.0000
  H   H44       1.0  0.72884  0.66426  0.96244  1.0000
  H   H45       1.0  0.58517  0.18456  0.45178  1.0000
  H   H46       1.0  0.41483  0.31544  0.95178  1.0000
  H   H47       1.0  0.41483  0.81544  0.54822  1.0000
  H   H48       1.0  0.58517  0.68456  0.04822  1.0000
  H   H49       1.0  0.94960  0.53881  0.89484  1.0000
  H   H50       1.0  0.05040  0.96120  0.39483  1.0000
  H   H51       1.0  0.05041  0.46120  0.10517  1.0000
  H   H52       1.0  0.94960  0.03880  0.60517  1.0000
  C   C1        1.0  0.16227  0.17398  0.81072  1.0000
  C   C2        1.0  0.83773  0.32601  0.31072  1.0000
  C   C3        1.0  0.83773  0.82601  0.18928  1.0000
  C   C4        1.0  0.16227  0.67399  0.68928  1.0000
  C   C5        1.0  0.26490  0.21728  0.73381  1.0000
  C   C6        1.0  0.73509  0.28272  0.23381  1.0000
  C   C7        1.0  0.73509  0.78272  0.26619  1.0000
  C   C8        1.0  0.26491  0.71728  0.76619  1.0000
  C   C9        1.0  0.39828  0.17298  0.73266  1.0000
  C   C10       1.0  0.60172  0.32702  0.23266  1.0000
  C   C11       1.0  0.60171  0.82702  0.26734  1.0000
  C   C12       1.0  0.39829  0.67298  0.76734  1.0000
  C   C13       1.0  0.42481  0.08900  0.81202  1.0000
  C   C14       1.0  0.57518  0.41099  0.31203  1.0000
  C   C15       1.0  0.57518  0.91100  0.18797  1.0000
  C   C16       1.0  0.42482  0.58900  0.68797  1.0000
  C   C17       1.0  0.31673  0.05023  0.88625  1.0000
  C   C18       1.0  0.68327  0.44976  0.38626  1.0000
  C   C19       1.0  0.68326  0.94976  0.11374  1.0000
  C   C20       1.0  0.31674  0.55024  0.61374  1.0000
  C   C21       1.0  0.50507  0.20617  0.64540  1.0000
  C   C22       1.0  0.49492  0.29383  0.14540  1.0000
  C   C23       1.0  0.49492  0.79383  0.35460  1.0000
  C   C24       1.0  0.50508  0.70617  0.85460  1.0000
  C   C25       1.0  0.36783  0.01489  0.54887  1.0000
  C   C26       1.0  0.63217  0.48511  0.04887  1.0000
  C   C27       1.0  0.63217  0.98512  0.45113  1.0000
  C   C28       1.0  0.36783  0.51488  0.95113  1.0000
  C   C29       1.0  0.61997  0.11385  0.50668  1.0000
  C   C30       1.0  0.38004  0.38615  0.00668  1.0000
  C   C31       1.0  0.38003  0.88615  0.49331  1.0000
  C   C32       1.0  0.61997  0.61385  0.99332  1.0000
  C   C33       1.0  0.05199  0.69683  0.00463  1.0000
  C   C34       1.0  0.94801  0.80317  0.50462  1.0000
  C   C35       1.0  0.94802  0.30317  0.99538  1.0000
  C   C36       1.0  0.05199  0.19683  0.49538  1.0000
  C   C37       1.0  0.99835  0.55368  0.97055  1.0000
  C   C38       1.0  0.00164  0.94632  0.47055  1.0000
  C   C39       1.0  0.00165  0.44632  0.02945  1.0000
  C   C40       1.0  0.99835  0.05368  0.52945  1.0000
  N   N1        1.0  0.18633  0.09015  0.88508  1.0000
  N   N2        1.0  0.81366  0.40985  0.38509  1.0000
  N   N3        1.0  0.81366  0.90985  0.11492  1.0000
  N   N4        1.0  0.18634  0.59015  0.61491  1.0000
  N   N5        1.0  0.51296  0.08280  0.58983  1.0000
  N   N6        1.0  0.48704  0.41721  0.08983  1.0000
  N   N7        1.0  0.48704  0.91721  0.41017  1.0000
  N   N8        1.0  0.51296  0.58279  0.91017  1.0000
  O   O1        1.0  0.01460  0.78594  0.94667  1.0000
  O   O2        1.0  0.98539  0.71406  0.44666  1.0000
  O   O3        1.0  0.98540  0.21406  0.05334  1.0000
  O   O4        1.0  0.01461  0.28594  0.55334  1.0000
  O   O5        1.0  0.12646  0.72066  0.08655  1.0000
  O   O6        1.0  0.87354  0.77934  0.58655  1.0000
  O   O7        1.0  0.87354  0.27934  0.91345  1.0000
  O   O8        1.0  0.12646  0.22067  0.41345  1.0000
  O   O9        1.0  0.80148  0.02122  0.88039  1.0000
  O   O10       1.0  0.19852  0.47878  0.38040  1.0000
  O   O11       1.0  0.19852  0.97878  0.11961  1.0000
  O   O12       1.0  0.80148  0.52122  0.61961  1.0000
