data_image0
_chemical_formula_structural       Cu2H12C16N8O12
_chemical_formula_sum              "Cu2 H12 C16 N8 O12"
_cell_length_a       6.79524
_cell_length_b       7.60607
_cell_length_c       12.0429
_cell_angle_alpha    76.663
_cell_angle_beta     73.6036
_cell_angle_gamma    63.4365

_space_group_name_H-M_alt    "P 1"
_space_group_IT_number       1

loop_
  _space_group_symop_operation_xyz
  'x, y, z'

loop_
  _atom_site_type_symbol
  _atom_site_label
  _atom_site_symmetry_multiplicity
  _atom_site_fract_x
  _atom_site_fract_y
  _atom_site_fract_z
  _atom_site_occupancy
  Cu  Cu1       1.0  0.48019  0.23020  0.80959  1.0000
  Cu  Cu2       1.0  0.51981  0.76986  0.19036  1.0000
  H   H1        1.0  0.07418  0.23763  0.98334  1.0000
  H   H2        1.0  0.29513  0.76237  0.01668  1.0000
  H   H3        1.0  0.92585  0.76232  0.01665  1.0000
  H   H4        1.0  0.70492  0.23759  0.98332  1.0000
  H   H5        1.0  0.44656  0.24471  0.59396  1.0000
  H   H6        1.0  0.28488  0.75550  0.40601  1.0000
  H   H7        1.0  0.55349  0.75521  0.40602  1.0000
  H   H8        1.0  0.71517  0.24444  0.59398  1.0000
  H   H9        1.0  0.35792  0.24271  0.40964  1.0000
  H   H10       1.0  0.00975  0.75737  0.59040  1.0000
  H   H11       1.0  0.64213  0.75718  0.59035  1.0000
  H   H12       1.0  0.99031  0.24253  0.40960  1.0000
  C   C1        1.0  0.03475  0.23618  0.90207  1.0000
  C   C2        1.0  0.17288  0.76392  0.09792  1.0000
  C   C3        1.0  0.96528  0.76380  0.09791  1.0000
  C   C4        1.0  0.82714  0.23607  0.90207  1.0000
  C   C5        1.0  0.13652  0.23700  0.70119  1.0000
  C   C6        1.0  0.07443  0.76313  0.29880  1.0000
  C   C7        1.0  0.86350  0.76298  0.29880  1.0000
  C   C8        1.0  0.92559  0.23686  0.70119  1.0000
  C   C9        1.0  0.28895  0.24047  0.59423  1.0000
  C   C10       1.0  0.12328  0.75976  0.40576  1.0000
  C   C11       1.0  0.71109  0.75947  0.40576  1.0000
  C   C12       1.0  0.87676  0.24020  0.59422  1.0000
  C   C13       1.0  0.23828  0.24032  0.49141  1.0000
  C   C14       1.0  0.96963  0.75977  0.50860  1.0000
  C   C15       1.0  0.76176  0.75959  0.50859  1.0000
  C   C16       1.0  0.03041  0.24017  0.49140  1.0000
  N   N1        1.0  0.18553  0.23511  0.80427  1.0000
  N   N2        1.0  0.22464  0.76510  0.19574  1.0000
  N   N3        1.0  0.81449  0.76487  0.19572  1.0000
  N   N4        1.0  0.77537  0.23490  0.80424  1.0000
  N   N5        1.0  0.28769  0.63329  0.79145  1.0000
  N   N6        1.0  0.71242  0.36670  0.20835  1.0000
  N   N7        1.0  0.67732  0.82334  0.82202  1.0000
  N   N8        1.0  0.32243  0.17686  0.17823  1.0000
  O   O1        1.0  0.31752  0.48752  0.87760  1.0000
  O   O2        1.0  0.68252  0.51254  0.12224  1.0000
  O   O3        1.0  0.18862  0.80509  0.81784  1.0000
  O   O4        1.0  0.81147  0.19493  0.18190  1.0000
  O   O5        1.0  0.35991  0.59125  0.68888  1.0000
  O   O6        1.0  0.64027  0.40862  0.31094  1.0000
  O   O7        1.0  0.64347  0.97397  0.73917  1.0000
  O   O8        1.0  0.35649  0.02600  0.26094  1.0000
  O   O9        1.0  0.77672  0.65462  0.79214  1.0000
  O   O10       1.0  0.22300  0.34545  0.20831  1.0000
  O   O11       1.0  0.60659  0.86107  0.92556  1.0000
  O   O12       1.0  0.39299  0.13950  0.07464  1.0000
