data_image0
_chemical_formula_structural       Rb4H24C32Cl8O14
_chemical_formula_sum              "Rb4 H24 C32 Cl8 O14"
_cell_length_a       4.30577
_cell_length_b       13.2487
_cell_length_c       18.8935
_cell_angle_alpha    103.378
_cell_angle_beta     96.5555
_cell_angle_gamma    89.9535

_space_group_name_H-M_alt    "P 1"
_space_group_IT_number       1

loop_
  _space_group_symop_operation_xyz
  'x, y, z'

loop_
  _atom_site_type_symbol
  _atom_site_label
  _atom_site_symmetry_multiplicity
  _atom_site_fract_x
  _atom_site_fract_y
  _atom_site_fract_z
  _atom_site_occupancy
  Rb  Rb1       1.0  0.70679  0.37045  0.93089  1.0000
  Rb  Rb2       1.0  0.77626  0.12952  0.06907  1.0000
  Rb  Rb3       1.0  0.29321  0.62956  0.06911  1.0000
  Rb  Rb4       1.0  0.22374  0.87048  0.93093  1.0000
  H   H1        1.0  0.41543  0.58289  0.68661  1.0000
  H   H2        1.0  0.72873  0.91722  0.31366  1.0000
  H   H3        1.0  0.58457  0.41711  0.31339  1.0000
  H   H4        1.0  0.27126  0.08278  0.68633  1.0000
  H   H5        1.0  0.19331  0.29314  0.03773  1.0000
  H   H6        1.0  0.15529  0.20671  0.96208  1.0000
  H   H7        1.0  0.80669  0.70686  0.96227  1.0000
  H   H8        1.0  0.84472  0.79329  0.03792  1.0000
  H   H9        1.0  0.98830  0.25678  0.61256  1.0000
  H   H10       1.0  0.37632  0.24292  0.38738  1.0000
  H   H11       1.0  0.01170  0.74322  0.38745  1.0000
  H   H12       1.0  0.62369  0.75708  0.61262  1.0000
  H   H13       1.0  0.59970  0.53709  0.56536  1.0000
  H   H14       1.0  0.03520  0.96293  0.43481  1.0000
  H   H15       1.0  0.40030  0.46291  0.43464  1.0000
  H   H16       1.0  0.96479  0.03706  0.56518  1.0000
  H   H17       1.0  0.12565  0.56097  0.76301  1.0000
  H   H18       1.0  0.36292  0.93907  0.23702  1.0000
  H   H19       1.0  0.87435  0.43903  0.23699  1.0000
  H   H20       1.0  0.63708  0.06093  0.76298  1.0000
  H   H21       1.0  0.47709  0.62523  0.81282  1.0000
  H   H22       1.0  0.66497  0.87470  0.18735  1.0000
  H   H23       1.0  0.52292  0.37478  0.18718  1.0000
  H   H24       1.0  0.33503  0.12530  0.81265  1.0000
  C   C1        1.0  0.58592  0.44483  0.71966  1.0000
  C   C2        1.0  0.86648  0.05505  0.28045  1.0000
  C   C3        1.0  0.41408  0.55517  0.28034  1.0000
  C   C4        1.0  0.13352  0.94494  0.71955  1.0000
  C   C5        1.0  0.75071  0.35301  0.69705  1.0000
  C   C6        1.0  0.05387  0.14680  0.30300  1.0000
  C   C7        1.0  0.24930  0.64699  0.30295  1.0000
  C   C8        1.0  0.94614  0.85320  0.69700  1.0000
  C   C9        1.0  0.85970  0.32761  0.62865  1.0000
  C   C10       1.0  0.23169  0.17215  0.37135  1.0000
  C   C11       1.0  0.14030  0.67239  0.37135  1.0000
  C   C12       1.0  0.76832  0.82785  0.62865  1.0000
  C   C13       1.0  0.80218  0.39389  0.58125  1.0000
  C   C14       1.0  0.22188  0.10593  0.41880  1.0000
  C   C15       1.0  0.19782  0.60611  0.41876  1.0000
  C   C16       1.0  0.77812  0.89407  0.58120  1.0000
  C   C17       1.0  0.64392  0.48553  0.60239  1.0000
  C   C18       1.0  0.04228  0.01441  0.39773  1.0000
  C   C19       1.0  0.35608  0.51447  0.39761  1.0000
  C   C20       1.0  0.95772  0.98559  0.60227  1.0000
  C   C21       1.0  0.53827  0.51081  0.67121  1.0000
  C   C22       1.0  0.86730  0.98917  0.32897  1.0000
  C   C23       1.0  0.46174  0.48919  0.32880  1.0000
  C   C24       1.0  0.13270  0.01082  0.67103  1.0000
  C   C25       1.0  0.31601  0.55836  0.80656  1.0000
  C   C26       1.0  0.50993  0.94159  0.19351  1.0000
  C   C27       1.0  0.68400  0.44164  0.19344  1.0000
  C   C28       1.0  0.49007  0.05841  0.80649  1.0000
  C   C29       1.0  0.16988  0.57002  0.87785  1.0000
  C   C30       1.0  0.29290  0.92997  0.12216  1.0000
  C   C31       1.0  0.83011  0.42998  0.12215  1.0000
  C   C32       1.0  0.70711  0.07003  0.87784  1.0000
  Cl  Cl1       1.0  0.81781  0.26898  0.75471  1.0000
  Cl  Cl2       1.0  0.06296  0.23076  0.24532  1.0000
  Cl  Cl3       1.0  0.18220  0.73102  0.24529  1.0000
  Cl  Cl4       1.0  0.93704  0.76924  0.75469  1.0000
  Cl  Cl5       1.0  0.92406  0.36015  0.49479  1.0000
  Cl  Cl6       1.0  0.43020  0.13972  0.50523  1.0000
  Cl  Cl7       1.0  0.07593  0.63984  0.50521  1.0000
  Cl  Cl8       1.0  0.56979  0.86028  0.49477  1.0000
  O   O1        1.0  0.31237  0.24992  0.99987  1.0000
  O   O2        1.0  0.68763  0.75007  0.00013  1.0000
  O   O3        1.0  0.48345  0.46380  0.78711  1.0000
  O   O4        1.0  0.69664  0.03609  0.21299  1.0000
  O   O5        1.0  0.51655  0.53621  0.21289  1.0000
  O   O6        1.0  0.30336  0.96391  0.78701  1.0000
  O   O7        1.0  0.20965  0.50356  0.91599  1.0000
  O   O8        1.0  0.29492  0.99638  0.08399  1.0000
  O   O9        1.0  0.79035  0.49645  0.08401  1.0000
  O   O10       1.0  0.70508  0.00362  0.91601  1.0000
  O   O11       1.0  0.01320  0.65246  0.89195  1.0000
  O   O12       1.0  0.12190  0.84766  0.10805  1.0000
  O   O13       1.0  0.98680  0.34754  0.10804  1.0000
  O   O14       1.0  0.87811  0.15234  0.89195  1.0000
