data_image0
_chemical_formula_structural       Hg2H24C24S4N8O26
_chemical_formula_sum              "Hg2 H24 C24 S4 N8 O26"
_cell_length_a       7.50011
_cell_length_b       7.50012
_cell_length_c       18.064
_cell_angle_alpha    91.6152
_cell_angle_beta     91.6156
_cell_angle_gamma    115.352

_space_group_name_H-M_alt    "P 1"
_space_group_IT_number       1

loop_
  _space_group_symop_operation_xyz
  'x, y, z'

loop_
  _atom_site_type_symbol
  _atom_site_label
  _atom_site_symmetry_multiplicity
  _atom_site_fract_x
  _atom_site_fract_y
  _atom_site_fract_z
  _atom_site_occupancy
  Hg  Hg1       1.0  0.95960  0.04040  0.75000  1.0000
  Hg  Hg2       1.0  0.04040  0.95960  0.25000  1.0000
  H   H1        1.0  0.62745  0.18353  0.73344  1.0000
  H   H2        1.0  0.18352  0.62744  0.23344  1.0000
  H   H3        1.0  0.37255  0.81647  0.26656  1.0000
  H   H4        1.0  0.81647  0.37255  0.76656  1.0000
  H   H5        1.0  0.57329  0.67049  0.79983  1.0000
  H   H6        1.0  0.67049  0.57329  0.29983  1.0000
  H   H7        1.0  0.42671  0.32951  0.20017  1.0000
  H   H8        1.0  0.32951  0.42671  0.70017  1.0000
  H   H9        1.0  0.51884  0.84809  0.80793  1.0000
  H   H10       1.0  0.84809  0.51885  0.30793  1.0000
  H   H11       1.0  0.48115  0.15191  0.19207  1.0000
  H   H12       1.0  0.15191  0.48116  0.69207  1.0000
  H   H13       1.0  0.73952  0.12648  0.89075  1.0000
  H   H14       1.0  0.12647  0.73952  0.39075  1.0000
  H   H15       1.0  0.26048  0.87352  0.10925  1.0000
  H   H16       1.0  0.87352  0.26049  0.60925  1.0000
  H   H17       1.0  0.68158  0.23299  0.01692  1.0000
  H   H18       1.0  0.23299  0.68159  0.51692  1.0000
  H   H19       1.0  0.31842  0.76701  0.98308  1.0000
  H   H20       1.0  0.76701  0.31842  0.48308  1.0000
  H   H21       1.0  0.27937  0.35943  0.09092  1.0000
  H   H22       1.0  0.35943  0.27937  0.59092  1.0000
  H   H23       1.0  0.72063  0.64057  0.90908  1.0000
  H   H24       1.0  0.64057  0.72064  0.40908  1.0000
  C   C1        1.0  0.04367  0.19037  0.91969  1.0000
  C   C2        1.0  0.19038  0.04368  0.41969  1.0000
  C   C3        1.0  0.95633  0.80962  0.08031  1.0000
  C   C4        1.0  0.80962  0.95633  0.58031  1.0000
  C   C5        1.0  0.85645  0.17914  0.93390  1.0000
  C   C6        1.0  0.17914  0.85645  0.43390  1.0000
  C   C7        1.0  0.14355  0.82086  0.06610  1.0000
  C   C8        1.0  0.82086  0.14355  0.56610  1.0000
  C   C9        1.0  0.82437  0.23770  0.00411  1.0000
  C   C10       1.0  0.23770  0.82437  0.50411  1.0000
  C   C11       1.0  0.17563  0.76230  0.99589  1.0000
  C   C12       1.0  0.76230  0.17563  0.49589  1.0000
  C   C13       1.0  0.97559  0.30155  0.05968  1.0000
  C   C14       1.0  0.30156  0.97559  0.55968  1.0000
  C   C15       1.0  0.02441  0.69844  0.94032  1.0000
  C   C16       1.0  0.69844  0.02441  0.44031  1.0000
  C   C17       1.0  0.16417  0.31165  0.04728  1.0000
  C   C18       1.0  0.31165  0.16417  0.54729  1.0000
  C   C19       1.0  0.83583  0.68835  0.95271  1.0000
  C   C20       1.0  0.68835  0.83583  0.45271  1.0000
  C   C21       1.0  0.19286  0.25868  0.97709  1.0000
  C   C22       1.0  0.25869  0.19286  0.47709  1.0000
  C   C23       1.0  0.80715  0.74131  0.02291  1.0000
  C   C24       1.0  0.74132  0.80715  0.52291  1.0000
  S   S1        1.0  0.34755  0.20141  0.86447  1.0000
  S   S2        1.0  0.20141  0.34755  0.36447  1.0000
  S   S3        1.0  0.65245  0.79859  0.13553  1.0000
  S   S4        1.0  0.79858  0.65245  0.63553  1.0000
  N   N1        1.0  0.11059  0.14309  0.85506  1.0000
  N   N2        1.0  0.14309  0.11059  0.35506  1.0000
  N   N3        1.0  0.88942  0.85690  0.14494  1.0000
  N   N4        1.0  0.85690  0.88941  0.64494  1.0000
  N   N5        1.0  0.94126  0.36359  0.13157  1.0000
  N   N6        1.0  0.36360  0.94126  0.63158  1.0000
  N   N7        1.0  0.05874  0.63641  0.86842  1.0000
  N   N8        1.0  0.63640  0.05875  0.36842  1.0000
  O   O1        1.0  0.76707  0.23293  0.75000  1.0000
  O   O2        1.0  0.23292  0.76707  0.25000  1.0000
  O   O3        1.0  0.62958  0.81242  0.81152  1.0000
  O   O4        1.0  0.81242  0.62958  0.31152  1.0000
  O   O5        1.0  0.37042  0.18758  0.18848  1.0000
  O   O6        1.0  0.18758  0.37042  0.68848  1.0000
  O   O7        1.0  0.46800  0.37322  0.82530  1.0000
  O   O8        1.0  0.37322  0.46800  0.32530  1.0000
  O   O9        1.0  0.53200  0.62678  0.17471  1.0000
  O   O10       1.0  0.62678  0.53200  0.67471  1.0000
  O   O11       1.0  0.38968  0.03250  0.85617  1.0000
  O   O12       1.0  0.03250  0.38968  0.35617  1.0000
  O   O13       1.0  0.61032  0.96749  0.14383  1.0000
  O   O14       1.0  0.96749  0.61032  0.64383  1.0000
  O   O15       1.0  0.37069  0.26529  0.95401  1.0000
  O   O16       1.0  0.26530  0.37069  0.45401  1.0000
  O   O17       1.0  0.62931  0.73470  0.04599  1.0000
  O   O18       1.0  0.73470  0.62932  0.54599  1.0000
  O   O19       1.0  0.79400  0.39652  0.14025  1.0000
  O   O20       1.0  0.39652  0.79400  0.64025  1.0000
  O   O21       1.0  0.20600  0.60348  0.85975  1.0000
  O   O22       1.0  0.60348  0.20600  0.35974  1.0000
  O   O23       1.0  0.06526  0.38406  0.18369  1.0000
  O   O24       1.0  0.38407  0.06526  0.68369  1.0000
  O   O25       1.0  0.93474  0.61594  0.81631  1.0000
  O   O26       1.0  0.61594  0.93475  0.31631  1.0000
