data_image0
_chemical_formula_structural       Ni2H22C24N6O6
_chemical_formula_sum              "Ni2 H22 C24 N6 O6"
_cell_length_a       8.99657
_cell_length_b       8.38142
_cell_length_c       8.63459
_cell_angle_alpha    72.4021
_cell_angle_beta     77.169
_cell_angle_gamma    75.6745

_space_group_name_H-M_alt    "P 1"
_space_group_IT_number       1

loop_
  _space_group_symop_operation_xyz
  'x, y, z'

loop_
  _atom_site_type_symbol
  _atom_site_label
  _atom_site_symmetry_multiplicity
  _atom_site_fract_x
  _atom_site_fract_y
  _atom_site_fract_z
  _atom_site_occupancy
  Ni  Ni1       1.0  0.01061  0.16754  0.89635  1.0000
  Ni  Ni2       1.0  0.98939  0.83246  0.10365  1.0000
  H   H1        1.0  0.93381  0.69309  0.72716  1.0000
  H   H2        1.0  0.06619  0.30691  0.27284  1.0000
  H   H3        1.0  0.59817  0.96994  0.63494  1.0000
  H   H4        1.0  0.40183  0.03006  0.36506  1.0000
  H   H5        1.0  0.83568  0.10676  0.70403  1.0000
  H   H6        1.0  0.16432  0.89323  0.29598  1.0000
  H   H7        1.0  0.65673  0.27562  0.50462  1.0000
  H   H8        1.0  0.34327  0.72438  0.49538  1.0000
  H   H9        1.0  0.61448  0.59943  0.43257  1.0000
  H   H10       1.0  0.38553  0.40056  0.56743  1.0000
  H   H11       1.0  0.76631  0.73211  0.55016  1.0000
  H   H12       1.0  0.23369  0.26789  0.44984  1.0000
  H   H13       1.0  0.14270  0.74435  0.78953  1.0000
  H   H14       1.0  0.85730  0.25565  0.21046  1.0000
  H   H15       1.0  0.39871  0.63041  0.87916  1.0000
  H   H16       1.0  0.60129  0.36959  0.12084  1.0000
  H   H17       1.0  0.49191  0.30415  0.96359  1.0000
  H   H18       1.0  0.50809  0.69584  0.03642  1.0000
  H   H19       1.0  0.31879  0.12353  0.95961  1.0000
  H   H20       1.0  0.68121  0.87646  0.04040  1.0000
  H   H21       1.0  0.21417  0.94615  0.97167  1.0000
  H   H22       1.0  0.78583  0.05385  0.02832  1.0000
  C   C1        1.0  0.49436  0.98582  0.58160  1.0000
  C   C2        1.0  0.50564  0.01419  0.41840  1.0000
  C   C3        1.0  0.81334  0.24535  0.66825  1.0000
  C   C4        1.0  0.18666  0.75465  0.33176  1.0000
  C   C5        1.0  0.71279  0.34114  0.55967  1.0000
  C   C6        1.0  0.28721  0.65885  0.44033  1.0000
  C   C7        1.0  0.69086  0.51947  0.52000  1.0000
  C   C8        1.0  0.30914  0.48052  0.48000  1.0000
  C   C9        1.0  0.77294  0.59401  0.58738  1.0000
  C   C10       1.0  0.22706  0.40599  0.41262  1.0000
  C   C11       1.0  0.87315  0.48852  0.69774  1.0000
  C   C12       1.0  0.12685  0.51148  0.30226  1.0000
  C   C13       1.0  0.09470  0.49364  0.82367  1.0000
  C   C14       1.0  0.90530  0.50636  0.17632  1.0000
  C   C15       1.0  0.18409  0.60668  0.83029  1.0000
  C   C16       1.0  0.81591  0.39332  0.16970  1.0000
  C   C17       1.0  0.32850  0.54181  0.87898  1.0000
  C   C18       1.0  0.67150  0.45819  0.12102  1.0000
  C   C19       1.0  0.37989  0.36490  0.92408  1.0000
  C   C20       1.0  0.62011  0.63510  0.07592  1.0000
  C   C21       1.0  0.28286  0.26109  0.92254  1.0000
  C   C22       1.0  0.71714  0.73891  0.07746  1.0000
  C   C23       1.0  0.34582  0.96904  0.69915  1.0000
  C   C24       1.0  0.65418  0.03096  0.30085  1.0000
  N   N1        1.0  0.88984  0.31666  0.74132  1.0000
  N   N2        1.0  0.11016  0.68335  0.25868  1.0000
  N   N3        1.0  0.95722  0.56349  0.76154  1.0000
  N   N4        1.0  0.04279  0.43651  0.23846  1.0000
  N   N5        1.0  0.14062  0.32190  0.87400  1.0000
  N   N6        1.0  0.85938  0.67810  0.12600  1.0000
  O   O1        1.0  0.21818  0.01218  0.64555  1.0000
  O   O2        1.0  0.78181  0.98782  0.35446  1.0000
  O   O3        1.0  0.11764  0.99332  0.04889  1.0000
  O   O4        1.0  0.88236  0.00669  0.95111  1.0000
  O   O5        1.0  0.36325  0.90751  0.85191  1.0000
  O   O6        1.0  0.63675  0.09249  0.14810  1.0000
