data_image0
_chemical_formula_structural       Cd2H44C44N8O10
_chemical_formula_sum              "Cd2 H44 C44 N8 O10"
_cell_length_a       9.27847
_cell_length_b       10.4236
_cell_length_c       11.4057
_cell_angle_alpha    91.0576
_cell_angle_beta     103.404
_cell_angle_gamma    102.749

_space_group_name_H-M_alt    "P 1"
_space_group_IT_number       1

loop_
  _space_group_symop_operation_xyz
  'x, y, z'

loop_
  _atom_site_type_symbol
  _atom_site_label
  _atom_site_symmetry_multiplicity
  _atom_site_fract_x
  _atom_site_fract_y
  _atom_site_fract_z
  _atom_site_occupancy
  Cd  Cd1       1.0  0.67222  0.81727  0.97609  1.0000
  Cd  Cd2       1.0  0.32778  0.18273  0.02391  1.0000
  H   H1        1.0  0.52171  0.56193  0.14336  1.0000
  H   H2        1.0  0.47829  0.43807  0.85664  1.0000
  H   H3        1.0  0.55851  0.97258  0.19762  1.0000
  H   H4        1.0  0.44149  0.02742  0.80238  1.0000
  H   H5        1.0  0.38986  0.83939  0.34895  1.0000
  H   H6        1.0  0.61015  0.16061  0.65105  1.0000
  H   H7        1.0  0.26997  0.43671  0.15760  1.0000
  H   H8        1.0  0.73004  0.56329  0.84240  1.0000
  H   H9        1.0  0.11847  0.26385  0.25211  1.0000
  H   H10       1.0  0.88153  0.73615  0.74789  1.0000
  H   H11       1.0  0.26740  0.50270  0.58991  1.0000
  H   H12       1.0  0.73259  0.49730  0.41009  1.0000
  H   H13       1.0  0.42344  0.67403  0.49588  1.0000
  H   H14       1.0  0.57656  0.32597  0.50413  1.0000
  H   H15       1.0  0.90554  0.20201  0.31865  1.0000
  H   H16       1.0  0.09445  0.79799  0.68135  1.0000
  H   H17       1.0  0.74057  0.04456  0.41238  1.0000
  H   H18       1.0  0.25943  0.95543  0.58762  1.0000
  H   H19       1.0  0.07581  0.13781  0.75464  1.0000
  H   H20       1.0  0.92419  0.86219  0.24536  1.0000
  H   H21       1.0  0.23515  0.30229  0.66158  1.0000
  H   H22       1.0  0.76485  0.69771  0.33842  1.0000
  H   H23       1.0  0.91306  0.02780  0.83816  1.0000
  H   H24       1.0  0.08694  0.97220  0.16183  1.0000
  H   H25       1.0  0.48395  0.78592  0.67319  1.0000
  H   H26       1.0  0.51605  0.21408  0.32681  1.0000
  H   H27       1.0  0.60994  0.90780  0.49333  1.0000
  H   H28       1.0  0.39006  0.09220  0.50667  1.0000
  H   H29       1.0  0.07803  0.57644  0.05484  1.0000
  H   H30       1.0  0.92197  0.42356  0.94517  1.0000
  H   H31       1.0  0.10081  0.67373  0.18850  1.0000
  H   H32       1.0  0.89919  0.32628  0.81150  1.0000
  H   H33       1.0  0.19629  0.74007  0.07598  1.0000
  H   H34       1.0  0.80371  0.25993  0.92403  1.0000
  H   H35       1.0  0.11639  0.65863  0.83819  1.0000
  H   H36       1.0  0.88361  0.34137  0.16182  1.0000
  H   H37       1.0  0.19158  0.51360  0.85716  1.0000
  H   H38       1.0  0.80843  0.48640  0.14285  1.0000
  H   H39       1.0  0.17287  0.58952  0.71795  1.0000
  H   H40       1.0  0.82712  0.41048  0.28205  1.0000
  H   H41       1.0  0.73004  0.08761  0.09312  1.0000
  H   H42       1.0  0.26996  0.91239  0.90688  1.0000
  H   H43       1.0  0.87651  0.07267  0.04708  1.0000
  H   H44       1.0  0.12348  0.92733  0.95292  1.0000
  C   C1        1.0  0.51050  0.65732  0.17638  1.0000
  C   C2        1.0  0.48950  0.34268  0.82362  1.0000
  C   C3        1.0  0.52925  0.86801  0.21053  1.0000
  C   C4        1.0  0.47075  0.13199  0.78947  1.0000
  C   C5        1.0  0.44752  0.80428  0.28707  1.0000
  C   C6        1.0  0.55248  0.19572  0.71293  1.0000
  C   C7        1.0  0.35378  0.56766  0.32045  1.0000
  C   C8        1.0  0.64623  0.43235  0.67955  1.0000
  C   C9        1.0  0.26950  0.45120  0.25239  1.0000
  C   C10       1.0  0.73050  0.54880  0.74761  1.0000
  C   C11       1.0  0.18284  0.35441  0.30623  1.0000
  C   C12       1.0  0.81716  0.64559  0.69377  1.0000
  C   C13       1.0  0.17823  0.37053  0.42784  1.0000
  C   C14       1.0  0.82177  0.62947  0.57216  1.0000
  C   C15       1.0  0.26685  0.48734  0.49503  1.0000
  C   C16       1.0  0.73315  0.51266  0.50497  1.0000
  C   C17       1.0  0.35369  0.58509  0.44222  1.0000
  C   C18       1.0  0.64631  0.41491  0.55779  1.0000
  C   C19       1.0  0.08213  0.26901  0.48310  1.0000
  C   C20       1.0  0.91787  0.73099  0.51690  1.0000
  C   C21       1.0  0.94312  0.19128  0.41499  1.0000
  C   C22       1.0  0.05688  0.80872  0.58501  1.0000
  C   C23       1.0  0.84827  0.10106  0.46853  1.0000
  C   C24       1.0  0.15172  0.89894  0.53147  1.0000
  C   C25       1.0  0.89245  0.08370  0.59203  1.0000
  C   C26       1.0  0.10754  0.91630  0.40797  1.0000
  C   C27       1.0  0.03408  0.15528  0.66032  1.0000
  C   C28       1.0  0.96592  0.84472  0.33968  1.0000
  C   C29       1.0  0.12578  0.24757  0.60633  1.0000
  C   C30       1.0  0.87421  0.75243  0.39367  1.0000
  C   C31       1.0  0.81344  0.97868  0.76913  1.0000
  C   C32       1.0  0.18656  0.02132  0.23087  1.0000
  C   C33       1.0  0.59145  0.85576  0.67994  1.0000
  C   C34       1.0  0.40855  0.14424  0.32005  1.0000
  C   C35       1.0  0.65158  0.91624  0.59053  1.0000
  C   C36       1.0  0.34842  0.08376  0.40947  1.0000
  C   C37       1.0  0.95375  0.73097  0.03657  1.0000
  C   C38       1.0  0.04624  0.26903  0.96343  1.0000
  C   C39       1.0  0.09151  0.67770  0.09085  1.0000
  C   C40       1.0  0.90849  0.32230  0.90916  1.0000
  C   C41       1.0  0.36039  0.69292  0.85997  1.0000
  C   C42       1.0  0.63961  0.30708  0.14003  1.0000
  C   C43       1.0  0.20034  0.60895  0.81665  1.0000
  C   C44       1.0  0.79966  0.39105  0.18335  1.0000
  N   N1        1.0  0.56829  0.77555  0.14303  1.0000
  N   N2        1.0  0.43170  0.22445  0.85697  1.0000
  N   N3        1.0  0.43626  0.67063  0.26502  1.0000
  N   N4        1.0  0.56374  0.32937  0.73498  1.0000
  N   N5        1.0  0.79320  0.99505  0.64800  1.0000
  N   N6        1.0  0.20680  0.00495  0.35200  1.0000
  N   N7        1.0  0.69323  0.89545  0.79024  1.0000
  N   N8        1.0  0.30677  0.10455  0.20976  1.0000
  O   O1        1.0  0.82198  0.66207  0.03728  1.0000
  O   O2        1.0  0.17802  0.33793  0.96272  1.0000
  O   O3        1.0  0.97174  0.84507  0.99574  1.0000
  O   O4        1.0  0.02825  0.15493  0.00425  1.0000
  O   O5        1.0  0.38269  0.81677  0.88636  1.0000
  O   O6        1.0  0.61731  0.18323  0.11364  1.0000
  O   O7        1.0  0.47112  0.63686  0.86886  1.0000
  O   O8        1.0  0.52889  0.36314  0.13113  1.0000
  O   O9        1.0  0.79223  0.02297  0.08144  1.0000
  O   O10       1.0  0.20777  0.97703  0.91856  1.0000
