data_image0
_chemical_formula_structural       Cd2H40C44N8O8
_chemical_formula_sum              "Cd2 H40 C44 N8 O8"
_cell_length_a       9.8924
_cell_length_b       10.6193
_cell_length_c       11.767
_cell_angle_alpha    110.789
_cell_angle_beta     98.9692
_cell_angle_gamma    109.508

_space_group_name_H-M_alt    "P 1"
_space_group_IT_number       1

loop_
  _space_group_symop_operation_xyz
  'x, y, z'

loop_
  _atom_site_type_symbol
  _atom_site_label
  _atom_site_symmetry_multiplicity
  _atom_site_fract_x
  _atom_site_fract_y
  _atom_site_fract_z
  _atom_site_occupancy
  Cd  Cd1       1.0  0.54298  0.67239  0.91859  1.0000
  Cd  Cd2       1.0  0.45702  0.32761  0.08141  1.0000
  H   H1        1.0  0.18166  0.47743  0.15771  1.0000
  H   H2        1.0  0.81834  0.52257  0.84228  1.0000
  H   H3        1.0  0.28817  0.67518  0.23416  1.0000
  H   H4        1.0  0.71183  0.32482  0.76584  1.0000
  H   H5        1.0  0.12661  0.59307  0.10005  1.0000
  H   H6        1.0  0.87339  0.40693  0.89995  1.0000
  H   H7        1.0  0.74957  0.06338  0.80131  1.0000
  H   H8        1.0  0.25043  0.93662  0.19869  1.0000
  H   H9        1.0  0.58001  0.07837  0.82067  1.0000
  H   H10       1.0  0.41999  0.92163  0.17933  1.0000
  H   H11       1.0  0.58646  0.96861  0.66699  1.0000
  H   H12       1.0  0.41354  0.03139  0.33301  1.0000
  H   H13       1.0  0.65965  0.04910  0.10743  1.0000
  H   H14       1.0  0.34035  0.95090  0.89257  1.0000
  H   H15       1.0  0.11601  0.10435  0.19502  1.0000
  H   H16       1.0  0.88399  0.89565  0.80498  1.0000
  H   H17       1.0  0.92073  0.80136  0.06576  1.0000
  H   H18       1.0  0.07927  0.19864  0.93424  1.0000
  H   H19       1.0  0.76150  0.28366  0.12324  1.0000
  H   H20       1.0  0.23851  0.71634  0.87676  1.0000
  H   H21       1.0  0.84572  0.55144  0.24135  1.0000
  H   H22       1.0  0.15428  0.44856  0.75865  1.0000
  H   H23       1.0  0.24385  0.57999  0.48040  1.0000
  H   H24       1.0  0.75615  0.42001  0.51960  1.0000
  H   H25       1.0  0.15371  0.31028  0.36792  1.0000
  H   H26       1.0  0.84629  0.68972  0.63208  1.0000
  H   H27       1.0  0.24908  0.78202  0.61175  1.0000
  H   H28       1.0  0.75093  0.21798  0.38825  1.0000
  H   H29       1.0  0.36571  0.05548  0.70567  1.0000
  H   H30       1.0  0.63429  0.94452  0.29433  1.0000
  H   H31       1.0  0.09454  0.03946  0.37222  1.0000
  H   H32       1.0  0.90546  0.96054  0.62778  1.0000
  H   H33       1.0  0.98658  0.76730  0.27352  1.0000
  H   H34       1.0  0.01342  0.23270  0.72648  1.0000
  H   H35       1.0  0.33580  0.28882  0.79784  1.0000
  H   H36       1.0  0.66420  0.71118  0.20216  1.0000
  H   H37       1.0  0.48440  0.54862  0.60512  1.0000
  H   H38       1.0  0.51560  0.45138  0.39488  1.0000
  H   H39       1.0  0.33829  0.24978  0.42522  1.0000
  H   H40       1.0  0.66171  0.75022  0.57478  1.0000
  C   C1        1.0  0.31856  0.56484  0.05317  1.0000
  C   C2        1.0  0.68144  0.43516  0.94683  1.0000
  C   C3        1.0  0.22345  0.57725  0.14214  1.0000
  C   C4        1.0  0.77654  0.42276  0.85786  1.0000
  C   C5        1.0  0.58550  0.86724  0.79643  1.0000
  C   C6        1.0  0.41450  0.13276  0.20357  1.0000
  C   C7        1.0  0.62629  0.00278  0.77040  1.0000
  C   C8        1.0  0.37371  0.99722  0.22960  1.0000
  C   C9        1.0  0.75537  0.01980  0.11158  1.0000
  C   C10       1.0  0.24463  0.98020  0.88842  1.0000
  C   C11       1.0  0.99330  0.04624  0.16175  1.0000
  C   C12       1.0  0.00670  0.95376  0.83825  1.0000
  C   C13       1.0  0.89668  0.89839  0.09569  1.0000
  C   C14       1.0  0.10332  0.10161  0.90431  1.0000
  C   C15       1.0  0.95214  0.27870  0.23777  1.0000
  C   C16       1.0  0.04787  0.72130  0.76224  1.0000
  C   C17       1.0  0.86616  0.34775  0.20259  1.0000
  C   C18       1.0  0.13384  0.65225  0.79741  1.0000
  C   C19       1.0  0.91565  0.50053  0.26956  1.0000
  C   C20       1.0  0.08435  0.49947  0.73044  1.0000
  C   C21       1.0  0.05220  0.58856  0.37047  1.0000
  C   C22       1.0  0.94780  0.41144  0.62953  1.0000
  C   C23       1.0  0.13610  0.51618  0.40418  1.0000
  C   C24       1.0  0.86390  0.48382  0.59582  1.0000
  C   C25       1.0  0.08671  0.36333  0.33955  1.0000
  C   C26       1.0  0.91329  0.63668  0.66045  1.0000
  C   C27       1.0  0.11043  0.75198  0.43367  1.0000
  C   C28       1.0  0.88957  0.24802  0.56633  1.0000
  C   C29       1.0  0.21574  0.83693  0.55720  1.0000
  C   C30       1.0  0.78426  0.16307  0.44280  1.0000
  C   C31       1.0  0.28081  0.99139  0.61177  1.0000
  C   C32       1.0  0.71920  0.00861  0.38824  1.0000
  C   C33       1.0  0.23952  0.06441  0.54416  1.0000
  C   C34       1.0  0.76048  0.93559  0.45584  1.0000
  C   C35       1.0  0.13018  0.98302  0.42398  1.0000
  C   C36       1.0  0.86982  0.01698  0.57602  1.0000
  C   C37       1.0  0.06777  0.82874  0.36940  1.0000
  C   C38       1.0  0.93223  0.17126  0.63060  1.0000
  C   C39       1.0  0.35839  0.31974  0.72204  1.0000
  C   C40       1.0  0.64161  0.68026  0.27795  1.0000
  C   C41       1.0  0.43006  0.44885  0.61644  1.0000
  C   C42       1.0  0.56994  0.55115  0.38355  1.0000
  C   C43       1.0  0.35754  0.30275  0.52785  1.0000
  C   C44       1.0  0.64246  0.69725  0.47215  1.0000
  N   N1        1.0  0.74969  0.88357  0.06535  1.0000
  N   N2        1.0  0.25031  0.11643  0.93465  1.0000
  N   N3        1.0  0.90222  0.12241  0.17150  1.0000
  N   N4        1.0  0.09779  0.87760  0.82850  1.0000
  N   N5        1.0  0.42969  0.45773  0.73633  1.0000
  N   N6        1.0  0.57031  0.54227  0.26367  1.0000
  N   N7        1.0  0.31274  0.22189  0.59629  1.0000
  N   N8        1.0  0.68726  0.77811  0.40371  1.0000
  O   O1        1.0  0.39229  0.68386  0.04429  1.0000
  O   O2        1.0  0.60771  0.31615  0.95571  1.0000
  O   O3        1.0  0.31942  0.44002  0.99108  1.0000
  O   O4        1.0  0.68057  0.55998  0.00892  1.0000
  O   O5        1.0  0.48469  0.84132  0.85153  1.0000
  O   O6        1.0  0.51531  0.15868  0.14847  1.0000
  O   O7        1.0  0.65513  0.78503  0.76470  1.0000
  O   O8        1.0  0.34487  0.21497  0.23530  1.0000
