data_image0
_chemical_formula_structural       Mg4H40C36N4O20
_chemical_formula_sum              "Mg4 H40 C36 N4 O20"
_cell_length_a       7.37751
_cell_length_b       11.6348
_cell_length_c       12.4089
_cell_angle_alpha    80.0821
_cell_angle_beta     72.7489
_cell_angle_gamma    71.5012

_space_group_name_H-M_alt    "P 1"
_space_group_IT_number       1

loop_
  _space_group_symop_operation_xyz
  'x, y, z'

loop_
  _atom_site_type_symbol
  _atom_site_label
  _atom_site_symmetry_multiplicity
  _atom_site_fract_x
  _atom_site_fract_y
  _atom_site_fract_z
  _atom_site_occupancy
  Mg  Mg1       1.0  0.53956  0.74891  0.75731  1.0000
  Mg  Mg2       1.0  0.04593  0.75097  0.74261  1.0000
  Mg  Mg3       1.0  0.46044  0.25109  0.24269  1.0000
  Mg  Mg4       1.0  0.95406  0.24903  0.25739  1.0000
  H   H1        1.0  0.83949  0.56942  0.55604  1.0000
  H   H2        1.0  0.96474  0.93093  0.94397  1.0000
  H   H3        1.0  0.16051  0.43059  0.44396  1.0000
  H   H4        1.0  0.03527  0.06906  0.05603  1.0000
  H   H5        1.0  0.89711  0.91369  0.53067  1.0000
  H   H6        1.0  0.34158  0.58661  0.96921  1.0000
  H   H7        1.0  0.10288  0.08632  0.46933  1.0000
  H   H8        1.0  0.65843  0.41339  0.03079  1.0000
  H   H9        1.0  0.54199  0.82027  0.39410  1.0000
  H   H10       1.0  0.75611  0.68004  0.10597  1.0000
  H   H11       1.0  0.45800  0.17973  0.60590  1.0000
  H   H12       1.0  0.24389  0.31996  0.89403  1.0000
  H   H13       1.0  0.44438  0.97634  0.41421  1.0000
  H   H14       1.0  0.83480  0.52395  0.08602  1.0000
  H   H15       1.0  0.55561  0.02366  0.58579  1.0000
  H   H16       1.0  0.16520  0.47605  0.91398  1.0000
  H   H17       1.0  0.29151  0.89468  0.39146  1.0000
  H   H18       1.0  0.57764  0.60569  0.10819  1.0000
  H   H19       1.0  0.70848  0.10532  0.60854  1.0000
  H   H20       1.0  0.42236  0.39431  0.89180  1.0000
  H   H21       1.0  0.41452  0.37396  0.63166  1.0000
  H   H22       1.0  0.42022  0.12598  0.86832  1.0000
  H   H23       1.0  0.58548  0.62604  0.36834  1.0000
  H   H24       1.0  0.57978  0.87402  0.13168  1.0000
  H   H25       1.0  0.61804  0.35419  0.68971  1.0000
  H   H26       1.0  0.66198  0.14577  0.81039  1.0000
  H   H27       1.0  0.38196  0.64581  0.31029  1.0000
  H   H28       1.0  0.33802  0.85423  0.18961  1.0000
  H   H29       1.0  0.62652  0.41930  0.54937  1.0000
  H   H30       1.0  0.59544  0.08056  0.95067  1.0000
  H   H31       1.0  0.37348  0.58070  0.45063  1.0000
  H   H32       1.0  0.40456  0.91944  0.04933  1.0000
  H   H33       1.0  0.93004  0.56524  0.34249  1.0000
  H   H34       1.0  0.83793  0.93487  0.15750  1.0000
  H   H35       1.0  0.06996  0.43476  0.65751  1.0000
  H   H36       1.0  0.16207  0.06513  0.84251  1.0000
  H   H37       1.0  0.97202  0.93341  0.31837  1.0000
  H   H38       1.0  0.22385  0.56659  0.18146  1.0000
  H   H39       1.0  0.02798  0.06659  0.68163  1.0000
  H   H40       1.0  0.77615  0.43341  0.81854  1.0000
  C   C1        1.0  0.34584  0.85674  0.55817  1.0000
  C   C2        1.0  0.76111  0.64330  0.94170  1.0000
  C   C3        1.0  0.65416  0.14326  0.44183  1.0000
  C   C4        1.0  0.23889  0.35669  0.05830  1.0000
  C   C5        1.0  0.43659  0.54023  0.67725  1.0000
  C   C6        1.0  0.65439  0.95972  0.82274  1.0000
  C   C7        1.0  0.56341  0.45977  0.32275  1.0000
  C   C8        1.0  0.34561  0.04028  0.17727  1.0000
  C   C9        1.0  0.88111  0.64235  0.49620  1.0000
  C   C10       1.0  0.01978  0.85798  0.00376  1.0000
  C   C11       1.0  0.11888  0.35765  0.50380  1.0000
  C   C12       1.0  0.98022  0.14202  0.99624  1.0000
  C   C13       1.0  0.90606  0.84179  0.48288  1.0000
  C   C14       1.0  0.23089  0.65851  0.01699  1.0000
  C   C15       1.0  0.09394  0.15821  0.51711  1.0000
  C   C16       1.0  0.76912  0.34148  0.98300  1.0000
  C   C17       1.0  0.40731  0.88949  0.43191  1.0000
  C   C18       1.0  0.72873  0.61079  0.06803  1.0000
  C   C19       1.0  0.59269  0.11051  0.56809  1.0000
  C   C20       1.0  0.27127  0.38921  0.93197  1.0000
  C   C21       1.0  0.52766  0.41424  0.63504  1.0000
  C   C22       1.0  0.57706  0.08572  0.86497  1.0000
  C   C23       1.0  0.47234  0.58576  0.36496  1.0000
  C   C24       1.0  0.42294  0.91428  0.13503  1.0000
  C   C25       1.0  0.92740  0.64442  0.37971  1.0000
  C   C26       1.0  0.95182  0.85577  0.12024  1.0000
  C   C27       1.0  0.07260  0.35558  0.62029  1.0000
  C   C28       1.0  0.04819  0.14422  0.87976  1.0000
  C   C29       1.0  0.94739  0.84923  0.36621  1.0000
  C   C30       1.0  0.16305  0.65093  0.13368  1.0000
  C   C31       1.0  0.05261  0.15077  0.63379  1.0000
  C   C32       1.0  0.83696  0.34906  0.86632  1.0000
  C   C33       1.0  0.96488  0.74843  0.31195  1.0000
  C   C34       1.0  0.02542  0.75164  0.18796  1.0000
  C   C35       1.0  0.03513  0.25157  0.68805  1.0000
  C   C36       1.0  0.97459  0.24836  0.81204  1.0000
  N   N1        1.0  0.87903  0.73812  0.54565  1.0000
  N   N2        1.0  0.16303  0.76227  0.95427  1.0000
  N   N3        1.0  0.12096  0.26188  0.45435  1.0000
  N   N4        1.0  0.83698  0.23772  0.04573  1.0000
  O   O1        1.0  0.84398  0.73019  0.65764  1.0000
  O   O2        1.0  0.23161  0.77024  0.84227  1.0000
  O   O3        1.0  0.15601  0.26981  0.34236  1.0000
  O   O4        1.0  0.76839  0.22975  0.15773  1.0000
  O   O5        1.0  0.47237  0.84222  0.61349  1.0000
  O   O6        1.0  0.92840  0.65770  0.88649  1.0000
  O   O7        1.0  0.52763  0.15778  0.38651  1.0000
  O   O8        1.0  0.07160  0.34230  0.11351  1.0000
  O   O9        1.0  0.55236  0.58546  0.70386  1.0000
  O   O10       1.0  0.84195  0.91448  0.79641  1.0000
  O   O11       1.0  0.44765  0.41453  0.29614  1.0000
  O   O12       1.0  0.15804  0.08552  0.20360  1.0000
  O   O13       1.0  0.62087  0.65376  0.89753  1.0000
  O   O14       1.0  0.17201  0.84623  0.60223  1.0000
  O   O15       1.0  0.37913  0.34624  0.10247  1.0000
  O   O16       1.0  0.82799  0.15377  0.39777  1.0000
  O   O17       1.0  0.52876  0.90844  0.81765  1.0000
  O   O18       1.0  0.25466  0.59155  0.68209  1.0000
  O   O19       1.0  0.47124  0.09156  0.18236  1.0000
  O   O20       1.0  0.74534  0.40845  0.31791  1.0000
