data_image0
_chemical_formula_structural       H8Pb4C8Br8N4
_chemical_formula_sum              "H8 Pb4 C8 Br8 N4"
_cell_length_a       7.45492
_cell_length_b       7.88437
_cell_length_c       11.3689
_cell_angle_alpha    110.248
_cell_angle_beta     109.116
_cell_angle_gamma    89.9823

_space_group_name_H-M_alt    "P 1"
_space_group_IT_number       1

loop_
  _space_group_symop_operation_xyz
  'x, y, z'

loop_
  _atom_site_type_symbol
  _atom_site_label
  _atom_site_symmetry_multiplicity
  _atom_site_fract_x
  _atom_site_fract_y
  _atom_site_fract_z
  _atom_site_occupancy
  H   H1        1.0  0.67612  0.00136  0.00372  1.0000
  H   H2        1.0  0.32379  0.99853  0.99626  1.0000
  H   H3        1.0  0.32741  0.50161  0.00339  1.0000
  H   H4        1.0  0.67270  0.49845  0.99667  1.0000
  H   H5        1.0  0.04033  0.89191  0.78328  1.0000
  H   H6        1.0  0.95961  0.10797  0.21675  1.0000
  H   H7        1.0  0.74299  0.39198  0.78346  1.0000
  H   H8        1.0  0.25708  0.60803  0.21662  1.0000
  Pb  Pb1       1.0  0.52547  0.82609  0.65233  1.0000
  Pb  Pb2       1.0  0.47453  0.17394  0.34764  1.0000
  Pb  Pb3       1.0  0.12739  0.32637  0.65274  1.0000
  Pb  Pb4       1.0  0.87256  0.67373  0.34721  1.0000
  C   C1        1.0  0.82085  0.00043  0.00127  1.0000
  C   C2        1.0  0.17916  0.99955  0.99868  1.0000
  C   C3        1.0  0.18035  0.50058  0.00112  1.0000
  C   C4        1.0  0.81965  0.49946  0.99887  1.0000
  C   C5        1.0  0.02124  0.94014  0.87998  1.0000
  C   C6        1.0  0.97881  0.05989  0.12004  1.0000
  C   C7        1.0  0.85874  0.44016  0.88007  1.0000
  C   C8        1.0  0.14123  0.55994  0.11997  1.0000
  Br  Br1       1.0  0.78613  0.53652  0.57252  1.0000
  Br  Br2       1.0  0.21401  0.96319  0.42743  1.0000
  Br  Br3       1.0  0.21398  0.46352  0.42749  1.0000
  Br  Br4       1.0  0.78601  0.03686  0.57256  1.0000
  Br  Br5       1.0  0.40677  0.65609  0.81297  1.0000
  Br  Br6       1.0  0.59288  0.84372  0.18704  1.0000
  Br  Br7       1.0  0.59326  0.34393  0.18702  1.0000
  Br  Br8       1.0  0.40696  0.15630  0.81299  1.0000
  N   N1        1.0  0.84187  0.94051  0.88128  1.0000
  N   N2        1.0  0.15821  0.05933  0.11867  1.0000
  N   N3        1.0  0.03934  0.44062  0.88123  1.0000
  N   N4        1.0  0.96055  0.55930  0.11876  1.0000
