data_image0
_chemical_formula_structural       Cu2H24C32N16
_chemical_formula_sum              "Cu2 H24 C32 N16"
_cell_length_a       9.07499
_cell_length_b       9.9799
_cell_length_c       11.2487
_cell_angle_alpha    74.9171
_cell_angle_beta     66.2004
_cell_angle_gamma    62.9616

_space_group_name_H-M_alt    "P 1"
_space_group_IT_number       1

loop_
  _space_group_symop_operation_xyz
  'x, y, z'

loop_
  _atom_site_type_symbol
  _atom_site_label
  _atom_site_symmetry_multiplicity
  _atom_site_fract_x
  _atom_site_fract_y
  _atom_site_fract_z
  _atom_site_occupancy
  Cu  Cu1       1.0  0.00000  0.00000  0.50000  1.0000
  Cu  Cu2       1.0  0.50000  0.50000  0.00000  1.0000
  H   H1        1.0  0.20533  0.83948  0.68075  1.0000
  H   H2        1.0  0.27428  0.33943  0.18091  1.0000
  H   H3        1.0  0.79468  0.16052  0.31925  1.0000
  H   H4        1.0  0.72572  0.66057  0.81909  1.0000
  H   H5        1.0  0.36328  0.89843  0.78292  1.0000
  H   H6        1.0  0.95518  0.39846  0.28308  1.0000
  H   H7        1.0  0.63672  0.10157  0.21708  1.0000
  H   H8        1.0  0.04482  0.60154  0.71692  1.0000
  H   H9        1.0  0.27929  0.31996  0.53586  1.0000
  H   H10       1.0  0.86507  0.81974  0.03563  1.0000
  H   H11       1.0  0.72071  0.68004  0.46414  1.0000
  H   H12       1.0  0.13493  0.18026  0.96437  1.0000
  H   H13       1.0  0.12961  0.24015  0.44135  1.0000
  H   H14       1.0  0.18911  0.73989  0.94122  1.0000
  H   H15       1.0  0.87039  0.75985  0.55865  1.0000
  H   H16       1.0  0.81089  0.26011  0.05879  1.0000
  H   H17       1.0  0.54861  0.14400  0.67694  1.0000
  H   H18       1.0  0.63043  0.64407  0.17681  1.0000
  H   H19       1.0  0.45139  0.85600  0.32307  1.0000
  H   H20       1.0  0.36957  0.35593  0.82319  1.0000
  H   H21       1.0  0.41503  0.09425  0.82995  1.0000
  H   H22       1.0  0.66064  0.59427  0.32984  1.0000
  H   H23       1.0  0.58496  0.90575  0.17005  1.0000
  H   H24       1.0  0.33936  0.40573  0.67015  1.0000
  C   C1        1.0  0.25786  0.66870  0.43775  1.0000
  C   C2        1.0  0.63565  0.16876  0.93770  1.0000
  C   C3        1.0  0.74214  0.33130  0.56225  1.0000
  C   C4        1.0  0.36435  0.83124  0.06230  1.0000
  C   C5        1.0  0.43163  0.46273  0.31625  1.0000
  C   C6        1.0  0.78902  0.96276  0.81618  1.0000
  C   C7        1.0  0.56838  0.53726  0.68375  1.0000
  C   C8        1.0  0.21099  0.03723  0.18382  1.0000
  C   C9        1.0  0.22461  0.94488  0.65201  1.0000
  C   C10       1.0  0.17840  0.44479  0.15208  1.0000
  C   C11       1.0  0.77539  0.05512  0.34799  1.0000
  C   C12       1.0  0.82159  0.55521  0.84792  1.0000
  C   C13       1.0  0.31193  0.97984  0.70885  1.0000
  C   C14       1.0  0.99925  0.47980  0.20894  1.0000
  C   C15       1.0  0.68807  0.02016  0.29115  1.0000
  C   C16       1.0  0.00074  0.52020  0.79106  1.0000
  C   C17       1.0  0.33063  0.11794  0.67139  1.0000
  C   C18       1.0  0.88003  0.61787  0.17134  1.0000
  C   C19       1.0  0.66937  0.88206  0.32861  1.0000
  C   C20       1.0  0.11996  0.38214  0.82866  1.0000
  C   C21       1.0  0.26700  0.21183  0.57126  1.0000
  C   C22       1.0  0.95004  0.71163  0.07111  1.0000
  C   C23       1.0  0.73301  0.78817  0.42874  1.0000
  C   C24       1.0  0.04995  0.28837  0.92889  1.0000
  C   C25       1.0  0.18165  0.16978  0.51862  1.0000
  C   C26       1.0  0.13007  0.66957  0.01854  1.0000
  C   C27       1.0  0.81836  0.83021  0.48138  1.0000
  C   C28       1.0  0.86993  0.33042  0.98147  1.0000
  C   C29       1.0  0.41124  0.16574  0.73776  1.0000
  C   C30       1.0  0.68521  0.66577  0.23767  1.0000
  C   C31       1.0  0.58876  0.83426  0.26224  1.0000
  C   C32       1.0  0.31479  0.33423  0.76233  1.0000
  N   N1        1.0  0.18090  0.79525  0.46341  1.0000
  N   N2        1.0  0.56061  0.29527  0.96343  1.0000
  N   N3        1.0  0.81910  0.20475  0.53659  1.0000
  N   N4        1.0  0.43938  0.70473  0.03658  1.0000
  N   N5        1.0  0.33888  0.52625  0.42487  1.0000
  N   N6        1.0  0.70972  0.02632  0.92477  1.0000
  N   N7        1.0  0.66111  0.47375  0.57513  1.0000
  N   N8        1.0  0.29030  0.97368  0.07523  1.0000
  N   N9        1.0  0.51772  0.39282  0.22435  1.0000
  N   N10       1.0  0.86480  0.89275  0.72433  1.0000
  N   N11       1.0  0.48229  0.60717  0.77566  1.0000
  N   N12       1.0  0.13520  0.10724  0.27567  1.0000
  N   N13       1.0  0.15680  0.04017  0.56074  1.0000
  N   N14       1.0  0.24230  0.54001  0.06075  1.0000
  N   N15       1.0  0.84321  0.95983  0.43925  1.0000
  N   N16       1.0  0.75770  0.45999  0.93925  1.0000
