data_image0
_chemical_formula_structural       Cd4H24C16N8O28
_chemical_formula_sum              "Cd4 H24 C16 N8 O28"
_cell_length_a       7.26907
_cell_length_b       7.29819
_cell_length_c       14.6176
_cell_angle_alpha    89.9997
_cell_angle_beta     89.9996
_cell_angle_gamma    90.0004

_space_group_name_H-M_alt    "P 1"
_space_group_IT_number       1

loop_
  _space_group_symop_operation_xyz
  'x, y, z'

loop_
  _atom_site_type_symbol
  _atom_site_label
  _atom_site_symmetry_multiplicity
  _atom_site_fract_x
  _atom_site_fract_y
  _atom_site_fract_z
  _atom_site_occupancy
  Cd  Cd1       1.0  0.94735  0.00374  0.20665  1.0000
  Cd  Cd2       1.0  0.55265  0.99627  0.70665  1.0000
  Cd  Cd3       1.0  0.05264  0.50373  0.29335  1.0000
  Cd  Cd4       1.0  0.44735  0.49626  0.79335  1.0000
  H   H1        1.0  0.31773  0.59791  0.01602  1.0000
  H   H2        1.0  0.18226  0.40209  0.51602  1.0000
  H   H3        1.0  0.68227  0.09791  0.48398  1.0000
  H   H4        1.0  0.81772  0.90208  0.98397  1.0000
  H   H5        1.0  0.45257  0.79591  0.03149  1.0000
  H   H6        1.0  0.04743  0.20409  0.53149  1.0000
  H   H7        1.0  0.54742  0.29591  0.46852  1.0000
  H   H8        1.0  0.95258  0.70409  0.96851  1.0000
  H   H9        1.0  0.64089  0.52098  0.03238  1.0000
  H   H10       1.0  0.85911  0.47902  0.53238  1.0000
  H   H11       1.0  0.35912  0.02098  0.46762  1.0000
  H   H12       1.0  0.14089  0.97902  0.96762  1.0000
  H   H13       1.0  0.45306  0.28910  0.09394  1.0000
  H   H14       1.0  0.04693  0.71091  0.59394  1.0000
  H   H15       1.0  0.54694  0.78909  0.40606  1.0000
  H   H16       1.0  0.95306  0.21090  0.90606  1.0000
  H   H17       1.0  0.41052  0.41193  0.18943  1.0000
  H   H18       1.0  0.08948  0.58808  0.68943  1.0000
  H   H19       1.0  0.58948  0.91191  0.31057  1.0000
  H   H20       1.0  0.91052  0.08808  0.81057  1.0000
  H   H21       1.0  0.62021  0.32163  0.17226  1.0000
  H   H22       1.0  0.87980  0.67837  0.67226  1.0000
  H   H23       1.0  0.37979  0.82162  0.32774  1.0000
  H   H24       1.0  0.12020  0.17838  0.82774  1.0000
  C   C1        1.0  0.27030  0.73234  0.14161  1.0000
  C   C2        1.0  0.22972  0.26766  0.64160  1.0000
  C   C3        1.0  0.72971  0.23236  0.35840  1.0000
  C   C4        1.0  0.77029  0.76763  0.85840  1.0000
  C   C5        1.0  0.40087  0.67338  0.06643  1.0000
  C   C6        1.0  0.09913  0.32662  0.56643  1.0000
  C   C7        1.0  0.59913  0.17338  0.43357  1.0000
  C   C8        1.0  0.90088  0.82662  0.93357  1.0000
  C   C9        1.0  0.56440  0.55753  0.09479  1.0000
  C   C10       1.0  0.93560  0.44247  0.59480  1.0000
  C   C11       1.0  0.43560  0.05753  0.40520  1.0000
  C   C12       1.0  0.06440  0.94247  0.90520  1.0000
  C   C13       1.0  0.70699  0.65129  0.15736  1.0000
  C   C14       1.0  0.79301  0.34871  0.65736  1.0000
  C   C15       1.0  0.29301  0.15128  0.34264  1.0000
  C   C16       1.0  0.20698  0.84872  0.84264  1.0000
  N   N1        1.0  0.50802  0.38161  0.14001  1.0000
  N   N2        1.0  0.99197  0.61839  0.64001  1.0000
  N   N3        1.0  0.49198  0.88160  0.35999  1.0000
  N   N4        1.0  0.00802  0.11840  0.85999  1.0000
  N   N5        1.0  0.00201  0.29940  0.07290  1.0000
  N   N6        1.0  0.49798  0.70060  0.57290  1.0000
  N   N7        1.0  0.99798  0.79940  0.42710  1.0000
  N   N8        1.0  0.50201  0.20060  0.92709  1.0000
  O   O1        1.0  0.14868  0.84762  0.11889  1.0000
  O   O2        1.0  0.35133  0.15239  0.61889  1.0000
  O   O3        1.0  0.85131  0.34763  0.38112  1.0000
  O   O4        1.0  0.64870  0.65237  0.88111  1.0000
  O   O5        1.0  0.28746  0.65892  0.22121  1.0000
  O   O6        1.0  0.21256  0.34107  0.72120  1.0000
  O   O7        1.0  0.71256  0.15894  0.27879  1.0000
  O   O8        1.0  0.78746  0.84107  0.77879  1.0000
  O   O9        1.0  0.70237  0.82401  0.16442  1.0000
  O   O10       1.0  0.79764  0.17599  0.66443  1.0000
  O   O11       1.0  0.29763  0.32400  0.33558  1.0000
  O   O12       1.0  0.20237  0.67599  0.83558  1.0000
  O   O13       1.0  0.82062  0.54089  0.19284  1.0000
  O   O14       1.0  0.67938  0.45910  0.69284  1.0000
  O   O15       1.0  0.17940  0.04087  0.30715  1.0000
  O   O16       1.0  0.32062  0.95912  0.80716  1.0000
  O   O17       1.0  0.11522  0.30037  0.13954  1.0000
  O   O18       1.0  0.38477  0.69965  0.63953  1.0000
  O   O19       1.0  0.88476  0.80038  0.36047  1.0000
  O   O20       1.0  0.61523  0.19963  0.86046  1.0000
  O   O21       1.0  0.87453  0.17738  0.07273  1.0000
  O   O22       1.0  0.62548  0.82261  0.57273  1.0000
  O   O23       1.0  0.12546  0.67737  0.42727  1.0000
  O   O24       1.0  0.37452  0.32261  0.92727  1.0000
  O   O25       1.0  0.01324  0.41010  0.00823  1.0000
  O   O26       1.0  0.48675  0.58990  0.50823  1.0000
  O   O27       1.0  0.98677  0.91011  0.49177  1.0000
  O   O28       1.0  0.51324  0.08989  0.99177  1.0000
