data_image0
_chemical_formula_structural       Sr2Cu4H24C32O26
_chemical_formula_sum              "Sr2 Cu4 H24 C32 O26"
_cell_length_a       6.58456
_cell_length_b       11.6427
_cell_length_c       12.9903
_cell_angle_alpha    99.3986
_cell_angle_beta     96.7907
_cell_angle_gamma    92.2704

_space_group_name_H-M_alt    "P 1"
_space_group_IT_number       1

loop_
  _space_group_symop_operation_xyz
  'x, y, z'

loop_
  _atom_site_type_symbol
  _atom_site_label
  _atom_site_symmetry_multiplicity
  _atom_site_fract_x
  _atom_site_fract_y
  _atom_site_fract_z
  _atom_site_occupancy
  Sr  Sr1       1.0  0.66128  0.50681  0.85871  1.0000
  Sr  Sr2       1.0  0.33873  0.49320  0.14129  1.0000
  Cu  Cu1       1.0  0.23696  0.92614  0.97982  1.0000
  Cu  Cu2       1.0  0.76305  0.07387  0.02018  1.0000
  Cu  Cu3       1.0  0.28046  0.18571  0.05496  1.0000
  Cu  Cu4       1.0  0.71955  0.81430  0.94504  1.0000
  H   H1        1.0  0.56412  0.80603  0.33098  1.0000
  H   H2        1.0  0.43587  0.19398  0.66903  1.0000
  H   H3        1.0  0.66986  0.97518  0.47456  1.0000
  H   H4        1.0  0.33011  0.02482  0.52545  1.0000
  H   H5        1.0  0.63074  0.17803  0.43475  1.0000
  H   H6        1.0  0.36921  0.82196  0.56526  1.0000
  H   H7        1.0  0.90770  0.93657  0.59722  1.0000
  H   H8        1.0  0.09227  0.06342  0.40279  1.0000
  H   H9        1.0  0.87982  0.14030  0.55671  1.0000
  H   H10       1.0  0.12016  0.85969  0.44329  1.0000
  H   H11       1.0  0.95800  0.30848  0.70397  1.0000
  H   H12       1.0  0.04201  0.69152  0.29602  1.0000
  H   H13       1.0  0.05064  0.53159  0.72997  1.0000
  H   H14       1.0  0.94938  0.46841  0.27003  1.0000
  H   H15       1.0  0.93305  0.64553  0.72008  1.0000
  H   H16       1.0  0.06696  0.35447  0.27992  1.0000
  H   H17       1.0  0.31010  0.64914  0.97046  1.0000
  H   H18       1.0  0.68991  0.35087  0.02954  1.0000
  H   H19       1.0  0.19811  0.52488  0.91672  1.0000
  H   H20       1.0  0.80190  0.47513  0.08327  1.0000
  H   H21       1.0  0.37795  0.55297  0.67859  1.0000
  H   H22       1.0  0.62208  0.44703  0.32140  1.0000
  H   H23       1.0  0.33873  0.41434  0.64810  1.0000
  H   H24       1.0  0.66131  0.58566  0.35189  1.0000
  C   C1        1.0  0.44529  0.02480  0.19424  1.0000
  C   C2        1.0  0.55471  0.97520  0.80577  1.0000
  C   C3        1.0  0.46918  0.90985  0.21583  1.0000
  C   C4        1.0  0.53082  0.09016  0.78418  1.0000
  C   C5        1.0  0.54858  0.89518  0.31736  1.0000
  C   C6        1.0  0.45140  0.10482  0.68264  1.0000
  C   C7        1.0  0.60769  0.98923  0.39672  1.0000
  C   C8        1.0  0.39228  0.01077  0.60329  1.0000
  C   C9        1.0  0.58568  0.10112  0.37513  1.0000
  C   C10       1.0  0.41430  0.89888  0.62488  1.0000
  C   C11       1.0  0.50641  0.12174  0.27541  1.0000
  C   C12       1.0  0.49359  0.87826  0.72459  1.0000
  C   C13       1.0  0.41776  0.79964  0.13918  1.0000
  C   C14       1.0  0.58224  0.20036  0.86082  1.0000
  C   C15       1.0  0.49832  0.24751  0.26512  1.0000
  C   C16       1.0  0.50169  0.75249  0.73488  1.0000
  C   C17       1.0  0.07394  0.08813  0.84053  1.0000
  C   C18       1.0  0.92606  0.91187  0.15947  1.0000
  C   C19       1.0  0.01715  0.99145  0.75848  1.0000
  C   C20       1.0  0.98285  0.00855  0.24153  1.0000
  C   C21       1.0  0.94764  0.01312  0.65791  1.0000
  C   C22       1.0  0.05235  0.98687  0.34209  1.0000
  C   C23       1.0  0.93001  0.12562  0.63613  1.0000
  C   C24       1.0  0.06998  0.87437  0.36387  1.0000
  C   C25       1.0  0.97533  0.21932  0.71768  1.0000
  C   C26       1.0  0.02466  0.78067  0.28231  1.0000
  C   C27       1.0  0.04512  0.20359  0.82056  1.0000
  C   C28       1.0  0.95488  0.79641  0.17943  1.0000
  C   C29       1.0  0.02113  0.86511  0.77031  1.0000
  C   C30       1.0  0.97887  0.13488  0.22969  1.0000
  C   C31       1.0  0.07933  0.31181  0.90128  1.0000
  C   C32       1.0  0.92067  0.68819  0.09872  1.0000
  O   O1        1.0  0.36631  0.04114  0.09784  1.0000
  O   O2        1.0  0.63370  0.95885  0.90216  1.0000
  O   O3        1.0  0.91795  0.56537  0.73740  1.0000
  O   O4        1.0  0.08206  0.43463  0.26260  1.0000
  O   O5        1.0  0.34313  0.79881  0.04084  1.0000
  O   O6        1.0  0.65687  0.20119  0.95916  1.0000
  O   O7        1.0  0.32912  0.56451  0.95288  1.0000
  O   O8        1.0  0.67089  0.43550  0.04711  1.0000
  O   O9        1.0  0.45126  0.70479  0.17013  1.0000
  O   O10       1.0  0.54874  0.29521  0.82988  1.0000
  O   O11       1.0  0.34659  0.47821  0.70710  1.0000
  O   O12       1.0  0.65344  0.52179  0.29289  1.0000
  O   O13       1.0  0.41994  0.28068  0.17814  1.0000
  O   O14       1.0  0.58008  0.71932  0.82186  1.0000
  O   O15       1.0  0.57198  0.32223  0.34277  1.0000
  O   O16       1.0  0.42804  0.67778  0.65723  1.0000
  O   O17       1.0  0.15030  0.07084  0.93704  1.0000
  O   O18       1.0  0.84972  0.92915  0.06296  1.0000
  O   O19       1.0  0.09239  0.83312  0.85909  1.0000
  O   O20       1.0  0.90762  0.16688  0.14092  1.0000
  O   O21       1.0  0.94866  0.78902  0.69381  1.0000
  O   O22       1.0  0.05133  0.21098  0.30620  1.0000
  O   O23       1.0  0.18320  0.31448  0.99348  1.0000
  O   O24       1.0  0.81680  0.68552  0.00651  1.0000
  O   O25       1.0  0.00647  0.40458  0.87852  1.0000
  O   O26       1.0  0.99354  0.59542  0.12148  1.0000
