data_image0
_chemical_formula_structural       Co2H32C42N4O8
_chemical_formula_sum              "Co2 H32 C42 N4 O8"
_cell_length_a       7.79056
_cell_length_b       10.3431
_cell_length_c       12.6462
_cell_angle_alpha    108.684
_cell_angle_beta     93.52
_cell_angle_gamma    107.25

_space_group_name_H-M_alt    "P 1"
_space_group_IT_number       1

loop_
  _space_group_symop_operation_xyz
  'x, y, z'

loop_
  _atom_site_type_symbol
  _atom_site_label
  _atom_site_symmetry_multiplicity
  _atom_site_fract_x
  _atom_site_fract_y
  _atom_site_fract_z
  _atom_site_occupancy
  Co  Co1       1.0  0.65990  0.52060  0.88096  1.0000
  Co  Co2       1.0  0.34010  0.47940  0.11905  1.0000
  H   H1        1.0  0.55080  0.85535  0.82007  1.0000
  H   H2        1.0  0.44919  0.14465  0.17993  1.0000
  H   H3        1.0  0.52327  0.81578  0.61669  1.0000
  H   H4        1.0  0.47673  0.18424  0.38331  1.0000
  H   H5        1.0  0.22022  0.68421  0.48885  1.0000
  H   H6        1.0  0.77978  0.31580  0.51116  1.0000
  H   H7        1.0  0.94464  0.59965  0.57207  1.0000
  H   H8        1.0  0.05536  0.40035  0.42794  1.0000
  H   H9        1.0  0.16384  0.75793  0.97196  1.0000
  H   H10       1.0  0.83617  0.24207  0.02804  1.0000
  H   H11       1.0  0.38985  0.87310  0.98726  1.0000
  H   H12       1.0  0.61016  0.12689  0.01275  1.0000
  H   H13       1.0  0.91066  0.56278  0.08827  1.0000
  H   H14       1.0  0.08935  0.43721  0.91173  1.0000
  H   H15       1.0  0.08561  0.75150  0.26385  1.0000
  H   H16       1.0  0.91438  0.24849  0.73615  1.0000
  H   H17       1.0  0.91168  0.05613  0.15478  1.0000
  H   H18       1.0  0.08832  0.94386  0.84521  1.0000
  H   H19       1.0  0.73368  0.84727  0.98016  1.0000
  H   H20       1.0  0.26632  0.15272  0.01984  1.0000
  H   H21       1.0  0.12703  0.15131  0.32998  1.0000
  H   H22       1.0  0.87296  0.84868  0.67002  1.0000
  H   H23       1.0  0.15694  0.91807  0.42678  1.0000
  H   H24       1.0  0.84306  0.08195  0.57322  1.0000
  H   H25       1.0  0.35414  0.99544  0.60108  1.0000
  H   H26       1.0  0.64586  0.00457  0.39891  1.0000
  H   H27       1.0  0.55337  0.19314  0.77436  1.0000
  H   H28       1.0  0.44663  0.80686  0.22564  1.0000
  H   H29       1.0  0.44699  0.50885  0.67397  1.0000
  H   H30       1.0  0.55302  0.49116  0.32603  1.0000
  H   H31       1.0  0.25057  0.32706  0.49411  1.0000
  H   H32       1.0  0.74943  0.67295  0.50589  1.0000
  C   C1        1.0  0.09382  0.67562  0.74137  1.0000
  C   C2        1.0  0.90619  0.32438  0.25863  1.0000
  C   C3        1.0  0.26491  0.74737  0.81332  1.0000
  C   C4        1.0  0.73510  0.25263  0.18668  1.0000
  C   C5        1.0  0.41687  0.79931  0.76607  1.0000
  C   C6        1.0  0.58313  0.20069  0.23393  1.0000
  C   C7        1.0  0.40188  0.77657  0.65074  1.0000
  C   C8        1.0  0.59812  0.22344  0.34926  1.0000
  C   C9        1.0  0.23228  0.70358  0.57952  1.0000
  C   C10       1.0  0.76772  0.29643  0.42048  1.0000
  C   C11       1.0  0.07862  0.65590  0.62573  1.0000
  C   C12       1.0  0.92139  0.34410  0.37427  1.0000
  C   C13       1.0  0.92420  0.61862  0.78515  1.0000
  C   C14       1.0  0.07580  0.38138  0.21485  1.0000
  C   C15       1.0  0.29007  0.76557  0.93694  1.0000
  C   C16       1.0  0.70993  0.23443  0.06306  1.0000
  C   C17       1.0  0.36718  0.65503  0.96044  1.0000
  C   C18       1.0  0.63281  0.34496  0.03956  1.0000
  C   C19       1.0  0.90698  0.67175  0.10659  1.0000
  C   C20       1.0  0.09302  0.32825  0.89341  1.0000
  C   C21       1.0  0.00721  0.78044  0.20635  1.0000
  C   C22       1.0  0.99279  0.21955  0.79365  1.0000
  C   C23       1.0  0.00961  0.92325  0.22877  1.0000
  C   C24       1.0  0.99039  0.07674  0.77122  1.0000
  C   C25       1.0  0.91117  0.94726  0.14381  1.0000
  C   C26       1.0  0.08884  0.05273  0.85619  1.0000
  C   C27       1.0  0.81155  0.83169  0.04693  1.0000
  C   C28       1.0  0.18846  0.16830  0.95307  1.0000
  C   C29       1.0  0.10905  0.04329  0.33235  1.0000
  C   C30       1.0  0.89094  0.95671  0.66765  1.0000
  C   C31       1.0  0.17740  0.02734  0.42675  1.0000
  C   C32       1.0  0.82259  0.97266  0.57325  1.0000
  C   C33       1.0  0.28438  0.14288  0.53048  1.0000
  C   C34       1.0  0.71561  0.85713  0.46952  1.0000
  C   C35       1.0  0.37201  0.10797  0.61284  1.0000
  C   C36       1.0  0.62798  0.89204  0.38716  1.0000
  C   C37       1.0  0.48282  0.21698  0.70959  1.0000
  C   C38       1.0  0.51717  0.78302  0.29040  1.0000
  C   C39       1.0  0.42369  0.39366  0.65324  1.0000
  C   C40       1.0  0.57630  0.60634  0.34676  1.0000
  C   C41       1.0  0.31297  0.29112  0.55374  1.0000
  C   C42       1.0  0.68702  0.70889  0.44626  1.0000
  N   N1        1.0  0.80614  0.69437  0.02809  1.0000
  N   N2        1.0  0.19387  0.30562  0.97191  1.0000
  N   N3        1.0  0.50937  0.35843  0.73067  1.0000
  N   N4        1.0  0.49062  0.64157  0.26932  1.0000
  O   O1        1.0  0.78851  0.65987  0.77271  1.0000
  O   O2        1.0  0.21150  0.34013  0.22729  1.0000
  O   O3        1.0  0.92015  0.52874  0.83548  1.0000
  O   O4        1.0  0.07984  0.47125  0.16452  1.0000
  O   O5        1.0  0.45176  0.59661  0.88735  1.0000
  O   O6        1.0  0.54825  0.40339  0.11265  1.0000
  O   O7        1.0  0.34232  0.63229  0.05200  1.0000
  O   O8        1.0  0.65768  0.36770  0.94799  1.0000
