data_image0
_chemical_formula_structural       Mn4H32C36O20
_chemical_formula_sum              "Mn4 H32 C36 O20"
_cell_length_a       7.16407
_cell_length_b       10.0345
_cell_length_c       14.3718
_cell_angle_alpha    103.913
_cell_angle_beta     89.9995
_cell_angle_gamma    89.9998

_space_group_name_H-M_alt    "P 1"
_space_group_IT_number       1

loop_
  _space_group_symop_operation_xyz
  'x, y, z'

loop_
  _atom_site_type_symbol
  _atom_site_label
  _atom_site_symmetry_multiplicity
  _atom_site_fract_x
  _atom_site_fract_y
  _atom_site_fract_z
  _atom_site_occupancy
  Mn  Mn1       1.0  0.76889  0.94689  0.72957  1.0000
  Mn  Mn2       1.0  0.26889  0.05309  0.77042  1.0000
  Mn  Mn3       1.0  0.23112  0.05310  0.27042  1.0000
  Mn  Mn4       1.0  0.73111  0.94692  0.22957  1.0000
  H   H1        1.0  0.90802  0.87606  0.55663  1.0000
  H   H2        1.0  0.40801  0.12395  0.94337  1.0000
  H   H3        1.0  0.09198  0.12395  0.44336  1.0000
  H   H4        1.0  0.59199  0.87606  0.05663  1.0000
  H   H5        1.0  0.04849  0.81493  0.62155  1.0000
  H   H6        1.0  0.54848  0.18507  0.87845  1.0000
  H   H7        1.0  0.95152  0.18507  0.37844  1.0000
  H   H8        1.0  0.45152  0.81494  0.12156  1.0000
  H   H9        1.0  0.20064  0.34584  0.76170  1.0000
  H   H10       1.0  0.70065  0.65415  0.73831  1.0000
  H   H11       1.0  0.79936  0.65415  0.23831  1.0000
  H   H12       1.0  0.29936  0.34585  0.26169  1.0000
  H   H13       1.0  0.27385  0.59124  0.82711  1.0000
  H   H14       1.0  0.77386  0.40875  0.67289  1.0000
  H   H15       1.0  0.72614  0.40876  0.17288  1.0000
  H   H16       1.0  0.22615  0.59125  0.32711  1.0000
  H   H17       1.0  0.75316  0.64599  0.98182  1.0000
  H   H18       1.0  0.25318  0.35401  0.51819  1.0000
  H   H19       1.0  0.24684  0.35401  0.01819  1.0000
  H   H20       1.0  0.74682  0.64600  0.48181  1.0000
  H   H21       1.0  0.68105  0.39966  0.91855  1.0000
  H   H22       1.0  0.18106  0.60033  0.58145  1.0000
  H   H23       1.0  0.31895  0.60034  0.08146  1.0000
  H   H24       1.0  0.81894  0.39967  0.41855  1.0000
  H   H25       1.0  0.97603  0.83016  0.00947  1.0000
  H   H26       1.0  0.47604  0.16983  0.49053  1.0000
  H   H27       1.0  0.02397  0.16984  0.99053  1.0000
  H   H28       1.0  0.52397  0.83016  0.50946  1.0000
  H   H29       1.0  0.21076  0.79543  0.97494  1.0000
  H   H30       1.0  0.71076  0.20455  0.52506  1.0000
  H   H31       1.0  0.78924  0.20457  0.02505  1.0000
  H   H32       1.0  0.28922  0.79544  0.47494  1.0000
  C   C1        1.0  0.89725  0.20792  0.80087  1.0000
  C   C2        1.0  0.39726  0.79207  0.69913  1.0000
  C   C3        1.0  0.10275  0.79208  0.19913  1.0000
  C   C4        1.0  0.60274  0.20793  0.30087  1.0000
  C   C5        1.0  0.93672  0.35560  0.83693  1.0000
  C   C6        1.0  0.43673  0.64439  0.66308  1.0000
  C   C7        1.0  0.06328  0.64440  0.16308  1.0000
  C   C8        1.0  0.56328  0.35561  0.33692  1.0000
  C   C9        1.0  0.10303  0.41128  0.81040  1.0000
  C   C10       1.0  0.60304  0.58871  0.68960  1.0000
  C   C11       1.0  0.89697  0.58871  0.18960  1.0000
  C   C12       1.0  0.39697  0.41129  0.31040  1.0000
  C   C13       1.0  0.14281  0.54956  0.84660  1.0000
  C   C14       1.0  0.64282  0.45043  0.65341  1.0000
  C   C15       1.0  0.85719  0.45044  0.15340  1.0000
  C   C16       1.0  0.35718  0.54957  0.34659  1.0000
  C   C17       1.0  0.01796  0.63576  0.90848  1.0000
  C   C18       1.0  0.51796  0.36424  0.59152  1.0000
  C   C19       1.0  0.98204  0.36424  0.09152  1.0000
  C   C20       1.0  0.48203  0.63576  0.40848  1.0000
  C   C21       1.0  0.85031  0.58054  0.93274  1.0000
  C   C22       1.0  0.35031  0.41945  0.56727  1.0000
  C   C23       1.0  0.14969  0.41946  0.06727  1.0000
  C   C24       1.0  0.64968  0.58055  0.43273  1.0000
  C   C25       1.0  0.81040  0.44192  0.89792  1.0000
  C   C26       1.0  0.31040  0.55807  0.60208  1.0000
  C   C27       1.0  0.18960  0.55808  0.10208  1.0000
  C   C28       1.0  0.68959  0.44193  0.39791  1.0000
  C   C29       1.0  0.06665  0.78415  0.94835  1.0000
  C   C30       1.0  0.56666  0.21584  0.55165  1.0000
  C   C31       1.0  0.93335  0.21585  0.05164  1.0000
  C   C32       1.0  0.43333  0.78416  0.44836  1.0000
  C   C33       1.0  0.04370  0.87342  0.87693  1.0000
  C   C34       1.0  0.54371  0.12657  0.62307  1.0000
  C   C35       1.0  0.95630  0.12658  0.12306  1.0000
  C   C36       1.0  0.45630  0.87344  0.37693  1.0000
  O   O1        1.0  0.00977  0.13101  0.74136  1.0000
  O   O2        1.0  0.50979  0.86897  0.75864  1.0000
  O   O3        1.0  0.99022  0.86898  0.25864  1.0000
  O   O4        1.0  0.49022  0.13103  0.24136  1.0000
  O   O5        1.0  0.75032  0.15296  0.82677  1.0000
  O   O6        1.0  0.25033  0.84703  0.67324  1.0000
  O   O7        1.0  0.24968  0.84704  0.17324  1.0000
  O   O8        1.0  0.74967  0.15297  0.32676  1.0000
  O   O9        1.0  0.15895  0.97202  0.88287  1.0000
  O   O10       1.0  0.65895  0.02797  0.61713  1.0000
  O   O11       1.0  0.84104  0.02798  0.11713  1.0000
  O   O12       1.0  0.34105  0.97204  0.38287  1.0000
  O   O13       1.0  0.90908  0.84546  0.81782  1.0000
  O   O14       1.0  0.40908  0.15453  0.68218  1.0000
  O   O15       1.0  0.09092  0.15454  0.18218  1.0000
  O   O16       1.0  0.59092  0.84547  0.31781  1.0000
  O   O17       1.0  0.91394  0.81886  0.60262  1.0000
  O   O18       1.0  0.41393  0.18115  0.89738  1.0000
  O   O19       1.0  0.08607  0.18115  0.39738  1.0000
  O   O20       1.0  0.58607  0.81886  0.10262  1.0000
