data_image0
_chemical_formula_structural       Hg2H12C16N8Cl4
_chemical_formula_sum              "Hg2 H12 C16 N8 Cl4"
_cell_length_a       3.81582
_cell_length_b       10.5136
_cell_length_c       12.8403
_cell_angle_alpha    90.5471
_cell_angle_beta     91.9387
_cell_angle_gamma    94.4342

_space_group_name_H-M_alt    "P 1"
_space_group_IT_number       1

loop_
  _space_group_symop_operation_xyz
  'x, y, z'

loop_
  _atom_site_type_symbol
  _atom_site_label
  _atom_site_symmetry_multiplicity
  _atom_site_fract_x
  _atom_site_fract_y
  _atom_site_fract_z
  _atom_site_occupancy
  Hg  Hg1       1.0  0.11065  0.00696  0.74493  1.0000
  Hg  Hg2       1.0  0.88935  0.99304  0.25508  1.0000
  H   H1        1.0  0.88231  0.17370  0.52105  1.0000
  H   H2        1.0  0.11769  0.82630  0.47895  1.0000
  H   H3        1.0  0.66607  0.54751  0.58306  1.0000
  H   H4        1.0  0.33392  0.45249  0.41694  1.0000
  H   H5        1.0  0.11569  0.31296  0.82082  1.0000
  H   H6        1.0  0.88429  0.68705  0.17918  1.0000
  H   H7        1.0  0.89507  0.83579  0.97694  1.0000
  H   H8        1.0  0.10495  0.16420  0.02307  1.0000
  H   H9        1.0  0.66824  0.44912  0.91731  1.0000
  H   H10       1.0  0.33178  0.55087  0.08268  1.0000
  H   H11       1.0  0.12440  0.70071  0.68412  1.0000
  H   H12       1.0  0.87560  0.29930  0.31588  1.0000
  C   C1        1.0  0.88572  0.25367  0.57601  1.0000
  C   C2        1.0  0.11427  0.74634  0.42399  1.0000
  C   C3        1.0  0.77112  0.45933  0.61060  1.0000
  C   C4        1.0  0.22887  0.54067  0.38939  1.0000
  C   C5        1.0  0.89486  0.44890  0.71421  1.0000
  C   C6        1.0  0.10514  0.55111  0.28578  1.0000
  C   C7        1.0  0.01320  0.33064  0.74208  1.0000
  C   C8        1.0  0.98680  0.66936  0.25792  1.0000
  C   C9        1.0  0.89889  0.75476  0.92328  1.0000
  C   C10       1.0  0.10112  0.24523  0.07673  1.0000
  C   C11       1.0  0.77621  0.54186  0.88994  1.0000
  C   C12       1.0  0.22379  0.45813  0.11005  1.0000
  C   C13       1.0  0.89861  0.55622  0.78849  1.0000
  C   C14       1.0  0.10139  0.44378  0.21151  1.0000
  C   C15       1.0  0.02170  0.68002  0.76118  1.0000
  C   C16       1.0  0.97831  0.31999  0.23883  1.0000
  N   N1        1.0  0.00935  0.23434  0.67300  1.0000
  N   N2        1.0  0.99064  0.76566  0.32700  1.0000
  N   N3        1.0  0.76578  0.36270  0.54158  1.0000
  N   N4        1.0  0.23422  0.63730  0.45842  1.0000
  N   N5        1.0  0.02197  0.77820  0.82829  1.0000
  N   N6        1.0  0.97804  0.22180  0.17171  1.0000
  N   N7        1.0  0.77616  0.64014  0.95725  1.0000
  N   N8        1.0  0.22384  0.35985  0.04275  1.0000
  Cl  Cl1       1.0  0.54373  0.09410  0.87550  1.0000
  Cl  Cl2       1.0  0.45627  0.90590  0.12450  1.0000
  Cl  Cl3       1.0  0.66035  0.91718  0.61763  1.0000
  Cl  Cl4       1.0  0.33966  0.08282  0.38237  1.0000
