data_image0
_chemical_formula_structural       Hg2H12C16Br4N8
_chemical_formula_sum              "Hg2 H12 C16 Br4 N8"
_cell_length_a       4.05234
_cell_length_b       10.8499
_cell_length_c       12.5943
_cell_angle_alpha    93.7539
_cell_angle_beta     90.0002
_cell_angle_gamma    90.0002

_space_group_name_H-M_alt    "P 1"
_space_group_IT_number       1

loop_
  _space_group_symop_operation_xyz
  'x, y, z'

loop_
  _atom_site_type_symbol
  _atom_site_label
  _atom_site_symmetry_multiplicity
  _atom_site_fract_x
  _atom_site_fract_y
  _atom_site_fract_z
  _atom_site_occupancy
  Hg  Hg1       1.0  0.00003  0.00001  1.00000  1.0000
  Hg  Hg2       1.0  0.49999  0.00001  0.50000  1.0000
  H   H1        1.0  0.84978  0.69404  0.93784  1.0000
  H   H2        1.0  0.34976  0.30596  0.56216  1.0000
  H   H3        1.0  0.15026  0.30595  0.06215  1.0000
  H   H4        1.0  0.65020  0.69404  0.43784  1.0000
  H   H5        1.0  0.39087  0.82961  0.19981  1.0000
  H   H6        1.0  0.89085  0.17040  0.30018  1.0000
  H   H7        1.0  0.60915  0.17039  0.80018  1.0000
  H   H8        1.0  0.10911  0.82960  0.69982  1.0000
  H   H9        1.0  0.48678  0.61003  0.25251  1.0000
  H   H10       1.0  0.98672  0.38998  0.24750  1.0000
  H   H11       1.0  0.51326  0.38998  0.74749  1.0000
  H   H12       1.0  0.01324  0.61002  0.75252  1.0000
  C   C1        1.0  0.06101  0.55346  0.03372  1.0000
  C   C2        1.0  0.56094  0.44654  0.46627  1.0000
  C   C3        1.0  0.93906  0.44654  0.96626  1.0000
  C   C4        1.0  0.43899  0.55346  0.53374  1.0000
  C   C5        1.0  0.99721  0.67484  0.00734  1.0000
  C   C6        1.0  0.49715  0.32517  0.49266  1.0000
  C   C7        1.0  0.00287  0.32517  0.99265  1.0000
  C   C8        1.0  0.50279  0.67483  0.50735  1.0000
  C   C9        1.0  0.29041  0.74982  0.15332  1.0000
  C   C10       1.0  0.79037  0.25020  0.34669  1.0000
  C   C11       1.0  0.70962  0.25019  0.84669  1.0000
  C   C12       1.0  0.20958  0.74980  0.65332  1.0000
  C   C13       1.0  0.34631  0.62875  0.18119  1.0000
  C   C14       1.0  0.84628  0.37125  0.31881  1.0000
  C   C15       1.0  0.65369  0.37125  0.81881  1.0000
  C   C16       1.0  0.15368  0.62874  0.68120  1.0000
  Br  Br1       1.0  0.39471  0.09025  0.14235  1.0000
  Br  Br2       1.0  0.89471  0.90977  0.35765  1.0000
  Br  Br3       1.0  0.60536  0.90975  0.85765  1.0000
  Br  Br4       1.0  0.10526  0.09023  0.64235  1.0000
  N   N1        1.0  0.23314  0.53096  0.12205  1.0000
  N   N2        1.0  0.73308  0.46905  0.37795  1.0000
  N   N3        1.0  0.76692  0.46905  0.87795  1.0000
  N   N4        1.0  0.26688  0.53095  0.62206  1.0000
  N   N5        1.0  0.11178  0.77168  0.06709  1.0000
  N   N6        1.0  0.61176  0.22833  0.43291  1.0000
  N   N7        1.0  0.88825  0.22832  0.93289  1.0000
  N   N8        1.0  0.38819  0.77167  0.56710  1.0000
