data_image0
_chemical_formula_structural       Ti2H56C22N2O8
_chemical_formula_sum              "Ti2 H56 C22 N2 O8"
_cell_length_a       8.78265
_cell_length_b       8.92796
_cell_length_c       11.376
_cell_angle_alpha    100.858
_cell_angle_beta     101.642
_cell_angle_gamma    115.209

_space_group_name_H-M_alt    "P 1"
_space_group_IT_number       1

loop_
  _space_group_symop_operation_xyz
  'x, y, z'

loop_
  _atom_site_type_symbol
  _atom_site_label
  _atom_site_symmetry_multiplicity
  _atom_site_fract_x
  _atom_site_fract_y
  _atom_site_fract_z
  _atom_site_occupancy
  Ti  Ti1       1.0  0.67725  0.65541  0.61631  1.0000
  Ti  Ti2       1.0  0.32275  0.34459  0.38369  1.0000
  H   H1        1.0  0.70279  0.42526  0.42632  1.0000
  H   H2        1.0  0.29721  0.57474  0.57368  1.0000
  H   H3        1.0  0.83112  0.62977  0.43761  1.0000
  H   H4        1.0  0.16888  0.37023  0.56239  1.0000
  H   H5        1.0  0.93207  0.45455  0.60955  1.0000
  H   H6        1.0  0.06793  0.54545  0.39045  1.0000
  H   H7        1.0  0.06450  0.66807  0.60783  1.0000
  H   H8        1.0  0.93551  0.33194  0.39217  1.0000
  H   H9        1.0  0.14673  0.83640  0.87370  1.0000
  H   H10       1.0  0.85327  0.16360  0.12630  1.0000
  H   H11       1.0  0.15015  0.77268  0.01302  1.0000
  H   H12       1.0  0.84984  0.22732  0.98698  1.0000
  H   H13       1.0  0.03512  0.88931  0.97544  1.0000
  H   H14       1.0  0.96487  0.11069  0.02456  1.0000
  H   H15       1.0  0.93560  0.52002  0.82318  1.0000
  H   H16       1.0  0.06440  0.47998  0.17682  1.0000
  H   H17       1.0  0.74795  0.64650  0.98554  1.0000
  H   H18       1.0  0.25204  0.35350  0.01446  1.0000
  H   H19       1.0  0.86041  0.52778  0.02286  1.0000
  H   H20       1.0  0.13959  0.47222  0.97714  1.0000
  H   H21       1.0  0.66439  0.42846  0.89035  1.0000
  H   H22       1.0  0.33560  0.57154  0.10965  1.0000
  H   H23       1.0  0.68489  0.86044  0.87629  1.0000
  H   H24       1.0  0.31510  0.13957  0.12371  1.0000
  H   H25       1.0  0.28241  0.61942  0.79776  1.0000
  H   H26       1.0  0.71758  0.38058  0.20223  1.0000
  H   H27       1.0  0.43587  0.71362  0.95330  1.0000
  H   H28       1.0  0.56412  0.28637  0.04670  1.0000
  H   H29       1.0  0.44679  0.55475  0.83933  1.0000
  H   H30       1.0  0.55320  0.44525  0.16067  1.0000
  H   H31       1.0  0.60137  0.06178  0.79061  1.0000
  H   H32       1.0  0.39862  0.93822  0.20939  1.0000
  H   H33       1.0  0.50551  0.01419  0.91160  1.0000
  H   H34       1.0  0.49448  0.98581  0.08840  1.0000
  H   H35       1.0  0.37303  0.90960  0.74984  1.0000
  H   H36       1.0  0.62697  0.09040  0.25015  1.0000
  H   H37       1.0  0.41268  0.78184  0.47680  1.0000
  H   H38       1.0  0.58732  0.21816  0.52320  1.0000
  H   H39       1.0  0.38989  0.69348  0.31525  1.0000
  H   H40       1.0  0.61011  0.30652  0.68475  1.0000
  H   H41       1.0  0.60255  0.85458  0.42554  1.0000
  H   H42       1.0  0.39745  0.14542  0.57445  1.0000
  H   H43       1.0  0.19252  0.01705  0.74375  1.0000
  H   H44       1.0  0.80749  0.98295  0.25625  1.0000
  H   H45       1.0  0.22036  0.23134  0.78886  1.0000
  H   H46       1.0  0.77964  0.76866  0.21114  1.0000
  H   H47       1.0  0.16696  0.11896  0.62619  1.0000
  H   H48       1.0  0.83304  0.88104  0.37381  1.0000
  H   H49       1.0  0.92454  0.01171  0.78917  1.0000
  H   H50       1.0  0.07547  0.98828  0.21083  1.0000
  H   H51       1.0  0.89641  0.16400  0.57057  1.0000
  H   H52       1.0  0.10359  0.83600  0.42944  1.0000
  H   H53       1.0  0.94168  0.27316  0.73283  1.0000
  H   H54       1.0  0.05833  0.72684  0.26717  1.0000
  H   H55       1.0  0.73172  0.08647  0.64536  1.0000
  H   H56       1.0  0.26829  0.91353  0.35465  1.0000
  C   C1        1.0  0.96322  0.53574  0.54715  1.0000
  C   C2        1.0  0.03678  0.46426  0.45285  1.0000
  C   C3        1.0  0.06829  0.78949  0.93540  1.0000
  C   C4        1.0  0.93171  0.21051  0.06460  1.0000
  C   C5        1.0  0.89866  0.61887  0.86156  1.0000
  C   C6        1.0  0.10134  0.38113  0.13845  1.0000
  C   C7        1.0  0.78603  0.55110  0.94497  1.0000
  C   C8        1.0  0.21397  0.44890  0.05503  1.0000
  C   C9        1.0  0.54886  0.80910  0.81203  1.0000
  C   C10       1.0  0.45114  0.19090  0.18797  1.0000
  C   C11       1.0  0.42085  0.66561  0.85312  1.0000
  C   C12       1.0  0.57914  0.33439  0.14688  1.0000
  C   C13       1.0  0.50521  0.95786  0.81696  1.0000
  C   C14       1.0  0.49479  0.04214  0.18304  1.0000
  C   C15       1.0  0.47661  0.74002  0.41324  1.0000
  C   C16       1.0  0.52338  0.25998  0.58676  1.0000
  C   C17       1.0  0.14359  0.10355  0.71560  1.0000
  C   C18       1.0  0.85641  0.89644  0.28440  1.0000
  C   C19       1.0  0.94579  0.02700  0.69837  1.0000
  C   C20       1.0  0.05422  0.97300  0.30163  1.0000
  C   C21       1.0  0.87468  0.14537  0.65986  1.0000
  C   C22       1.0  0.12532  0.85463  0.34015  1.0000
  N   N1        1.0  0.80323  0.54365  0.48818  1.0000
  N   N2        1.0  0.19677  0.45635  0.51182  1.0000
  O   O1        1.0  0.50937  0.60678  0.44204  1.0000
  O   O2        1.0  0.49064  0.39322  0.55796  1.0000
  O   O3        1.0  0.80092  0.64147  0.75890  1.0000
  O   O4        1.0  0.19908  0.35853  0.24110  1.0000
  O   O5        1.0  0.54235  0.74047  0.68705  1.0000
  O   O6        1.0  0.45766  0.25953  0.31296  1.0000
  O   O7        1.0  0.85187  0.86188  0.60405  1.0000
  O   O8        1.0  0.14813  0.13811  0.39595  1.0000
