data_image0
_chemical_formula_structural       U4H52C32N4O28
_chemical_formula_sum              "U4 H52 C32 N4 O28"
_cell_length_a       8.13699
_cell_length_b       12.0454
_cell_length_c       12.3094
_cell_angle_alpha    89.9999
_cell_angle_beta     89.9999
_cell_angle_gamma    95.1405

_space_group_name_H-M_alt    "P 1"
_space_group_IT_number       1

loop_
  _space_group_symop_operation_xyz
  'x, y, z'

loop_
  _atom_site_type_symbol
  _atom_site_label
  _atom_site_symmetry_multiplicity
  _atom_site_fract_x
  _atom_site_fract_y
  _atom_site_fract_z
  _atom_site_occupancy
  U   U1        1.0  0.86334  0.30152  0.40005  1.0000
  U   U2        1.0  0.63666  0.19848  0.90004  1.0000
  U   U3        1.0  0.13665  0.69849  0.59994  1.0000
  U   U4        1.0  0.36334  0.80151  0.09995  1.0000
  H   H1        1.0  0.56887  0.60390  0.59443  1.0000
  H   H2        1.0  0.93112  0.89610  0.09442  1.0000
  H   H3        1.0  0.43112  0.39610  0.40558  1.0000
  H   H4        1.0  0.06888  0.10390  0.90558  1.0000
  H   H5        1.0  0.66401  0.58511  0.72079  1.0000
  H   H6        1.0  0.83599  0.91489  0.22079  1.0000
  H   H7        1.0  0.33599  0.41489  0.27921  1.0000
  H   H8        1.0  0.16402  0.08511  0.77921  1.0000
  H   H9        1.0  0.37845  0.47515  0.68864  1.0000
  H   H10       1.0  0.12155  0.02485  0.18864  1.0000
  H   H11       1.0  0.62155  0.52485  0.31136  1.0000
  H   H12       1.0  0.87845  0.97515  0.81136  1.0000
  H   H13       1.0  0.47307  0.39516  0.59113  1.0000
  H   H14       1.0  0.02693  0.10484  0.09113  1.0000
  H   H15       1.0  0.52693  0.60484  0.40887  1.0000
  H   H16       1.0  0.97307  0.89515  0.90887  1.0000
  H   H17       1.0  0.32144  0.17833  0.26100  1.0000
  H   H18       1.0  0.17856  0.32167  0.76100  1.0000
  H   H19       1.0  0.67856  0.82167  0.73900  1.0000
  H   H20       1.0  0.82144  0.67833  0.23900  1.0000
  H   H21       1.0  0.45240  0.06864  0.24789  1.0000
  H   H22       1.0  0.04760  0.43136  0.74789  1.0000
  H   H23       1.0  0.54760  0.93136  0.75211  1.0000
  H   H24       1.0  0.95240  0.56864  0.25211  1.0000
  H   H25       1.0  0.53796  0.20960  0.23820  1.0000
  H   H26       1.0  0.96203  0.29040  0.73821  1.0000
  H   H27       1.0  0.46204  0.79040  0.76180  1.0000
  H   H28       1.0  0.03797  0.70960  0.26180  1.0000
  H   H29       1.0  0.51694  0.14173  0.60536  1.0000
  H   H30       1.0  0.98306  0.35828  0.10536  1.0000
  H   H31       1.0  0.48306  0.85827  0.39464  1.0000
  H   H32       1.0  0.01694  0.64173  0.89464  1.0000
  H   H33       1.0  0.34790  0.03722  0.62491  1.0000
  H   H34       1.0  0.15211  0.46278  0.12491  1.0000
  H   H35       1.0  0.65211  0.96278  0.37509  1.0000
  H   H36       1.0  0.84789  0.53722  0.87509  1.0000
  H   H37       1.0  0.31123  0.18041  0.61403  1.0000
  H   H38       1.0  0.18877  0.31959  0.11402  1.0000
  H   H39       1.0  0.68877  0.81959  0.38598  1.0000
  H   H40       1.0  0.81123  0.68041  0.88598  1.0000
  H   H41       1.0  0.23452  0.00751  0.34801  1.0000
  H   H42       1.0  0.26548  0.49249  0.84801  1.0000
  H   H43       1.0  0.76548  0.99249  0.65199  1.0000
  H   H44       1.0  0.73452  0.50751  0.15199  1.0000
  H   H45       1.0  0.11291  0.07639  0.44525  1.0000
  H   H46       1.0  0.38709  0.42361  0.94524  1.0000
  H   H47       1.0  0.88709  0.92361  0.55476  1.0000
  H   H48       1.0  0.61291  0.57639  0.05475  1.0000
  H   H49       1.0  0.21299  0.95617  0.48205  1.0000
  H   H50       1.0  0.28701  0.54383  0.98205  1.0000
  H   H51       1.0  0.78701  0.04383  0.51795  1.0000
  H   H52       1.0  0.71299  0.45617  0.01795  1.0000
  C   C1        1.0  0.77622  0.51119  0.58531  1.0000
  C   C2        1.0  0.72377  0.98881  0.08531  1.0000
  C   C3        1.0  0.22377  0.48881  0.41468  1.0000
  C   C4        1.0  0.27623  0.01119  0.91469  1.0000
  C   C5        1.0  0.62478  0.54219  0.64543  1.0000
  C   C6        1.0  0.87522  0.95781  0.14543  1.0000
  C   C7        1.0  0.37522  0.45781  0.35457  1.0000
  C   C8        1.0  0.12478  0.04219  0.85457  1.0000
  C   C9        1.0  0.49668  0.44444  0.66564  1.0000
  C   C10       1.0  0.00332  0.05556  0.16564  1.0000
  C   C11       1.0  0.50332  0.55556  0.33436  1.0000
  C   C12       1.0  0.99669  0.94444  0.83436  1.0000
  C   C13       1.0  0.54462  0.36489  0.75189  1.0000
  C   C14       1.0  0.95537  0.13511  0.25188  1.0000
  C   C15       1.0  0.45537  0.63511  0.24811  1.0000
  C   C16       1.0  0.04463  0.86490  0.74811  1.0000
  C   C17       1.0  0.44513  0.15336  0.27939  1.0000
  C   C18       1.0  0.05487  0.34663  0.77940  1.0000
  C   C19       1.0  0.55487  0.84663  0.72060  1.0000
  C   C20       1.0  0.94513  0.65337  0.22060  1.0000
  C   C21       1.0  0.47406  0.15858  0.39965  1.0000
  C   C22       1.0  0.02594  0.34143  0.89965  1.0000
  C   C23       1.0  0.52595  0.84142  0.60035  1.0000
  C   C24       1.0  0.97406  0.65858  0.10035  1.0000
  C   C25       1.0  0.38848  0.11624  0.58496  1.0000
  C   C26       1.0  0.11152  0.38376  0.08496  1.0000
  C   C27       1.0  0.61152  0.88376  0.41504  1.0000
  C   C28       1.0  0.88848  0.61624  0.91504  1.0000
  C   C29       1.0  0.22377  0.03218  0.43278  1.0000
  C   C30       1.0  0.27623  0.46782  0.93278  1.0000
  C   C31       1.0  0.77623  0.96782  0.56722  1.0000
  C   C32       1.0  0.72377  0.53218  0.06722  1.0000
  N   N1        1.0  0.36961  0.10220  0.46771  1.0000
  N   N2        1.0  0.13039  0.39780  0.96771  1.0000
  N   N3        1.0  0.63039  0.89780  0.53230  1.0000
  N   N4        1.0  0.86961  0.60220  0.03229  1.0000
  O   O1        1.0  0.78047  0.37311  0.28505  1.0000
  O   O2        1.0  0.71953  0.12688  0.78505  1.0000
  O   O3        1.0  0.21953  0.62688  0.71495  1.0000
  O   O4        1.0  0.28047  0.87312  0.21495  1.0000
  O   O5        1.0  0.95201  0.23016  0.51273  1.0000
  O   O6        1.0  0.54799  0.26983  0.01274  1.0000
  O   O7        1.0  0.04799  0.76984  0.48726  1.0000
  O   O8        1.0  0.45200  0.73016  0.98727  1.0000
  O   O9        1.0  0.75999  0.43094  0.51821  1.0000
  O   O10       1.0  0.74001  0.06906  0.01821  1.0000
  O   O11       1.0  0.24001  0.56906  0.48179  1.0000
  O   O12       1.0  0.25999  0.93094  0.98179  1.0000
  O   O13       1.0  0.91285  0.56854  0.60189  1.0000
  O   O14       1.0  0.58713  0.93147  0.10190  1.0000
  O   O15       1.0  0.08714  0.43147  0.39810  1.0000
  O   O16       1.0  0.41286  0.06853  0.89811  1.0000
  O   O17       1.0  0.68395  0.37889  0.80023  1.0000
  O   O18       1.0  0.81605  0.12112  0.30023  1.0000
  O   O19       1.0  0.31605  0.62112  0.19977  1.0000
  O   O20       1.0  0.18395  0.87889  0.69977  1.0000
  O   O21       1.0  0.44441  0.28052  0.77721  1.0000
  O   O22       1.0  0.05558  0.21948  0.27722  1.0000
  O   O23       1.0  0.55559  0.71948  0.22278  1.0000
  O   O24       1.0  0.94442  0.78052  0.72278  1.0000
  O   O25       1.0  0.59674  0.21940  0.43940  1.0000
  O   O26       1.0  0.90326  0.28060  0.93940  1.0000
  O   O27       1.0  0.40326  0.78060  0.56059  1.0000
  O   O28       1.0  0.09674  0.71940  0.06060  1.0000
