data_image0
_chemical_formula_structural       U4H40C28N8O28
_chemical_formula_sum              "U4 H40 C28 N8 O28"
_cell_length_a       7.68262
_cell_length_b       10.0381
_cell_length_c       14.7314
_cell_angle_alpha    90.0013
_cell_angle_beta     104.473
_cell_angle_gamma    89.9969

_space_group_name_H-M_alt    "P 1"
_space_group_IT_number       1

loop_
  _space_group_symop_operation_xyz
  'x, y, z'

loop_
  _atom_site_type_symbol
  _atom_site_label
  _atom_site_symmetry_multiplicity
  _atom_site_fract_x
  _atom_site_fract_y
  _atom_site_fract_z
  _atom_site_occupancy
  U   U1        1.0  0.44480  0.90751  0.16539  1.0000
  U   U2        1.0  0.55521  0.40756  0.33461  1.0000
  U   U3        1.0  0.55518  0.09249  0.83459  1.0000
  U   U4        1.0  0.44480  0.59247  0.66538  1.0000
  H   H1        1.0  0.67545  0.13063  0.46619  1.0000
  H   H2        1.0  0.32455  0.63063  0.03379  1.0000
  H   H3        1.0  0.32458  0.86936  0.53382  1.0000
  H   H4        1.0  0.67547  0.36935  0.96619  1.0000
  H   H5        1.0  0.69952  0.75508  0.36582  1.0000
  H   H6        1.0  0.30054  0.25511  0.13421  1.0000
  H   H7        1.0  0.30053  0.24491  0.63419  1.0000
  H   H8        1.0  0.69945  0.74490  0.86579  1.0000
  H   H9        1.0  0.06343  0.57681  0.24462  1.0000
  H   H10       1.0  0.93659  0.07683  0.25538  1.0000
  H   H11       1.0  0.93660  0.42318  0.75537  1.0000
  H   H12       1.0  0.06345  0.92314  0.74462  1.0000
  H   H13       1.0  0.92046  0.71454  0.24252  1.0000
  H   H14       1.0  0.07956  0.21454  0.25745  1.0000
  H   H15       1.0  0.07946  0.28542  0.75744  1.0000
  H   H16       1.0  0.92048  0.78541  0.74252  1.0000
  H   H17       1.0  0.08674  0.77575  0.40755  1.0000
  H   H18       1.0  0.91319  0.27574  0.09242  1.0000
  H   H19       1.0  0.91319  0.22427  0.59241  1.0000
  H   H20       1.0  0.08677  0.72421  0.90757  1.0000
  H   H21       1.0  0.99581  0.61398  0.39990  1.0000
  H   H22       1.0  0.00419  0.11401  0.10013  1.0000
  H   H23       1.0  0.00416  0.38601  0.60010  1.0000
  H   H24       1.0  0.99579  0.88596  0.89986  1.0000
  H   H25       1.0  0.90230  0.75690  0.53914  1.0000
  H   H26       1.0  0.09776  0.25689  0.96090  1.0000
  H   H27       1.0  0.09773  0.24309  0.46087  1.0000
  H   H28       1.0  0.90225  0.74310  0.03910  1.0000
  H   H29       1.0  0.66615  0.75612  0.53055  1.0000
  H   H30       1.0  0.33388  0.25613  0.96946  1.0000
  H   H31       1.0  0.33389  0.24387  0.46946  1.0000
  H   H32       1.0  0.66612  0.74387  0.03054  1.0000
  H   H33       1.0  0.72606  0.96687  0.60938  1.0000
  H   H34       1.0  0.27393  0.46685  0.89061  1.0000
  H   H35       1.0  0.27397  0.03312  0.39063  1.0000
  H   H36       1.0  0.72606  0.53314  0.10937  1.0000
  H   H37       1.0  0.92839  0.98947  0.57233  1.0000
  H   H38       1.0  0.07159  0.48946  0.92767  1.0000
  H   H39       1.0  0.07164  0.01051  0.42768  1.0000
  H   H40       1.0  0.92841  0.51053  0.07232  1.0000
  C   C1        1.0  0.18732  0.76267  0.23603  1.0000
  C   C2        1.0  0.81282  0.26268  0.26411  1.0000
  C   C3        1.0  0.81258  0.23740  0.76398  1.0000
  C   C4        1.0  0.18727  0.73730  0.73596  1.0000
  C   C5        1.0  0.05794  0.67782  0.27263  1.0000
  C   C6        1.0  0.94208  0.17785  0.22739  1.0000
  C   C7        1.0  0.94200  0.32218  0.72736  1.0000
  C   C8        1.0  0.05794  0.82212  0.77261  1.0000
  C   C9        1.0  0.09774  0.67622  0.37918  1.0000
  C   C10       1.0  0.90221  0.17623  0.12083  1.0000
  C   C11       1.0  0.90220  0.32379  0.62080  1.0000
  C   C12       1.0  0.09775  0.82373  0.87917  1.0000
  C   C13       1.0  0.27721  0.61712  0.42721  1.0000
  C   C14       1.0  0.72283  0.11703  0.07281  1.0000
  C   C15       1.0  0.72280  0.38295  0.57279  1.0000
  C   C16       1.0  0.27716  0.88293  0.92717  1.0000
  C   C17       1.0  0.67149  0.95694  0.38915  1.0000
  C   C18       1.0  0.32852  0.45697  0.11086  1.0000
  C   C19       1.0  0.32854  0.04305  0.61086  1.0000
  C   C20       1.0  0.67143  0.54304  0.88913  1.0000
  C   C21       1.0  0.77620  0.81135  0.51262  1.0000
  C   C22       1.0  0.22386  0.31135  0.98740  1.0000
  C   C23       1.0  0.22384  0.18865  0.48739  1.0000
  C   C24       1.0  0.77614  0.68864  0.01259  1.0000
  C   C25       1.0  0.78763  0.95529  0.55034  1.0000
  C   C26       1.0  0.21236  0.45529  0.94966  1.0000
  C   C27       1.0  0.21241  0.04470  0.44967  1.0000
  C   C28       1.0  0.78763  0.54470  0.05033  1.0000
  N   N1        1.0  0.68933  0.02964  0.46796  1.0000
  N   N2        1.0  0.31066  0.52965  0.03204  1.0000
  N   N3        1.0  0.31071  0.97035  0.53205  1.0000
  N   N4        1.0  0.68932  0.47034  0.96795  1.0000
  N   N5        1.0  0.73727  0.83285  0.41110  1.0000
  N   N6        1.0  0.26281  0.33288  0.08892  1.0000
  N   N7        1.0  0.26279  0.16714  0.58891  1.0000
  N   N8        1.0  0.73718  0.66713  0.91108  1.0000
  O   O1        1.0  0.29713  0.05177  0.13870  1.0000
  O   O2        1.0  0.70291  0.55181  0.36134  1.0000
  O   O3        1.0  0.70290  0.94822  0.86136  1.0000
  O   O4        1.0  0.29717  0.44822  0.63866  1.0000
  O   O5        1.0  0.59302  0.76427  0.18851  1.0000
  O   O6        1.0  0.40696  0.26437  0.31142  1.0000
  O   O7        1.0  0.40689  0.23566  0.81145  1.0000
  O   O8        1.0  0.59307  0.73569  0.68854  1.0000
  O   O9        1.0  0.30966  0.83031  0.29217  1.0000
  O   O10       1.0  0.69052  0.33040  0.20801  1.0000
  O   O11       1.0  0.69043  0.16960  0.70788  1.0000
  O   O12       1.0  0.30959  0.66961  0.79207  1.0000
  O   O13       1.0  0.33702  0.52161  0.38729  1.0000
  O   O14       1.0  0.66307  0.02154  0.11277  1.0000
  O   O15       1.0  0.66306  0.47848  0.61274  1.0000
  O   O16       1.0  0.33690  0.97839  0.88718  1.0000
  O   O17       1.0  0.17696  0.76739  0.14792  1.0000
  O   O18       1.0  0.82320  0.26731  0.35221  1.0000
  O   O19       1.0  0.82275  0.23291  0.85208  1.0000
  O   O20       1.0  0.17692  0.73266  0.64785  1.0000
  O   O21       1.0  0.60407  0.00063  0.30668  1.0000
  O   O22       1.0  0.39593  0.50070  0.19332  1.0000
  O   O23       1.0  0.39597  0.99933  0.69332  1.0000
  O   O24       1.0  0.60398  0.49934  0.80667  1.0000
  O   O25       1.0  0.35929  0.66142  0.50803  1.0000
  O   O26       1.0  0.64071  0.16126  0.99196  1.0000
  O   O27       1.0  0.64065  0.33868  0.49196  1.0000
  O   O28       1.0  0.35927  0.83875  0.00802  1.0000
