data_image0
_chemical_formula_structural       Zn4H64C44N16Cl8
_chemical_formula_sum              "Zn4 H64 C44 N16 Cl8"
_cell_length_a       8.72375
_cell_length_b       9.23165
_cell_length_c       17.6506
_cell_angle_alpha    99.1856
_cell_angle_beta     90
_cell_angle_gamma    90.0001

_space_group_name_H-M_alt    "P 1"
_space_group_IT_number       1

loop_
  _space_group_symop_operation_xyz
  'x, y, z'

loop_
  _atom_site_type_symbol
  _atom_site_label
  _atom_site_symmetry_multiplicity
  _atom_site_fract_x
  _atom_site_fract_y
  _atom_site_fract_z
  _atom_site_occupancy
  Zn  Zn1       1.0  0.67969  0.14707  0.85652  1.0000
  Zn  Zn2       1.0  0.17969  0.35293  0.64348  1.0000
  Zn  Zn3       1.0  0.32031  0.85293  0.14348  1.0000
  Zn  Zn4       1.0  0.82031  0.64707  0.35652  1.0000
  H   H1        1.0  0.00205  0.67923  0.02221  1.0000
  H   H2        1.0  0.50205  0.82076  0.47779  1.0000
  H   H3        1.0  0.99795  0.32077  0.97779  1.0000
  H   H4        1.0  0.49795  0.17923  0.52221  1.0000
  H   H5        1.0  0.23490  0.78792  0.95800  1.0000
  H   H6        1.0  0.73490  0.71208  0.54200  1.0000
  H   H7        1.0  0.76510  0.21208  0.04200  1.0000
  H   H8        1.0  0.26510  0.28792  0.45800  1.0000
  H   H9        1.0  0.26927  0.87852  0.88010  1.0000
  H   H10       1.0  0.76927  0.62148  0.61990  1.0000
  H   H11       1.0  0.73073  0.12148  0.11990  1.0000
  H   H12       1.0  0.23073  0.37852  0.38010  1.0000
  H   H13       1.0  0.87662  0.59097  0.94982  1.0000
  H   H14       1.0  0.37662  0.90903  0.55018  1.0000
  H   H15       1.0  0.12338  0.40903  0.05018  1.0000
  H   H16       1.0  0.62338  0.09097  0.44982  1.0000
  H   H17       1.0  0.80033  0.70755  0.03106  1.0000
  H   H18       1.0  0.30033  0.79245  0.46894  1.0000
  H   H19       1.0  0.19967  0.29245  0.96894  1.0000
  H   H20       1.0  0.69967  0.20755  0.53106  1.0000
  H   H21       1.0  0.06985  0.03120  0.77103  1.0000
  H   H22       1.0  0.56985  0.46880  0.72897  1.0000
  H   H23       1.0  0.93015  0.96880  0.22897  1.0000
  H   H24       1.0  0.43015  0.53120  0.27103  1.0000
  H   H25       1.0  0.01451  0.19186  0.83410  1.0000
  H   H26       1.0  0.51451  0.30814  0.66590  1.0000
  H   H27       1.0  0.98548  0.80814  0.16590  1.0000
  H   H28       1.0  0.48548  0.69187  0.33410  1.0000
  H   H29       1.0  0.68823  0.91841  0.96796  1.0000
  H   H30       1.0  0.18823  0.58159  0.53204  1.0000
  H   H31       1.0  0.31177  0.08159  0.03204  1.0000
  H   H32       1.0  0.81177  0.41841  0.46796  1.0000
  H   H33       1.0  0.18716  0.09760  0.85029  1.0000
  H   H34       1.0  0.68716  0.40240  0.64971  1.0000
  H   H35       1.0  0.81284  0.90240  0.14971  1.0000
  H   H36       1.0  0.31284  0.59760  0.35029  1.0000
  H   H37       1.0  0.33374  0.56113  0.98548  1.0000
  H   H38       1.0  0.83374  0.93887  0.51452  1.0000
  H   H39       1.0  0.66626  0.43887  0.01452  1.0000
  H   H40       1.0  0.16626  0.06113  0.48548  1.0000
  H   H41       1.0  0.43220  0.41213  0.92917  1.0000
  H   H42       1.0  0.93221  0.08787  0.57083  1.0000
  H   H43       1.0  0.56780  0.58787  0.07083  1.0000
  H   H44       1.0  0.06780  0.91213  0.42917  1.0000
  H   H45       1.0  0.31122  0.32344  0.79625  1.0000
  H   H46       1.0  0.81122  0.17656  0.70375  1.0000
  H   H47       1.0  0.68878  0.67656  0.20375  1.0000
  H   H48       1.0  0.18878  0.82344  0.29625  1.0000
  H   H49       1.0  0.49225  0.59545  0.92844  1.0000
  H   H50       1.0  0.99225  0.90455  0.57156  1.0000
  H   H51       1.0  0.50775  0.40455  0.07156  1.0000
  H   H52       1.0  0.00775  0.09545  0.42844  1.0000
  H   H53       1.0  0.99721  0.62184  0.67781  1.0000
  H   H54       1.0  0.49721  0.87816  0.82219  1.0000
  H   H55       1.0  0.00279  0.37816  0.32219  1.0000
  H   H56       1.0  0.50279  0.12184  0.17781  1.0000
  H   H57       1.0  0.91463  0.71544  0.76407  1.0000
  H   H58       1.0  0.41463  0.78456  0.73593  1.0000
  H   H59       1.0  0.08537  0.28456  0.23593  1.0000
  H   H60       1.0  0.58537  0.21544  0.26407  1.0000
  H   H61       1.0  0.07573  0.79143  0.72386  1.0000
  H   H62       1.0  0.57573  0.70857  0.77614  1.0000
  H   H63       1.0  0.92427  0.20857  0.27614  1.0000
  H   H64       1.0  0.42427  0.29143  0.22386  1.0000
  C   C1        1.0  0.19043  0.80051  0.90101  1.0000
  C   C2        1.0  0.69043  0.69949  0.59899  1.0000
  C   C3        1.0  0.80957  0.19949  0.09899  1.0000
  C   C4        1.0  0.30957  0.30051  0.40101  1.0000
  C   C5        1.0  0.98252  0.99244  0.88013  1.0000
  C   C6        1.0  0.48252  0.50756  0.61987  1.0000
  C   C7        1.0  0.01748  0.00756  0.11987  1.0000
  C   C8        1.0  0.51747  0.49244  0.38013  1.0000
  C   C9        1.0  0.03417  0.86771  0.90942  1.0000
  C   C10       1.0  0.53418  0.63229  0.59058  1.0000
  C   C11       1.0  0.96582  0.13229  0.09058  1.0000
  C   C12       1.0  0.46582  0.36772  0.40942  1.0000
  C   C13       1.0  0.90980  0.82002  0.94888  1.0000
  C   C14       1.0  0.40980  0.67998  0.55111  1.0000
  C   C15       1.0  0.09020  0.17998  0.05111  1.0000
  C   C16       1.0  0.59020  0.32002  0.44889  1.0000
  C   C17       1.0  0.19854  0.65388  0.85024  1.0000
  C   C18       1.0  0.69854  0.84612  0.64976  1.0000
  C   C19       1.0  0.80146  0.34612  0.14976  1.0000
  C   C20       1.0  0.30146  0.15388  0.35024  1.0000
  C   C21       1.0  0.89614  0.69288  0.99041  1.0000
  C   C22       1.0  0.39614  0.80712  0.50959  1.0000
  C   C23       1.0  0.10386  0.30712  0.00959  1.0000
  C   C24       1.0  0.60386  0.19288  0.49041  1.0000
  C   C25       1.0  0.06729  0.08328  0.83158  1.0000
  C   C26       1.0  0.56729  0.41672  0.66842  1.0000
  C   C27       1.0  0.93271  0.91671  0.16842  1.0000
  C   C28       1.0  0.43271  0.58329  0.33158  1.0000
  C   C29       1.0  0.28716  0.53574  0.86532  1.0000
  C   C30       1.0  0.78716  0.96426  0.63468  1.0000
  C   C31       1.0  0.71284  0.46426  0.13468  1.0000
  C   C32       1.0  0.21284  0.03574  0.36532  1.0000
  C   C33       1.0  0.12715  0.60618  0.77879  1.0000
  C   C34       1.0  0.62715  0.89382  0.72121  1.0000
  C   C35       1.0  0.87285  0.39382  0.22121  1.0000
  C   C36       1.0  0.37285  0.10617  0.27879  1.0000
  C   C37       1.0  0.39143  0.52472  0.93038  1.0000
  C   C38       1.0  0.89144  0.97528  0.56962  1.0000
  C   C39       1.0  0.60856  0.47528  0.06962  1.0000
  C   C40       1.0  0.10856  0.02472  0.43038  1.0000
  C   C41       1.0  0.02320  0.68774  0.73363  1.0000
  C   C42       1.0  0.52320  0.81226  0.76637  1.0000
  C   C43       1.0  0.97680  0.31226  0.26637  1.0000
  C   C44       1.0  0.47680  0.18774  0.23363  1.0000
  N   N1        1.0  0.83517  0.02026  0.90104  1.0000
  N   N2        1.0  0.33517  0.47974  0.59896  1.0000
  N   N3        1.0  0.16483  0.97974  0.09896  1.0000
  N   N4        1.0  0.66483  0.52026  0.40104  1.0000
  N   N5        1.0  0.79299  0.91360  0.94170  1.0000
  N   N6        1.0  0.29299  0.58640  0.55830  1.0000
  N   N7        1.0  0.20701  0.08640  0.05830  1.0000
  N   N8        1.0  0.70701  0.41360  0.44170  1.0000
  N   N9        1.0  0.16884  0.46637  0.75232  1.0000
  N   N10       1.0  0.66884  0.03363  0.74768  1.0000
  N   N11       1.0  0.83116  0.53363  0.24768  1.0000
  N   N12       1.0  0.33116  0.96637  0.25232  1.0000
  N   N13       1.0  0.26557  0.42621  0.80548  1.0000
  N   N14       1.0  0.76557  0.07380  0.69452  1.0000
  N   N15       1.0  0.73443  0.57380  0.19452  1.0000
  N   N16       1.0  0.23443  0.92620  0.30548  1.0000
  Cl  Cl1       1.0  0.46474  0.13018  0.92554  1.0000
  Cl  Cl2       1.0  0.96474  0.36982  0.57446  1.0000
  Cl  Cl3       1.0  0.53526  0.86982  0.07446  1.0000
  Cl  Cl4       1.0  0.03526  0.63018  0.42554  1.0000
  Cl  Cl5       1.0  0.76708  0.36956  0.84364  1.0000
  Cl  Cl6       1.0  0.26708  0.13045  0.65635  1.0000
  Cl  Cl7       1.0  0.23292  0.63045  0.15636  1.0000
  Cl  Cl8       1.0  0.73292  0.86955  0.34364  1.0000
