data_image0
_chemical_formula_structural       Zn4H64C44I8N16
_chemical_formula_sum              "Zn4 H64 C44 I8 N16"
_cell_length_a       9.80513
_cell_length_b       12.8038
_cell_length_c       13.3696
_cell_angle_alpha    90.0004
_cell_angle_beta     90
_cell_angle_gamma    90

_space_group_name_H-M_alt    "P 1"
_space_group_IT_number       1

loop_
  _space_group_symop_operation_xyz
  'x, y, z'

loop_
  _atom_site_type_symbol
  _atom_site_label
  _atom_site_symmetry_multiplicity
  _atom_site_fract_x
  _atom_site_fract_y
  _atom_site_fract_z
  _atom_site_occupancy
  Zn  Zn1       1.0  0.07176  0.17865  0.65637  1.0000
  Zn  Zn2       1.0  0.42824  0.82136  0.15637  1.0000
  Zn  Zn3       1.0  0.92824  0.67864  0.84363  1.0000
  Zn  Zn4       1.0  0.57177  0.32135  0.34363  1.0000
  H   H1        1.0  0.54596  0.18761  0.85934  1.0000
  H   H2        1.0  0.95404  0.81239  0.35934  1.0000
  H   H3        1.0  0.45404  0.68761  0.64065  1.0000
  H   H4        1.0  0.04596  0.31239  0.14066  1.0000
  H   H5        1.0  0.60568  0.21281  0.98109  1.0000
  H   H6        1.0  0.89432  0.78719  0.48109  1.0000
  H   H7        1.0  0.39432  0.71281  0.51891  1.0000
  H   H8        1.0  0.10568  0.28719  0.01892  1.0000
  H   H9        1.0  0.78142  0.20749  0.62108  1.0000
  H   H10       1.0  0.71857  0.79251  0.12109  1.0000
  H   H11       1.0  0.21857  0.70749  0.87891  1.0000
  H   H12       1.0  0.28143  0.29251  0.37892  1.0000
  H   H13       1.0  0.67291  0.28304  0.69804  1.0000
  H   H14       1.0  0.82709  0.71696  0.19804  1.0000
  H   H15       1.0  0.32709  0.78304  0.80196  1.0000
  H   H16       1.0  0.17290  0.21696  0.30196  1.0000
  H   H17       1.0  0.63534  0.14949  0.67643  1.0000
  H   H18       1.0  0.86466  0.85051  0.17644  1.0000
  H   H19       1.0  0.36466  0.64949  0.82356  1.0000
  H   H20       1.0  0.13534  0.35051  0.32357  1.0000
  H   H21       1.0  0.00208  0.09761  0.05849  1.0000
  H   H22       1.0  0.49792  0.90239  0.55850  1.0000
  H   H23       1.0  0.99792  0.59761  0.44150  1.0000
  H   H24       1.0  0.50208  0.40239  0.94151  1.0000
  H   H25       1.0  0.83314  0.04801  0.06142  1.0000
  H   H26       1.0  0.66686  0.95199  0.56142  1.0000
  H   H27       1.0  0.16686  0.54801  0.43858  1.0000
  H   H28       1.0  0.33314  0.45199  0.93858  1.0000
  H   H29       1.0  0.86297  0.18251  0.08622  1.0000
  H   H30       1.0  0.63703  0.81750  0.58622  1.0000
  H   H31       1.0  0.13703  0.68250  0.41378  1.0000
  H   H32       1.0  0.36296  0.31749  0.91378  1.0000
  H   H33       1.0  0.08218  0.12311  0.87458  1.0000
  H   H34       1.0  0.41782  0.87689  0.37458  1.0000
  H   H35       1.0  0.91782  0.62311  0.62542  1.0000
  H   H36       1.0  0.58218  0.37689  0.12542  1.0000
  H   H37       1.0  0.52065  0.80440  0.94582  1.0000
  H   H38       1.0  0.97935  0.19560  0.44583  1.0000
  H   H39       1.0  0.47935  0.30440  0.55417  1.0000
  H   H40       1.0  0.02065  0.69560  0.05418  1.0000
  H   H41       1.0  0.61030  0.85275  0.77495  1.0000
  H   H42       1.0  0.88970  0.14725  0.27495  1.0000
  H   H43       1.0  0.38970  0.35275  0.72505  1.0000
  H   H44       1.0  0.11030  0.64725  0.22505  1.0000
  H   H45       1.0  0.71961  0.96297  0.77729  1.0000
  H   H46       1.0  0.78039  0.03703  0.27729  1.0000
  H   H47       1.0  0.28039  0.46298  0.72271  1.0000
  H   H48       1.0  0.21961  0.53702  0.22271  1.0000
  H   H49       1.0  0.54686  0.97794  0.73840  1.0000
  H   H50       1.0  0.95314  0.02206  0.23841  1.0000
  H   H51       1.0  0.45314  0.47794  0.76159  1.0000
  H   H52       1.0  0.04686  0.52206  0.26160  1.0000
  H   H53       1.0  0.47261  0.04493  0.20193  1.0000
  H   H54       1.0  0.02739  0.95507  0.70193  1.0000
  H   H55       1.0  0.52739  0.54493  0.29807  1.0000
  H   H56       1.0  0.97261  0.45507  0.79807  1.0000
  H   H57       1.0  0.41993  0.14845  0.12295  1.0000
  H   H58       1.0  0.08007  0.85155  0.62295  1.0000
  H   H59       1.0  0.58007  0.64845  0.37705  1.0000
  H   H60       1.0  0.91993  0.35155  0.87705  1.0000
  H   H61       1.0  0.59415  0.13510  0.15542  1.0000
  H   H62       1.0  0.90585  0.86491  0.65542  1.0000
  H   H63       1.0  0.40585  0.63509  0.34457  1.0000
  H   H64       1.0  0.09415  0.36490  0.84458  1.0000
  C   C1        1.0  0.87761  0.13869  0.93215  1.0000
  C   C2        1.0  0.62239  0.86131  0.43215  1.0000
  C   C3        1.0  0.12239  0.63869  0.56785  1.0000
  C   C4        1.0  0.37761  0.36131  0.06785  1.0000
  C   C5        1.0  0.80160  0.17693  0.77812  1.0000
  C   C6        1.0  0.69840  0.82308  0.27812  1.0000
  C   C7        1.0  0.19840  0.67693  0.72188  1.0000
  C   C8        1.0  0.30160  0.32307  0.22188  1.0000
  C   C9        1.0  0.75912  0.16087  0.87789  1.0000
  C   C10       1.0  0.74088  0.83913  0.37790  1.0000
  C   C11       1.0  0.24088  0.66087  0.62210  1.0000
  C   C12       1.0  0.25912  0.33913  0.12211  1.0000
  C   C13       1.0  0.61599  0.15873  0.91752  1.0000
  C   C14       1.0  0.88401  0.84128  0.41752  1.0000
  C   C15       1.0  0.38401  0.65872  0.58248  1.0000
  C   C16       1.0  0.11599  0.34128  0.08248  1.0000
  C   C17       1.0  0.71879  0.20524  0.68886  1.0000
  C   C18       1.0  0.78121  0.79476  0.18886  1.0000
  C   C19       1.0  0.28121  0.70524  0.81114  1.0000
  C   C20       1.0  0.21879  0.29476  0.31114  1.0000
  C   C21       1.0  0.89564  0.11571  0.04022  1.0000
  C   C22       1.0  0.60436  0.88430  0.54022  1.0000
  C   C23       1.0  0.10436  0.61570  0.45978  1.0000
  C   C24       1.0  0.39564  0.38429  0.95978  1.0000
  C   C25       1.0  0.57226  0.05172  0.95132  1.0000
  C   C26       1.0  0.92774  0.94828  0.45132  1.0000
  C   C27       1.0  0.42774  0.55172  0.54868  1.0000
  C   C28       1.0  0.07226  0.44828  0.04868  1.0000
  C   C29       1.0  0.52345  0.02379  0.04700  1.0000
  C   C30       1.0  0.97655  0.97621  0.54701  1.0000
  C   C31       1.0  0.47655  0.52379  0.45299  1.0000
  C   C32       1.0  0.02345  0.47621  0.95300  1.0000
  C   C33       1.0  0.57412  0.95894  0.89562  1.0000
  C   C34       1.0  0.92588  0.04106  0.39562  1.0000
  C   C35       1.0  0.42588  0.45894  0.60438  1.0000
  C   C36       1.0  0.07412  0.54106  0.10438  1.0000
  C   C37       1.0  0.61460  0.93680  0.79078  1.0000
  C   C38       1.0  0.88540  0.06320  0.29078  1.0000
  C   C39       1.0  0.38540  0.43680  0.70921  1.0000
  C   C40       1.0  0.11460  0.56320  0.20922  1.0000
  C   C41       1.0  0.50139  0.09114  0.13626  1.0000
  C   C42       1.0  0.99861  0.90887  0.63626  1.0000
  C   C43       1.0  0.49861  0.59113  0.36374  1.0000
  C   C44       1.0  0.00139  0.40886  0.86374  1.0000
  I   I1        1.0  0.04893  0.35714  0.56969  1.0000
  I   I2        1.0  0.45107  0.64287  0.06969  1.0000
  I   I3        1.0  0.95107  0.85713  0.93031  1.0000
  I   I4        1.0  0.54893  0.14286  0.43031  1.0000
  I   I5        1.0  0.29736  0.12262  0.74132  1.0000
  I   I6        1.0  0.20264  0.87738  0.24132  1.0000
  I   I7        1.0  0.70264  0.62262  0.75868  1.0000
  I   I8        1.0  0.79736  0.37738  0.25868  1.0000
  N   N1        1.0  0.93788  0.16400  0.77208  1.0000
  N   N2        1.0  0.56211  0.83600  0.27209  1.0000
  N   N3        1.0  0.06212  0.66400  0.72792  1.0000
  N   N4        1.0  0.43788  0.33600  0.22792  1.0000
  N   N5        1.0  0.98151  0.14182  0.86570  1.0000
  N   N6        1.0  0.51848  0.85818  0.36571  1.0000
  N   N7        1.0  0.01848  0.64182  0.63430  1.0000
  N   N8        1.0  0.48151  0.35818  0.13430  1.0000
  N   N9        1.0  0.49659  0.92046  0.04921  1.0000
  N   N10       1.0  0.00341  0.07954  0.54921  1.0000
  N   N11       1.0  0.50341  0.42046  0.45079  1.0000
  N   N12       1.0  0.99659  0.57954  0.95079  1.0000
  N   N13       1.0  0.52717  0.88339  0.95714  1.0000
  N   N14       1.0  0.97283  0.11661  0.45714  1.0000
  N   N15       1.0  0.47283  0.38339  0.54286  1.0000
  N   N16       1.0  0.02717  0.61661  0.04286  1.0000
