data_image0
_chemical_formula_structural       Ag2P4H40C52N2O6
_chemical_formula_sum              "Ag2 P4 H40 C52 N2 O6"
_cell_length_a       10.5013
_cell_length_b       11.6984
_cell_length_c       12.1703
_cell_angle_alpha    110.707
_cell_angle_beta     98.5032
_cell_angle_gamma    97.3107

_space_group_name_H-M_alt    "P 1"
_space_group_IT_number       1

loop_
  _space_group_symop_operation_xyz
  'x, y, z'

loop_
  _atom_site_type_symbol
  _atom_site_label
  _atom_site_symmetry_multiplicity
  _atom_site_fract_x
  _atom_site_fract_y
  _atom_site_fract_z
  _atom_site_occupancy
  Ag  Ag1       1.0  0.82833  0.51760  0.54714  1.0000
  Ag  Ag2       1.0  0.17167  0.48240  0.45286  1.0000
  P   P1        1.0  0.65853  0.33600  0.50051  1.0000
  P   P2        1.0  0.34147  0.66400  0.49949  1.0000
  P   P3        1.0  0.23049  0.30835  0.30425  1.0000
  P   P4        1.0  0.76951  0.69165  0.69575  1.0000
  H   H1        1.0  0.29156  0.15017  0.43830  1.0000
  H   H2        1.0  0.70844  0.84983  0.56170  1.0000
  H   H3        1.0  0.21530  0.92711  0.39579  1.0000
  H   H4        1.0  0.78470  0.07288  0.60421  1.0000
  H   H5        1.0  0.04633  0.79529  0.21211  1.0000
  H   H6        1.0  0.95368  0.20470  0.78789  1.0000
  H   H7        1.0  0.95399  0.88914  0.07161  1.0000
  H   H8        1.0  0.04601  0.11086  0.92839  1.0000
  H   H9        1.0  0.03468  0.11147  0.11021  1.0000
  H   H10       1.0  0.96532  0.88852  0.88979  1.0000
  H   H11       1.0  0.37377  0.20082  0.11466  1.0000
  H   H12       1.0  0.62623  0.79918  0.88534  1.0000
  H   H13       1.0  0.36204  0.20534  0.91056  1.0000
  H   H14       1.0  0.63796  0.79466  0.08944  1.0000
  H   H15       1.0  0.20569  0.31984  0.83733  1.0000
  H   H16       1.0  0.79430  0.68016  0.16267  1.0000
  H   H17       1.0  0.06372  0.42784  0.96623  1.0000
  H   H18       1.0  0.93627  0.57216  0.03377  1.0000
  H   H19       1.0  0.07653  0.42735  0.17272  1.0000
  H   H20       1.0  0.92347  0.57265  0.82728  1.0000
  H   H21       1.0  0.43338  0.41147  0.61715  1.0000
  H   H22       1.0  0.56662  0.58853  0.38285  1.0000
  H   H23       1.0  0.39553  0.43955  0.81923  1.0000
  H   H24       1.0  0.60447  0.56045  0.18077  1.0000
  H   H25       1.0  0.55303  0.38827  0.96119  1.0000
  H   H26       1.0  0.44697  0.61173  0.03881  1.0000
  H   H27       1.0  0.74979  0.30640  0.89691  1.0000
  H   H28       1.0  0.25021  0.69360  0.10309  1.0000
  H   H29       1.0  0.79240  0.28546  0.69684  1.0000
  H   H30       1.0  0.20760  0.71454  0.30316  1.0000
  H   H31       1.0  0.49527  0.08215  0.41058  1.0000
  H   H32       1.0  0.50473  0.91785  0.58943  1.0000
  H   H33       1.0  0.55285  0.87251  0.33596  1.0000
  H   H34       1.0  0.44715  0.12749  0.66404  1.0000
  H   H35       1.0  0.78452  0.85254  0.32473  1.0000
  H   H36       1.0  0.21548  0.14746  0.67527  1.0000
  H   H37       1.0  0.95602  0.04196  0.37876  1.0000
  H   H38       1.0  0.04398  0.95804  0.62124  1.0000
  H   H39       1.0  0.89767  0.25192  0.44849  1.0000
  H   H40       1.0  0.10233  0.74808  0.55151  1.0000
  C   C1        1.0  0.50682  0.32685  0.41478  1.0000
  C   C2        1.0  0.49317  0.67314  0.58521  1.0000
  C   C3        1.0  0.39704  0.32251  0.36062  1.0000
  C   C4        1.0  0.60297  0.67749  0.63938  1.0000
  C   C5        1.0  0.17095  0.14438  0.27508  1.0000
  C   C6        1.0  0.82905  0.85562  0.72492  1.0000
  C   C7        1.0  0.21949  0.09257  0.35661  1.0000
  C   C8        1.0  0.78051  0.90743  0.64339  1.0000
  C   C9        1.0  0.17593  0.96685  0.33265  1.0000
  C   C10       1.0  0.82407  0.03315  0.66735  1.0000
  C   C11       1.0  0.08181  0.89296  0.22935  1.0000
  C   C12       1.0  0.91819  0.10704  0.77065  1.0000
  C   C13       1.0  0.03016  0.94567  0.15040  1.0000
  C   C14       1.0  0.96984  0.05432  0.84961  1.0000
  C   C15       1.0  0.07451  0.07102  0.17271  1.0000
  C   C16       1.0  0.92548  0.92898  0.82729  1.0000
  C   C17       1.0  0.22520  0.31290  0.15583  1.0000
  C   C18       1.0  0.77480  0.68710  0.84417  1.0000
  C   C19       1.0  0.30602  0.25077  0.08208  1.0000
  C   C20       1.0  0.69398  0.74923  0.91792  1.0000
  C   C21       1.0  0.29959  0.25367  0.96802  1.0000
  C   C22       1.0  0.70041  0.74633  0.03198  1.0000
  C   C23       1.0  0.21231  0.31776  0.92683  1.0000
  C   C24       1.0  0.78769  0.68224  0.07317  1.0000
  C   C25       1.0  0.13145  0.37856  0.99970  1.0000
  C   C26       1.0  0.86855  0.62144  0.00030  1.0000
  C   C27       1.0  0.13764  0.37698  0.11468  1.0000
  C   C28       1.0  0.86236  0.62302  0.88532  1.0000
  C   C29       1.0  0.61487  0.34495  0.64305  1.0000
  C   C30       1.0  0.38513  0.65505  0.35695  1.0000
  C   C31       1.0  0.50370  0.38943  0.67827  1.0000
  C   C32       1.0  0.49630  0.61057  0.32173  1.0000
  C   C33       1.0  0.48253  0.40524  0.79296  1.0000
  C   C34       1.0  0.51747  0.59476  0.20704  1.0000
  C   C35       1.0  0.57036  0.37558  0.87184  1.0000
  C   C36       1.0  0.42964  0.62443  0.12816  1.0000
  C   C37       1.0  0.68039  0.32979  0.83597  1.0000
  C   C38       1.0  0.31961  0.67022  0.16402  1.0000
  C   C39       1.0  0.70361  0.31586  0.72258  1.0000
  C   C40       1.0  0.29639  0.68414  0.27742  1.0000
  C   C41       1.0  0.69352  0.18020  0.43593  1.0000
  C   C42       1.0  0.30648  0.81980  0.56407  1.0000
  C   C43       1.0  0.59608  0.07320  0.40325  1.0000
  C   C44       1.0  0.40392  0.92680  0.59675  1.0000
  C   C45       1.0  0.62861  0.95557  0.36151  1.0000
  C   C46       1.0  0.37139  0.04443  0.63849  1.0000
  C   C47       1.0  0.75849  0.94438  0.35360  1.0000
  C   C48       1.0  0.24151  0.05562  0.64639  1.0000
  C   C49       1.0  0.85503  0.05061  0.38475  1.0000
  C   C50       1.0  0.14497  0.94939  0.61525  1.0000
  C   C51       1.0  0.82267  0.16860  0.42490  1.0000
  C   C52       1.0  0.17733  0.83140  0.57509  1.0000
  N   N1        1.0  0.91735  0.59813  0.34525  1.0000
  N   N2        1.0  0.08265  0.40187  0.65475  1.0000
  O   O1        1.0  0.95327  0.53335  0.40847  1.0000
  O   O2        1.0  0.04673  0.46665  0.59153  1.0000
  O   O3        1.0  0.98411  0.60953  0.27118  1.0000
  O   O4        1.0  0.01589  0.39047  0.72882  1.0000
  O   O5        1.0  0.81795  0.64590  0.36156  1.0000
  O   O6        1.0  0.18206  0.35410  0.63844  1.0000
