data_image0
_chemical_formula_structural       Zn2H32C22S2N8O8
_chemical_formula_sum              "Zn2 H32 C22 S2 N8 O8"
_cell_length_a       8.50847
_cell_length_b       9.97626
_cell_length_c       9.85927
_cell_angle_alpha    79.3664
_cell_angle_beta     68.6485
_cell_angle_gamma    61.5769

_space_group_name_H-M_alt    "P 1"
_space_group_IT_number       1

loop_
  _space_group_symop_operation_xyz
  'x, y, z'

loop_
  _atom_site_type_symbol
  _atom_site_label
  _atom_site_symmetry_multiplicity
  _atom_site_fract_x
  _atom_site_fract_y
  _atom_site_fract_z
  _atom_site_occupancy
  Zn  Zn1       1.0  0.99879  0.82006  0.12889  1.0000
  Zn  Zn2       1.0  0.00121  0.17994  0.87111  1.0000
  H   H1        1.0  0.40528  0.16670  0.25016  1.0000
  H   H2        1.0  0.59472  0.83330  0.74984  1.0000
  H   H3        1.0  0.60388  0.16975  0.26304  1.0000
  H   H4        1.0  0.39612  0.83024  0.73696  1.0000
  H   H5        1.0  0.09857  0.33336  0.20597  1.0000
  H   H6        1.0  0.90143  0.66664  0.79402  1.0000
  H   H7        1.0  0.39677  0.70386  0.10892  1.0000
  H   H8        1.0  0.60324  0.29614  0.89109  1.0000
  H   H9        1.0  0.97381  0.52597  0.15652  1.0000
  H   H10       1.0  0.02620  0.47404  0.84347  1.0000
  H   H11       1.0  0.76468  0.32142  0.20201  1.0000
  H   H12       1.0  0.23531  0.67857  0.79800  1.0000
  H   H13       1.0  0.73803  0.50011  0.11431  1.0000
  H   H14       1.0  0.26198  0.49988  0.88570  1.0000
  H   H15       1.0  0.65934  0.48624  0.30711  1.0000
  H   H16       1.0  0.34067  0.51375  0.69289  1.0000
  H   H17       1.0  0.95240  0.47493  0.34227  1.0000
  H   H18       1.0  0.04760  0.52507  0.65773  1.0000
  H   H19       1.0  0.40033  0.13986  0.78963  1.0000
  H   H20       1.0  0.59968  0.86014  0.21037  1.0000
  H   H21       1.0  0.95177  0.29402  0.51585  1.0000
  H   H22       1.0  0.04821  0.70599  0.48415  1.0000
  H   H23       1.0  0.74774  0.16728  0.43609  1.0000
  H   H24       1.0  0.25226  0.83271  0.56391  1.0000
  H   H25       1.0  0.02016  0.10130  0.57664  1.0000
  H   H26       1.0  0.97981  0.89872  0.42336  1.0000
  H   H27       1.0  0.12432  0.14405  0.39323  1.0000
  H   H28       1.0  0.87566  0.85597  0.60678  1.0000
  H   H29       1.0  0.60811  0.33480  0.54138  1.0000
  H   H30       1.0  0.39189  0.66520  0.45862  1.0000
  H   H31       1.0  0.70072  0.15461  0.62850  1.0000
  H   H32       1.0  0.29928  0.84538  0.37150  1.0000
  C   C1        1.0  0.21319  0.48181  0.21260  1.0000
  C   C2        1.0  0.78681  0.51819  0.78740  1.0000
  C   C3        1.0  0.48311  0.47665  0.20314  1.0000
  C   C4        1.0  0.51690  0.52335  0.79686  1.0000
  C   C5        1.0  0.38385  0.38882  0.24383  1.0000
  C   C6        1.0  0.61614  0.61119  0.75618  1.0000
  C   C7        1.0  0.44877  0.22723  0.30095  1.0000
  C   C8        1.0  0.55122  0.77277  0.69905  1.0000
  C   C9        1.0  0.37971  0.20689  0.46393  1.0000
  C   C10       1.0  0.62030  0.79311  0.53607  1.0000
  C   C11       1.0  0.67090  0.44417  0.20664  1.0000
  C   C12       1.0  0.32911  0.55582  0.79337  1.0000
  C   C13       1.0  0.05148  0.45184  0.23054  1.0000
  C   C14       1.0  0.94853  0.54816  0.76946  1.0000
  C   C15       1.0  0.22163  0.18150  0.54865  1.0000
  C   C16       1.0  0.77836  0.81851  0.45136  1.0000
  C   C17       1.0  0.46922  0.19736  0.56236  1.0000
  C   C18       1.0  0.53078  0.80264  0.43763  1.0000
  C   C19       1.0  0.07208  0.18007  0.50596  1.0000
  C   C20       1.0  0.92790  0.81995  0.49404  1.0000
  C   C21       1.0  0.64096  0.21395  0.54085  1.0000
  C   C22       1.0  0.35903  0.78605  0.45914  1.0000
  S   S1        1.0  0.83937  0.96238  0.88487  1.0000
  S   S2        1.0  0.16064  0.03761  0.11513  1.0000
  N   N1        1.0  0.20945  0.61668  0.15687  1.0000
  N   N2        1.0  0.79056  0.38332  0.84313  1.0000
  N   N3        1.0  0.37265  0.61174  0.15291  1.0000
  N   N4        1.0  0.62735  0.38826  0.84710  1.0000
  N   N5        1.0  0.21701  0.15663  0.68919  1.0000
  N   N6        1.0  0.78298  0.84337  0.31082  1.0000
  N   N7        1.0  0.36667  0.16848  0.69538  1.0000
  N   N8        1.0  0.63334  0.83151  0.30461  1.0000
  O   O1        1.0  0.86047  0.83347  0.99778  1.0000
  O   O2        1.0  0.13953  0.16652  0.00223  1.0000
  O   O3        1.0  0.66922  0.00658  0.84809  1.0000
  O   O4        1.0  0.33079  0.99340  0.15191  1.0000
  O   O5        1.0  0.81583  0.09599  0.95950  1.0000
  O   O6        1.0  0.18418  0.90400  0.04049  1.0000
  O   O7        1.0  0.01279  0.91676  0.75922  1.0000
  O   O8        1.0  0.98722  0.08323  0.24078  1.0000
