data_image0
_chemical_formula_structural       Cu4B4H40C36N24
_chemical_formula_sum              "Cu4 B4 H40 C36 N24"
_cell_length_a       8.98687
_cell_length_b       9.21564
_cell_length_c       15.6968
_cell_angle_alpha    103.545
_cell_angle_beta     90.9318
_cell_angle_gamma    116.048

_space_group_name_H-M_alt    "P 1"
_space_group_IT_number       1

loop_
  _space_group_symop_operation_xyz
  'x, y, z'

loop_
  _atom_site_type_symbol
  _atom_site_label
  _atom_site_symmetry_multiplicity
  _atom_site_fract_x
  _atom_site_fract_y
  _atom_site_fract_z
  _atom_site_occupancy
  Cu  Cu1       1.0  0.30222  0.94310  0.98179  1.0000
  Cu  Cu2       1.0  0.69778  0.05690  0.01821  1.0000
  Cu  Cu3       1.0  0.87038  0.75881  0.42719  1.0000
  Cu  Cu4       1.0  0.12963  0.24119  0.57280  1.0000
  B   B1        1.0  0.41972  0.87454  0.63754  1.0000
  B   B2        1.0  0.58028  0.12546  0.36246  1.0000
  B   B3        1.0  0.31787  0.53336  0.18634  1.0000
  B   B4        1.0  0.68213  0.46664  0.81366  1.0000
  H   H1        1.0  0.48819  0.61176  0.35894  1.0000
  H   H2        1.0  0.51181  0.38824  0.64106  1.0000
  H   H3        1.0  0.42652  0.05796  0.81136  1.0000
  H   H4        1.0  0.57348  0.94204  0.18863  1.0000
  H   H5        1.0  0.16055  0.94421  0.58317  1.0000
  H   H6        1.0  0.83944  0.05579  0.41683  1.0000
  H   H7        1.0  0.05041  0.51898  0.37110  1.0000
  H   H8        1.0  0.94959  0.48102  0.62890  1.0000
  H   H9        1.0  0.59647  0.88715  0.48807  1.0000
  H   H10       1.0  0.40353  0.11284  0.51193  1.0000
  H   H11       1.0  0.06467  0.07875  0.92789  1.0000
  H   H12       1.0  0.93533  0.92124  0.07211  1.0000
  H   H13       1.0  0.35649  0.64847  0.02532  1.0000
  H   H14       1.0  0.64351  0.35153  0.97468  1.0000
  H   H15       1.0  0.05686  0.35897  0.03608  1.0000
  H   H16       1.0  0.94314  0.64102  0.96393  1.0000
  H   H17       1.0  0.47005  0.30972  0.13267  1.0000
  H   H18       1.0  0.52995  0.69028  0.86733  1.0000
  H   H19       1.0  0.24173  0.54643  0.67505  1.0000
  H   H20       1.0  0.75827  0.45356  0.32495  1.0000
  H   H21       1.0  0.62889  0.67080  0.10908  1.0000
  H   H22       1.0  0.37111  0.32920  0.89092  1.0000
  H   H23       1.0  0.17044  0.96284  0.17131  1.0000
  H   H24       1.0  0.82956  0.03717  0.82869  1.0000
  H   H25       1.0  0.31894  0.57444  0.48613  1.0000
  H   H26       1.0  0.68106  0.42556  0.51387  1.0000
  H   H27       1.0  0.61786  0.75588  0.72623  1.0000
  H   H28       1.0  0.38214  0.24413  0.27377  1.0000
  H   H29       1.0  0.18279  0.75205  0.26977  1.0000
  H   H30       1.0  0.81721  0.24796  0.73023  1.0000
  H   H31       1.0  0.86328  0.72151  0.63069  1.0000
  H   H32       1.0  0.13672  0.27849  0.36931  1.0000
  H   H33       1.0  0.17482  0.57316  0.84811  1.0000
  H   H34       1.0  0.82517  0.42684  0.15189  1.0000
  H   H35       1.0  0.91312  0.80413  0.23025  1.0000
  H   H36       1.0  0.08688  0.19587  0.76975  1.0000
  H   H37       1.0  0.46520  0.02441  0.65377  1.0000
  H   H38       1.0  0.53480  0.97559  0.34623  1.0000
  H   H39       1.0  0.23698  0.49254  0.24534  1.0000
  H   H40       1.0  0.76302  0.50746  0.75466  1.0000
  C   C1        1.0  0.56739  0.64739  0.30861  1.0000
  C   C2        1.0  0.43261  0.35261  0.69139  1.0000
  C   C3        1.0  0.36790  0.92305  0.79944  1.0000
  C   C4        1.0  0.63211  0.07695  0.20056  1.0000
  C   C5        1.0  0.16503  0.83520  0.54064  1.0000
  C   C6        1.0  0.83497  0.16479  0.45936  1.0000
  C   C7        1.0  0.11342  0.61649  0.43205  1.0000
  C   C8        1.0  0.88658  0.38351  0.56795  1.0000
  C   C9        1.0  0.63713  0.84603  0.53917  1.0000
  C   C10       1.0  0.36287  0.15396  0.46083  1.0000
  C   C11       1.0  0.14852  0.16884  0.98647  1.0000
  C   C12       1.0  0.85148  0.83115  0.01354  1.0000
  C   C13       1.0  0.30604  0.70510  0.07780  1.0000
  C   C14       1.0  0.69397  0.29490  0.92220  1.0000
  C   C15       1.0  0.14424  0.30818  0.03967  1.0000
  C   C16       1.0  0.85575  0.69181  0.96034  1.0000
  C   C17       1.0  0.35843  0.28349  0.09135  1.0000
  C   C18       1.0  0.64158  0.71651  0.90865  1.0000
  C   C19       1.0  0.27028  0.65647  0.72927  1.0000
  C   C20       1.0  0.72972  0.34353  0.27072  1.0000
  C   C21       1.0  0.64202  0.67814  0.17890  1.0000
  C   C22       1.0  0.35797  0.32186  0.82110  1.0000
  C   C23       1.0  0.20901  0.86461  0.15494  1.0000
  C   C24       1.0  0.79099  0.13539  0.84506  1.0000
  C   C25       1.0  0.24753  0.64388  0.48834  1.0000
  C   C26       1.0  0.75247  0.35612  0.51166  1.0000
  C   C27       1.0  0.65052  0.77793  0.66278  1.0000
  C   C28       1.0  0.34948  0.22207  0.33721  1.0000
  C   C29       1.0  0.21457  0.76133  0.20426  1.0000
  C   C30       1.0  0.78543  0.23868  0.79574  1.0000
  C   C31       1.0  0.77169  0.76135  0.61475  1.0000
  C   C32       1.0  0.22831  0.23866  0.38525  1.0000
  C   C33       1.0  0.23843  0.67103  0.81549  1.0000
  C   C34       1.0  0.76156  0.32897  0.18451  1.0000
  C   C35       1.0  0.78279  0.74572  0.23963  1.0000
  C   C36       1.0  0.21721  0.25428  0.76036  1.0000
  N   N1        1.0  0.50564  0.61536  0.22329  1.0000
  N   N2        1.0  0.49436  0.38464  0.77671  1.0000
  N   N3        1.0  0.06190  0.73734  0.46559  1.0000
  N   N4        1.0  0.93810  0.26265  0.53441  1.0000
  N   N5        1.0  0.35284  0.81764  0.71983  1.0000
  N   N6        1.0  0.64716  0.18236  0.28017  1.0000
  N   N7        1.0  0.26681  0.82843  0.07546  1.0000
  N   N8        1.0  0.73319  0.17158  0.92454  1.0000
  N   N9        1.0  0.56510  0.83155  0.61400  1.0000
  N   N10       1.0  0.43490  0.16845  0.38600  1.0000
  N   N11       1.0  0.27891  0.38152  0.10583  1.0000
  N   N12       1.0  0.72108  0.61848  0.89417  1.0000
  N   N13       1.0  0.28053  0.78425  0.55669  1.0000
  N   N14       1.0  0.71947  0.21575  0.44331  1.0000
  N   N15       1.0  0.73505  0.72569  0.32140  1.0000
  N   N16       1.0  0.26495  0.27431  0.67860  1.0000
  N   N17       1.0  0.76198  0.80412  0.53667  1.0000
  N   N18       1.0  0.23802  0.19588  0.46333  1.0000
  N   N19       1.0  0.27610  0.66000  0.15473  1.0000
  N   N20       1.0  0.72390  0.34000  0.84527  1.0000
  N   N21       1.0  0.30110  0.83983  0.85939  1.0000
  N   N22       1.0  0.69890  0.16017  0.14061  1.0000
  N   N23       1.0  0.28293  0.15319  0.01962  1.0000
  N   N24       1.0  0.71707  0.84681  0.98038  1.0000
