data_image0
_chemical_formula_structural       LiBH20C16N8
_chemical_formula_sum              "Li1 B1 H20 C16 N8"
_cell_length_a       7.56365
_cell_length_b       7.56209
_cell_length_c       9.76567
_cell_angle_alpha    112.796
_cell_angle_beta     112.774
_cell_angle_gamma    90.0075

_space_group_name_H-M_alt    "P 1"
_space_group_IT_number       1

loop_
  _space_group_symop_operation_xyz
  'x, y, z'

loop_
  _atom_site_type_symbol
  _atom_site_label
  _atom_site_symmetry_multiplicity
  _atom_site_fract_x
  _atom_site_fract_y
  _atom_site_fract_z
  _atom_site_occupancy
  Li  Li1       1.0  0.99996  0.99989  0.99996  1.0000
  B   B1        1.0  0.24998  0.75009  0.50005  1.0000
  H   H1        1.0  0.57856  0.55716  0.48056  1.0000
  H   H2        1.0  0.90196  0.92354  0.48079  1.0000
  H   H3        1.0  0.07660  0.42110  0.51929  1.0000
  H   H4        1.0  0.44278  0.09834  0.51944  1.0000
  H   H5        1.0  0.47278  0.20132  0.21261  1.0000
  H   H6        1.0  0.73985  0.01148  0.21296  1.0000
  H   H7        1.0  0.98891  0.52677  0.78724  1.0000
  H   H8        1.0  0.79885  0.26025  0.78705  1.0000
  H   H9        1.0  0.86749  0.52222  0.13359  1.0000
  H   H10       1.0  0.26589  0.61118  0.13352  1.0000
  H   H11       1.0  0.38858  0.13259  0.86656  1.0000
  H   H12       1.0  0.47790  0.73411  0.86643  1.0000
  H   H13       1.0  0.86316  0.48483  0.29976  1.0000
  H   H14       1.0  0.43641  0.81485  0.29975  1.0000
  H   H15       1.0  0.18501  0.13673  0.70033  1.0000
  H   H16       1.0  0.51525  0.56350  0.70024  1.0000
  H   H17       1.0  0.81677  0.28137  0.11130  1.0000
  H   H18       1.0  0.29443  0.82978  0.11133  1.0000
  H   H19       1.0  0.17002  0.18312  0.88876  1.0000
  H   H20       1.0  0.71865  0.70570  0.88865  1.0000
  C   C1        1.0  0.43597  0.47535  0.38826  1.0000
  C   C2        1.0  0.95225  0.91311  0.38849  1.0000
  C   C3        1.0  0.08705  0.56371  0.61160  1.0000
  C   C4        1.0  0.52472  0.04795  0.61162  1.0000
  C   C5        1.0  0.38148  0.30010  0.25357  1.0000
  C   C6        1.0  0.87210  0.95365  0.25384  1.0000
  C   C7        1.0  0.04660  0.61817  0.74630  1.0000
  C   C8        1.0  0.70010  0.12795  0.74608  1.0000
  C   C9        1.0  0.11522  0.40959  0.25072  1.0000
  C   C10       1.0  0.13540  0.84114  0.25082  1.0000
  C   C11       1.0  0.15893  0.88459  0.74932  1.0000
  C   C12       1.0  0.59042  0.86473  0.74920  1.0000
  C   C13       1.0  0.90499  0.42594  0.19719  1.0000
  C   C14       1.0  0.29206  0.77111  0.19717  1.0000
  C   C15       1.0  0.22873  0.09494  0.80290  1.0000
  C   C16       1.0  0.57413  0.70799  0.80277  1.0000
  N   N1        1.0  0.26621  0.54556  0.38696  1.0000
  N   N2        1.0  0.12066  0.84152  0.38707  1.0000
  N   N3        1.0  0.15857  0.73363  0.61303  1.0000
  N   N4        1.0  0.45443  0.87952  0.61305  1.0000
  N   N5        1.0  0.18127  0.26006  0.16812  1.0000
  N   N6        1.0  0.98679  0.90811  0.16830  1.0000
  N   N7        1.0  0.09205  0.81844  0.83187  1.0000
  N   N8        1.0  0.74008  0.01323  0.83160  1.0000
