data_image0
_chemical_formula_structural       Cu4B4H40C36N24
_chemical_formula_sum              "Cu4 B4 H40 C36 N24"
_cell_length_a       8.03799
_cell_length_b       9.99956
_cell_length_c       13.7559
_cell_angle_alpha    89.9999
_cell_angle_beta     89.9998
_cell_angle_gamma    93.7033

_space_group_name_H-M_alt    "P 1"
_space_group_IT_number       1

loop_
  _space_group_symop_operation_xyz
  'x, y, z'

loop_
  _atom_site_type_symbol
  _atom_site_label
  _atom_site_symmetry_multiplicity
  _atom_site_fract_x
  _atom_site_fract_y
  _atom_site_fract_z
  _atom_site_occupancy
  Cu  Cu1       1.0  0.05658  0.95213  0.09028  1.0000
  Cu  Cu2       1.0  0.94343  0.54787  0.59028  1.0000
  Cu  Cu3       1.0  0.94342  0.04787  0.90972  1.0000
  Cu  Cu4       1.0  0.05658  0.45213  0.40972  1.0000
  B   B1        1.0  0.54970  0.35936  0.14341  1.0000
  B   B2        1.0  0.45030  0.14064  0.64341  1.0000
  B   B3        1.0  0.45030  0.64063  0.85659  1.0000
  B   B4        1.0  0.54970  0.85936  0.35659  1.0000
  H   H1        1.0  0.52602  0.47583  0.12927  1.0000
  H   H2        1.0  0.47398  0.02417  0.62927  1.0000
  H   H3        1.0  0.47399  0.52417  0.87074  1.0000
  H   H4        1.0  0.52601  0.97583  0.37074  1.0000
  H   H5        1.0  0.42037  0.08734  0.08076  1.0000
  H   H6        1.0  0.57963  0.41266  0.58076  1.0000
  H   H7        1.0  0.57963  0.91266  0.91924  1.0000
  H   H8        1.0  0.42037  0.58734  0.41924  1.0000
  H   H9        1.0  0.23691  0.42817  0.21522  1.0000
  H   H10       1.0  0.76309  0.07183  0.71523  1.0000
  H   H11       1.0  0.76309  0.57184  0.78478  1.0000
  H   H12       1.0  0.23691  0.92817  0.28477  1.0000
  H   H13       1.0  0.97780  0.23418  0.18943  1.0000
  H   H14       1.0  0.02220  0.26582  0.68943  1.0000
  H   H15       1.0  0.02220  0.76582  0.81057  1.0000
  H   H16       1.0  0.97779  0.73418  0.31056  1.0000
  H   H17       1.0  0.70211  0.10573  0.09251  1.0000
  H   H18       1.0  0.29789  0.39427  0.59251  1.0000
  H   H19       1.0  0.29789  0.89427  0.90749  1.0000
  H   H20       1.0  0.70211  0.60573  0.40749  1.0000
  H   H21       1.0  0.69842  0.50088  0.98427  1.0000
  H   H22       1.0  0.30158  0.99912  0.48427  1.0000
  H   H23       1.0  0.30158  0.49912  0.01573  1.0000
  H   H24       1.0  0.69841  0.00088  0.51573  1.0000
  H   H25       1.0  0.90781  0.35428  0.87073  1.0000
  H   H26       1.0  0.09219  0.14572  0.37074  1.0000
  H   H27       1.0  0.09219  0.64572  0.12927  1.0000
  H   H28       1.0  0.90781  0.85428  0.62927  1.0000
  H   H29       1.0  0.82649  0.51014  0.22481  1.0000
  H   H30       1.0  0.17351  0.98986  0.72482  1.0000
  H   H31       1.0  0.17351  0.48986  0.77519  1.0000
  H   H32       1.0  0.82649  0.01014  0.27519  1.0000
  H   H33       1.0  0.76326  0.22571  0.44992  1.0000
  H   H34       1.0  0.23674  0.27428  0.94992  1.0000
  H   H35       1.0  0.23674  0.77428  0.55008  1.0000
  H   H36       1.0  0.76326  0.72572  0.05008  1.0000
  H   H37       1.0  0.51333  0.17659  0.31208  1.0000
  H   H38       1.0  0.48666  0.32341  0.81208  1.0000
  H   H39       1.0  0.48667  0.82340  0.68792  1.0000
  H   H40       1.0  0.51333  0.67660  0.18792  1.0000
  C   C1        1.0  0.33515  0.15236  0.11513  1.0000
  C   C2        1.0  0.66486  0.34764  0.61513  1.0000
  C   C3        1.0  0.66486  0.84764  0.88487  1.0000
  C   C4        1.0  0.33514  0.65236  0.38487  1.0000
  C   C5        1.0  0.23543  0.32892  0.18341  1.0000
  C   C6        1.0  0.76457  0.17109  0.68341  1.0000
  C   C7        1.0  0.76457  0.67108  0.81659  1.0000
  C   C8        1.0  0.23543  0.82891  0.31659  1.0000
  C   C9        1.0  0.10870  0.23149  0.17141  1.0000
  C   C10       1.0  0.89130  0.26851  0.67141  1.0000
  C   C11       1.0  0.89131  0.76851  0.82859  1.0000
  C   C12       1.0  0.10869  0.73149  0.32859  1.0000
  C   C13       1.0  0.72649  0.19226  0.04590  1.0000
  C   C14       1.0  0.27351  0.30774  0.54591  1.0000
  C   C15       1.0  0.27351  0.80774  0.95410  1.0000
  C   C16       1.0  0.72649  0.69226  0.45410  1.0000
  C   C17       1.0  0.72977  0.39753  0.98899  1.0000
  C   C18       1.0  0.27023  0.10248  0.48899  1.0000
  C   C19       1.0  0.27023  0.60247  0.01101  1.0000
  C   C20       1.0  0.72977  0.89752  0.51101  1.0000
  C   C21       1.0  0.83281  0.32417  0.93340  1.0000
  C   C22       1.0  0.16719  0.17583  0.43341  1.0000
  C   C23       1.0  0.16719  0.67583  0.06659  1.0000
  C   C24       1.0  0.83281  0.82417  0.56659  1.0000
  C   C25       1.0  0.77742  0.42619  0.26847  1.0000
  C   C26       1.0  0.22258  0.07380  0.76847  1.0000
  C   C27       1.0  0.22258  0.57380  0.73153  1.0000
  C   C28       1.0  0.77742  0.92620  0.23153  1.0000
  C   C29       1.0  0.74000  0.27712  0.38247  1.0000
  C   C30       1.0  0.26000  0.22288  0.88247  1.0000
  C   C31       1.0  0.26000  0.72287  0.61753  1.0000
  C   C32       1.0  0.74000  0.77713  0.11753  1.0000
  C   C33       1.0  0.61654  0.25171  0.31426  1.0000
  C   C34       1.0  0.38346  0.24829  0.81426  1.0000
  C   C35       1.0  0.38346  0.74829  0.68574  1.0000
  C   C36       1.0  0.61654  0.75171  0.18574  1.0000
  N   N1        1.0  0.37922  0.27835  0.14696  1.0000
  N   N2        1.0  0.62078  0.22165  0.64696  1.0000
  N   N3        1.0  0.62078  0.72165  0.85304  1.0000
  N   N4        1.0  0.37922  0.77834  0.35304  1.0000
  N   N5        1.0  0.17223  0.12062  0.12815  1.0000
  N   N6        1.0  0.82777  0.37938  0.62815  1.0000
  N   N7        1.0  0.82777  0.87939  0.87185  1.0000
  N   N8        1.0  0.17222  0.62061  0.37185  1.0000
  N   N9        1.0  0.66202  0.31332  0.06031  1.0000
  N   N10       1.0  0.33798  0.18669  0.56031  1.0000
  N   N11       1.0  0.33798  0.68668  0.93969  1.0000
  N   N12       1.0  0.66202  0.81331  0.43969  1.0000
  N   N13       1.0  0.82961  0.19488  0.96957  1.0000
  N   N14       1.0  0.17039  0.30512  0.46958  1.0000
  N   N15       1.0  0.17039  0.80512  0.03043  1.0000
  N   N16       1.0  0.82961  0.69488  0.53042  1.0000
  N   N17       1.0  0.64182  0.34661  0.24196  1.0000
  N   N18       1.0  0.35818  0.15339  0.74196  1.0000
  N   N19       1.0  0.35818  0.65338  0.75804  1.0000
  N   N20       1.0  0.64182  0.84662  0.25804  1.0000
  N   N21       1.0  0.84097  0.38718  0.35314  1.0000
  N   N22       1.0  0.15903  0.11282  0.85314  1.0000
  N   N23       1.0  0.15904  0.61282  0.64686  1.0000
  N   N24       1.0  0.84096  0.88718  0.14686  1.0000
