data_image0
_chemical_formula_structural       H36Pb2C48N8O8
_chemical_formula_sum              "H36 Pb2 C48 N8 O8"
_cell_length_a       8.60527
_cell_length_b       9.88552
_cell_length_c       13.1377
_cell_angle_alpha    90.178
_cell_angle_beta     98.5584
_cell_angle_gamma    112.437

_space_group_name_H-M_alt    "P 1"
_space_group_IT_number       1

loop_
  _space_group_symop_operation_xyz
  'x, y, z'

loop_
  _atom_site_type_symbol
  _atom_site_label
  _atom_site_symmetry_multiplicity
  _atom_site_fract_x
  _atom_site_fract_y
  _atom_site_fract_z
  _atom_site_occupancy
  H   H1        1.0  0.35073  0.10553  0.55682  1.0000
  H   H2        1.0  0.64913  0.89443  0.44318  1.0000
  H   H3        1.0  0.14758  0.21727  0.58445  1.0000
  H   H4        1.0  0.85232  0.78265  0.41555  1.0000
  H   H5        1.0  0.14550  0.30121  0.76797  1.0000
  H   H6        1.0  0.85447  0.69872  0.23205  1.0000
  H   H7        1.0  0.89125  0.02447  0.90881  1.0000
  H   H8        1.0  0.10872  0.97552  0.09117  1.0000
  H   H9        1.0  0.92447  0.10140  0.09740  1.0000
  H   H10       1.0  0.07556  0.89850  0.90255  1.0000
  H   H11       1.0  0.72432  0.20734  0.14980  1.0000
  H   H12       1.0  0.27564  0.79266  0.85015  1.0000
  H   H13       1.0  0.45055  0.43524  0.28842  1.0000
  H   H14       1.0  0.54948  0.56479  0.71156  1.0000
  H   H15       1.0  0.35230  0.57016  0.40492  1.0000
  H   H16       1.0  0.64770  0.42985  0.59506  1.0000
  H   H17       1.0  0.11096  0.64360  0.34190  1.0000
  H   H18       1.0  0.88900  0.35640  0.65809  1.0000
  H   H19       1.0  0.97489  0.58979  0.15454  1.0000
  H   H20       1.0  0.02519  0.41027  0.84546  1.0000
  H   H21       1.0  0.07885  0.45708  0.03805  1.0000
  H   H22       1.0  0.92121  0.54302  0.96194  1.0000
  H   H23       1.0  0.01977  0.71629  0.74589  1.0000
  H   H24       1.0  0.98027  0.28371  0.25413  1.0000
  H   H25       1.0  0.16393  0.88504  0.71312  1.0000
  H   H26       1.0  0.83610  0.11496  0.28690  1.0000
  H   H27       1.0  0.08172  0.79734  0.52550  1.0000
  H   H28       1.0  0.91839  0.20268  0.47453  1.0000
  H   H29       1.0  0.92872  0.63163  0.55743  1.0000
  H   H30       1.0  0.07127  0.36843  0.44257  1.0000
  H   H31       1.0  0.17582  0.58543  0.66906  1.0000
  H   H32       1.0  0.82416  0.41453  0.33094  1.0000
  H   H33       1.0  0.17824  0.58354  0.53394  1.0000
  H   H34       1.0  0.82166  0.41636  0.46607  1.0000
  H   H35       1.0  0.50066  0.29174  0.17843  1.0000
  H   H36       1.0  0.49936  0.70825  0.82154  1.0000
  Pb  Pb1       1.0  0.68906  0.02745  0.66839  1.0000
  Pb  Pb2       1.0  0.31091  0.97266  0.33182  1.0000
  C   C1        1.0  0.34666  0.14072  0.63453  1.0000
  C   C2        1.0  0.65334  0.85933  0.36548  1.0000
  C   C3        1.0  0.23229  0.20567  0.65104  1.0000
  C   C4        1.0  0.76766  0.79432  0.34896  1.0000
  C   C5        1.0  0.23228  0.25121  0.75053  1.0000
  C   C6        1.0  0.76773  0.74878  0.24948  1.0000
  C   C7        1.0  0.34737  0.23317  0.83222  1.0000
  C   C8        1.0  0.65270  0.76691  0.16777  1.0000
  C   C9        1.0  0.45892  0.16584  0.80877  1.0000
  C   C10       1.0  0.54107  0.83417  0.19124  1.0000
  C   C11       1.0  0.58318  0.14703  0.88963  1.0000
  C   C12       1.0  0.41679  0.85295  0.11037  1.0000
  C   C13       1.0  0.80904  0.07297  0.93579  1.0000
  C   C14       1.0  0.19097  0.92703  0.06419  1.0000
  C   C15       1.0  0.82653  0.11545  0.04039  1.0000
  C   C16       1.0  0.17352  0.88456  0.95959  1.0000
  C   C17       1.0  0.71670  0.17464  0.06942  1.0000
  C   C18       1.0  0.28341  0.82545  0.93055  1.0000
  C   C19       1.0  0.59222  0.19250  0.99433  1.0000
  C   C20       1.0  0.40783  0.80756  0.00565  1.0000
  C   C21       1.0  0.47550  0.25533  0.01483  1.0000
  C   C22       1.0  0.52448  0.74465  0.98516  1.0000
  C   C23       1.0  0.35916  0.27853  0.93738  1.0000
  C   C24       1.0  0.64082  0.72144  0.06263  1.0000
  C   C25       1.0  0.32728  0.36450  0.08015  1.0000
  C   C26       1.0  0.67278  0.63557  0.91984  1.0000
  C   C27       1.0  0.27091  0.43834  0.15423  1.0000
  C   C28       1.0  0.72910  0.56167  0.84576  1.0000
  C   C29       1.0  0.34733  0.46967  0.25848  1.0000
  C   C30       1.0  0.65264  0.53030  0.74152  1.0000
  C   C31       1.0  0.29061  0.54452  0.32466  1.0000
  C   C32       1.0  0.70939  0.45547  0.67535  1.0000
  C   C33       1.0  0.15655  0.58792  0.28855  1.0000
  C   C34       1.0  0.84341  0.41204  0.71147  1.0000
  C   C35       1.0  0.07946  0.55692  0.18502  1.0000
  C   C36       1.0  0.92054  0.44306  0.81499  1.0000
  C   C37       1.0  0.13679  0.48299  0.11871  1.0000
  C   C38       1.0  0.86326  0.51706  0.88128  1.0000
  C   C39       1.0  0.90400  0.85485  0.67586  1.0000
  C   C40       1.0  0.09596  0.14514  0.32413  1.0000
  C   C41       1.0  0.04248  0.79365  0.68453  1.0000
  C   C42       1.0  0.95753  0.20636  0.31549  1.0000
  C   C43       1.0  0.05333  0.71869  0.58590  1.0000
  C   C44       1.0  0.94670  0.28131  0.41412  1.0000
  C   C45       1.0  0.36680  0.77450  0.61743  1.0000
  C   C46       1.0  0.63320  0.22542  0.38255  1.0000
  C   C47       1.0  0.19063  0.65340  0.60242  1.0000
  C   C48       1.0  0.80936  0.34654  0.39758  1.0000
  N   N1        1.0  0.69127  0.08758  0.86324  1.0000
  N   N2        1.0  0.30872  0.91244  0.13675  1.0000
  N   N3        1.0  0.45456  0.12027  0.71068  1.0000
  N   N4        1.0  0.54542  0.87975  0.28932  1.0000
  N   N5        1.0  0.45270  0.31007  0.10515  1.0000
  N   N6        1.0  0.54734  0.68998  0.89484  1.0000
  N   N7        1.0  0.26868  0.34691  0.97859  1.0000
  N   N8        1.0  0.73136  0.65313  0.02140  1.0000
  O   O1        1.0  0.88853  0.91495  0.75859  1.0000
  O   O2        1.0  0.11145  0.08510  0.24138  1.0000
  O   O3        1.0  0.81158  0.84640  0.58950  1.0000
  O   O4        1.0  0.18836  0.15352  0.41050  1.0000
  O   O5        1.0  0.46418  0.79680  0.70588  1.0000
  O   O6        1.0  0.53578  0.20312  0.29412  1.0000
  O   O7        1.0  0.41226  0.85516  0.54402  1.0000
  O   O8        1.0  0.58775  0.14478  0.45597  1.0000
