data_image0
_chemical_formula_structural       H24Pb2C44N8O8
_chemical_formula_sum              "H24 Pb2 C44 N8 O8"
_cell_length_a       7.34836
_cell_length_b       12.0616
_cell_length_c       12.5497
_cell_angle_alpha    113.601
_cell_angle_beta     100.161
_cell_angle_gamma    91.8201

_space_group_name_H-M_alt    "P 1"
_space_group_IT_number       1

loop_
  _space_group_symop_operation_xyz
  'x, y, z'

loop_
  _atom_site_type_symbol
  _atom_site_label
  _atom_site_symmetry_multiplicity
  _atom_site_fract_x
  _atom_site_fract_y
  _atom_site_fract_z
  _atom_site_occupancy
  H   H1        1.0  0.74898  0.17003  0.18201  1.0000
  H   H2        1.0  0.25110  0.82996  0.81798  1.0000
  H   H3        1.0  0.80183  0.04589  0.97607  1.0000
  H   H4        1.0  0.19840  0.95412  0.02393  1.0000
  H   H5        1.0  0.82048  0.15143  0.84030  1.0000
  H   H6        1.0  0.17958  0.84856  0.15968  1.0000
  H   H7        1.0  0.64685  0.73270  0.37572  1.0000
  H   H8        1.0  0.35295  0.26725  0.62423  1.0000
  H   H9        1.0  0.66516  0.85839  0.25813  1.0000
  H   H10       1.0  0.33498  0.14161  0.74189  1.0000
  H   H11       1.0  0.72140  0.75378  0.04893  1.0000
  H   H12       1.0  0.27876  0.24624  0.95112  1.0000
  H   H13       1.0  0.82119  0.33983  0.62342  1.0000
  H   H14       1.0  0.17881  0.66017  0.37656  1.0000
  H   H15       1.0  0.80403  0.56786  0.70707  1.0000
  H   H16       1.0  0.19583  0.43213  0.29289  1.0000
  H   H17       1.0  0.55793  0.09050  0.38674  1.0000
  H   H18       1.0  0.44215  0.90959  0.61347  1.0000
  H   H19       1.0  0.40819  0.89452  0.37472  1.0000
  H   H20       1.0  0.59193  0.10557  0.62543  1.0000
  H   H21       1.0  0.07204  0.87073  0.37310  1.0000
  H   H22       1.0  0.92798  0.12926  0.62684  1.0000
  H   H23       1.0  0.88427  0.04397  0.38641  1.0000
  H   H24       1.0  0.11572  0.95601  0.61346  1.0000
  Pb  Pb1       1.0  0.71411  0.44735  0.38862  1.0000
  Pb  Pb2       1.0  0.28580  0.55267  0.61136  1.0000
  C   C1        1.0  0.75783  0.21123  0.11954  1.0000
  C   C2        1.0  0.24221  0.78876  0.88044  1.0000
  C   C3        1.0  0.78748  0.14269  0.00494  1.0000
  C   C4        1.0  0.21265  0.85730  0.99506  1.0000
  C   C5        1.0  0.79745  0.20027  0.92999  1.0000
  C   C6        1.0  0.20258  0.79972  0.06999  1.0000
  C   C7        1.0  0.77563  0.32502  0.96995  1.0000
  C   C8        1.0  0.22434  0.67496  0.03002  1.0000
  C   C9        1.0  0.74699  0.38751  0.08721  1.0000
  C   C10       1.0  0.25293  0.61246  0.91276  1.0000
  C   C11       1.0  0.72520  0.51734  0.13229  1.0000
  C   C12       1.0  0.27472  0.48262  0.86768  1.0000
  C   C13       1.0  0.67441  0.69263  0.28603  1.0000
  C   C14       1.0  0.32548  0.30734  0.71393  1.0000
  C   C15       1.0  0.68373  0.76205  0.21976  1.0000
  C   C16       1.0  0.31632  0.23794  0.78026  1.0000
  C   C17       1.0  0.71410  0.70541  0.10540  1.0000
  C   C18       1.0  0.28598  0.29459  0.89461  1.0000
  C   C19       1.0  0.73465  0.58031  0.05894  1.0000
  C   C20       1.0  0.26532  0.41967  0.94102  1.0000
  C   C21       1.0  0.76364  0.51577  0.93870  1.0000
  C   C22       1.0  0.23629  0.48420  0.06129  1.0000
  C   C23       1.0  0.78149  0.38968  0.89431  1.0000
  C   C24       1.0  0.21846  0.61032  0.10568  1.0000
  C   C25       1.0  0.80858  0.39024  0.71564  1.0000
  C   C26       1.0  0.19139  0.60973  0.28432  1.0000
  C   C27       1.0  0.79553  0.51671  0.76111  1.0000
  C   C28       1.0  0.20435  0.48328  0.23888  1.0000
  C   C29       1.0  0.40888  0.28826  0.40164  1.0000
  C   C30       1.0  0.59115  0.71178  0.59842  1.0000
  C   C31       1.0  0.30425  0.17427  0.39174  1.0000
  C   C32       1.0  0.69576  0.82576  0.60830  1.0000
  C   C33       1.0  0.40970  0.07778  0.38554  1.0000
  C   C34       1.0  0.59034  0.92226  0.61457  1.0000
  C   C35       1.0  0.32648  0.96952  0.37964  1.0000
  C   C36       1.0  0.67357  0.03053  0.62044  1.0000
  C   C37       1.0  0.13672  0.95609  0.37929  1.0000
  C   C38       1.0  0.86328  0.04391  0.62069  1.0000
  C   C39       1.0  0.03191  0.05158  0.38535  1.0000
  C   C40       1.0  0.96808  0.94840  0.61459  1.0000
  C   C41       1.0  0.11342  0.16167  0.39206  1.0000
  C   C42       1.0  0.88660  0.83834  0.60793  1.0000
  C   C43       1.0  0.99461  0.26275  0.40062  1.0000
  C   C44       1.0  0.00539  0.73725  0.59937  1.0000
  N   N1        1.0  0.73960  0.32982  0.15961  1.0000
  N   N2        1.0  0.26038  0.67015  0.84035  1.0000
  N   N3        1.0  0.69537  0.57436  0.24401  1.0000
  N   N4        1.0  0.30443  0.42558  0.75593  1.0000
  N   N5        1.0  0.77308  0.57886  0.87148  1.0000
  N   N6        1.0  0.22681  0.42112  0.12848  1.0000
  N   N7        1.0  0.80341  0.32751  0.78147  1.0000
  N   N8        1.0  0.19657  0.67247  0.21848  1.0000
  O   O1        1.0  0.43056  0.29468  0.30595  1.0000
  O   O2        1.0  0.56939  0.70540  0.69412  1.0000
  O   O3        1.0  0.48583  0.36596  0.50598  1.0000
  O   O4        1.0  0.51425  0.63403  0.49409  1.0000
  O   O5        1.0  0.06992  0.36402  0.40922  1.0000
  O   O6        1.0  0.93010  0.63601  0.59081  1.0000
  O   O7        1.0  0.82210  0.24297  0.39815  1.0000
  O   O8        1.0  0.17788  0.75703  0.60184  1.0000
