data_image0
_chemical_formula_structural       H44Pb2C54N8O8
_chemical_formula_sum              "H44 Pb2 C54 N8 O8"
_cell_length_a       9.21639
_cell_length_b       10.266
_cell_length_c       12.9344
_cell_angle_alpha    100.098
_cell_angle_beta     90.6443
_cell_angle_gamma    98.8832

_space_group_name_H-M_alt    "P 1"
_space_group_IT_number       1

loop_
  _space_group_symop_operation_xyz
  'x, y, z'

loop_
  _atom_site_type_symbol
  _atom_site_label
  _atom_site_symmetry_multiplicity
  _atom_site_fract_x
  _atom_site_fract_y
  _atom_site_fract_z
  _atom_site_occupancy
  H   H1        1.0  0.05925  0.86638  0.17818  1.0000
  H   H2        1.0  0.94075  0.13362  0.82182  1.0000
  H   H3        1.0  0.96786  0.76921  0.33399  1.0000
  H   H4        1.0  0.03213  0.23079  0.66601  1.0000
  H   H5        1.0  0.84206  0.64713  0.25091  1.0000
  H   H6        1.0  0.15794  0.35288  0.74909  1.0000
  H   H7        1.0  0.72366  0.84891  0.33249  1.0000
  H   H8        1.0  0.27634  0.15109  0.66751  1.0000
  H   H9        1.0  0.85873  0.95253  0.27852  1.0000
  H   H10       1.0  0.14127  0.04747  0.72148  1.0000
  H   H11       1.0  0.63748  0.91467  0.16773  1.0000
  H   H12       1.0  0.36252  0.08533  0.83227  1.0000
  H   H13       1.0  0.72778  0.80602  0.99454  1.0000
  H   H14       1.0  0.27221  0.19398  0.00546  1.0000
  H   H15       1.0  0.85715  0.93365  0.07002  1.0000
  H   H16       1.0  0.14285  0.06635  0.92998  1.0000
  H   H17       1.0  0.98239  0.74283  0.99829  1.0000
  H   H18       1.0  0.01761  0.25717  0.00171  1.0000
  H   H19       1.0  0.85205  0.63026  0.05159  1.0000
  H   H20       1.0  0.14795  0.36974  0.94841  1.0000
  H   H21       1.0  0.16926  0.53992  0.38214  1.0000
  H   H22       1.0  0.83075  0.46008  0.61786  1.0000
  H   H23       1.0  0.15093  0.47937  0.56321  1.0000
  H   H24       1.0  0.84907  0.52063  0.43679  1.0000
  H   H25       1.0  0.33041  0.34342  0.61951  1.0000
  H   H26       1.0  0.66959  0.65658  0.38049  1.0000
  H   H27       1.0  0.64676  0.37381  0.05872  1.0000
  H   H28       1.0  0.35325  0.62619  0.94128  1.0000
  H   H29       1.0  0.82346  0.22322  0.08474  1.0000
  H   H30       1.0  0.17655  0.77678  0.91526  1.0000
  H   H31       1.0  0.82560  0.13621  0.25716  1.0000
  H   H32       1.0  0.17440  0.86379  0.74284  1.0000
  H   H33       1.0  0.88320  0.95819  0.51368  1.0000
  H   H34       1.0  0.11680  0.04181  0.48632  1.0000
  H   H35       1.0  0.97587  0.81573  0.62737  1.0000
  H   H36       1.0  0.02413  0.18427  0.37263  1.0000
  H   H37       1.0  0.87034  0.80485  0.80393  1.0000
  H   H38       1.0  0.12966  0.19516  0.19607  1.0000
  H   H39       1.0  0.67148  0.93729  0.86322  1.0000
  H   H40       1.0  0.32852  0.06271  0.13678  1.0000
  H   H41       1.0  0.58232  0.08065  0.75032  1.0000
  H   H42       1.0  0.41768  0.91935  0.24968  1.0000
  H   H43       1.0  0.52505  0.21506  0.65115  1.0000
  H   H44       1.0  0.47495  0.78493  0.34885  1.0000
  Pb  Pb1       1.0  0.33549  0.48835  0.14838  1.0000
  Pb  Pb2       1.0  0.66451  0.51165  0.85162  1.0000
  C   C1        1.0  0.12374  0.67682  0.16228  1.0000
  C   C2        1.0  0.87626  0.32318  0.83772  1.0000
  C   C3        1.0  0.00148  0.76210  0.16772  1.0000
  C   C4        1.0  0.99852  0.23790  0.83228  1.0000
  C   C5        1.0  0.90150  0.75070  0.26029  1.0000
  C   C6        1.0  0.09849  0.24931  0.73971  1.0000
  C   C7        1.0  0.79444  0.85116  0.26503  1.0000
  C   C8        1.0  0.20556  0.14884  0.73498  1.0000
  C   C9        1.0  0.70081  0.83079  0.16257  1.0000
  C   C10       1.0  0.29918  0.16921  0.83743  1.0000
  C   C11       1.0  0.58383  0.70594  0.15093  1.0000
  C   C12       1.0  0.41616  0.29406  0.84908  1.0000
  C   C13       1.0  0.79782  0.83110  0.06694  1.0000
  C   C14       1.0  0.20217  0.16890  0.93306  1.0000
  C   C15       1.0  0.90949  0.73461  0.06423  1.0000
  C   C16       1.0  0.09051  0.26539  0.93577  1.0000
  C   C17       1.0  0.24359  0.47930  0.41005  1.0000
  C   C18       1.0  0.75641  0.52069  0.58995  1.0000
  C   C19       1.0  0.23400  0.44492  0.51041  1.0000
  C   C20       1.0  0.76601  0.55507  0.48959  1.0000
  C   C21       1.0  0.33243  0.36896  0.54126  1.0000
  C   C22       1.0  0.66756  0.63105  0.45874  1.0000
  C   C23       1.0  0.43813  0.32563  0.47084  1.0000
  C   C24       1.0  0.56187  0.67437  0.52916  1.0000
  C   C25       1.0  0.44182  0.36605  0.37057  1.0000
  C   C26       1.0  0.55818  0.63395  0.62943  1.0000
  C   C27       1.0  0.55070  0.32624  0.29538  1.0000
  C   C28       1.0  0.44930  0.67377  0.70462  1.0000
  C   C29       1.0  0.64962  0.33540  0.13181  1.0000
  C   C30       1.0  0.35039  0.66460  0.86819  1.0000
  C   C31       1.0  0.74972  0.24977  0.14739  1.0000
  C   C32       1.0  0.25028  0.75023  0.85262  1.0000
  C   C33       1.0  0.75012  0.20267  0.24111  1.0000
  C   C34       1.0  0.24988  0.79733  0.75889  1.0000
  C   C35       1.0  0.65022  0.24073  0.31813  1.0000
  C   C36       1.0  0.34978  0.75927  0.68187  1.0000
  C   C37       1.0  0.64258  0.19883  0.41781  1.0000
  C   C38       1.0  0.35742  0.80117  0.58219  1.0000
  C   C39       1.0  0.54199  0.24307  0.49130  1.0000
  C   C40       1.0  0.45801  0.75692  0.50870  1.0000
  C   C41       1.0  0.67587  0.11075  0.55377  1.0000
  C   C42       1.0  0.32412  0.88925  0.44624  1.0000
  C   C43       1.0  0.72768  0.02948  0.62398  1.0000
  C   C44       1.0  0.27231  0.97052  0.37602  1.0000
  C   C45       1.0  0.83885  0.95366  0.59091  1.0000
  C   C46       1.0  0.16114  0.04634  0.40910  1.0000
  C   C47       1.0  0.88984  0.87366  0.65516  1.0000
  C   C48       1.0  0.11016  0.12634  0.34484  1.0000
  C   C49       1.0  0.83023  0.86745  0.75350  1.0000
  C   C50       1.0  0.16977  0.13255  0.24650  1.0000
  C   C51       1.0  0.71860  0.94144  0.78666  1.0000
  C   C52       1.0  0.28139  0.05856  0.21334  1.0000
  C   C53       1.0  0.66770  0.02205  0.72264  1.0000
  C   C54       1.0  0.33230  0.97795  0.27736  1.0000
  N   N1        1.0  0.55384  0.37202  0.20328  1.0000
  N   N2        1.0  0.44617  0.62798  0.79672  1.0000
  N   N3        1.0  0.34475  0.44185  0.34291  1.0000
  N   N4        1.0  0.65525  0.55815  0.65709  1.0000
  N   N5        1.0  0.72473  0.11686  0.45733  1.0000
  N   N6        1.0  0.27527  0.88314  0.54267  1.0000
  N   N7        1.0  0.56515  0.18612  0.57718  1.0000
  N   N8        1.0  0.43484  0.81388  0.42282  1.0000
  O   O1        1.0  0.14040  0.61247  0.23683  1.0000
  O   O2        1.0  0.85960  0.38753  0.76317  1.0000
  O   O3        1.0  0.20636  0.67447  0.08396  1.0000
  O   O4        1.0  0.79364  0.32553  0.91604  1.0000
  O   O5        1.0  0.56098  0.62399  0.06547  1.0000
  O   O6        1.0  0.43902  0.37601  0.93453  1.0000
  O   O7        1.0  0.50542  0.68836  0.23121  1.0000
  O   O8        1.0  0.49458  0.31164  0.76879  1.0000
