data_image0
_chemical_formula_structural       H32Pb2C54N8O8
_chemical_formula_sum              "H32 Pb2 C54 N8 O8"
_cell_length_a       9.22316
_cell_length_b       9.1793
_cell_length_c       15.533
_cell_angle_alpha    101.529
_cell_angle_beta     91.5214
_cell_angle_gamma    111.886

_space_group_name_H-M_alt    "P 1"
_space_group_IT_number       1

loop_
  _space_group_symop_operation_xyz
  'x, y, z'

loop_
  _atom_site_type_symbol
  _atom_site_label
  _atom_site_symmetry_multiplicity
  _atom_site_fract_x
  _atom_site_fract_y
  _atom_site_fract_z
  _atom_site_occupancy
  H   H1        1.0  0.38682  0.69338  0.93230  1.0000
  H   H2        1.0  0.61318  0.30662  0.06771  1.0000
  H   H3        1.0  0.55077  0.90516  0.85700  1.0000
  H   H4        1.0  0.44924  0.09483  0.14300  1.0000
  H   H5        1.0  0.80643  0.11648  0.93679  1.0000
  H   H6        1.0  0.19359  0.88350  0.06321  1.0000
  H   H7        1.0  0.72702  0.90592  0.16241  1.0000
  H   H8        1.0  0.27299  0.09408  0.83759  1.0000
  H   H9        1.0  0.46939  0.49453  0.36910  1.0000
  H   H10       1.0  0.53059  0.50546  0.63090  1.0000
  H   H11       1.0  0.47040  0.60881  0.53042  1.0000
  H   H12       1.0  0.52959  0.39116  0.46958  1.0000
  H   H13       1.0  0.25616  0.69799  0.57854  1.0000
  H   H14       1.0  0.74383  0.30199  0.42146  1.0000
  H   H15       1.0  0.01550  0.50719  0.06670  1.0000
  H   H16       1.0  0.98452  0.49282  0.93330  1.0000
  H   H17       1.0  0.80040  0.60994  0.08922  1.0000
  H   H18       1.0  0.19961  0.39006  0.91078  1.0000
  H   H19       1.0  0.74138  0.69360  0.24459  1.0000
  H   H20       1.0  0.25862  0.30640  0.75540  1.0000
  H   H21       1.0  0.93611  0.89545  0.69959  1.0000
  H   H22       1.0  0.06389  0.10457  0.30041  1.0000
  H   H23       1.0  0.82374  0.04058  0.80582  1.0000
  H   H24       1.0  0.17624  0.95943  0.19417  1.0000
  H   H25       1.0  0.60774  0.12274  0.75775  1.0000
  H   H26       1.0  0.39223  0.87725  0.24224  1.0000
  H   H27       1.0  0.51138  0.05428  0.59926  1.0000
  H   H28       1.0  0.48859  0.94570  0.40073  1.0000
  H   H29       1.0  0.63083  0.90782  0.48745  1.0000
  H   H30       1.0  0.36916  0.09218  0.51254  1.0000
  H   H31       1.0  0.03556  0.78959  0.60036  1.0000
  H   H32       1.0  0.96443  0.21042  0.39964  1.0000
  Pb  Pb1       1.0  0.25533  0.38351  0.16233  1.0000
  Pb  Pb2       1.0  0.74468  0.61647  0.83767  1.0000
  C   C1        1.0  0.44706  0.66260  0.09810  1.0000
  C   C2        1.0  0.55296  0.33740  0.90191  1.0000
  C   C3        1.0  0.54720  0.78587  0.05152  1.0000
  C   C4        1.0  0.45281  0.21410  0.94848  1.0000
  C   C5        1.0  0.49842  0.78556  0.96518  1.0000
  C   C6        1.0  0.50158  0.21444  0.03483  1.0000
  C   C7        1.0  0.59086  0.90364  0.92333  1.0000
  C   C8        1.0  0.40916  0.09635  0.07667  1.0000
  C   C9        1.0  0.73258  0.02145  0.96719  1.0000
  C   C10       1.0  0.26744  0.97854  0.03281  1.0000
  C   C11       1.0  0.78285  0.02178  0.05313  1.0000
  C   C12       1.0  0.21715  0.97821  0.94687  1.0000
  C   C13       1.0  0.93632  0.14752  0.09930  1.0000
  C   C14       1.0  0.06368  0.85248  0.90071  1.0000
  C   C15       1.0  0.68906  0.90466  0.09520  1.0000
  C   C16       1.0  0.31093  0.09533  0.90481  1.0000
  C   C17       1.0  0.37712  0.53528  0.39242  1.0000
  C   C18       1.0  0.62287  0.46472  0.60758  1.0000
  C   C19       1.0  0.37681  0.59782  0.48259  1.0000
  C   C20       1.0  0.62317  0.40217  0.51741  1.0000
  C   C21       1.0  0.25819  0.64865  0.50882  1.0000
  C   C22       1.0  0.74179  0.35133  0.49118  1.0000
  C   C23       1.0  0.14359  0.64082  0.44436  1.0000
  C   C24       1.0  0.85640  0.35918  0.55565  1.0000
  C   C25       1.0  0.15479  0.57921  0.35392  1.0000
  C   C26       1.0  0.84521  0.42080  0.64608  1.0000
  C   C27       1.0  0.04911  0.58188  0.28342  1.0000
  C   C28       1.0  0.95088  0.41813  0.71658  1.0000
  C   C29       1.0  0.98808  0.54659  0.13284  1.0000
  C   C30       1.0  0.01193  0.45342  0.86716  1.0000
  C   C31       1.0  0.86715  0.60408  0.14643  1.0000
  C   C32       1.0  0.13286  0.39593  0.85357  1.0000
  C   C33       1.0  0.83561  0.64991  0.23200  1.0000
  C   C34       1.0  0.16440  0.35010  0.76800  1.0000
  C   C35       1.0  0.92855  0.64143  0.30296  1.0000
  C   C36       1.0  0.07146  0.35859  0.69704  1.0000
  C   C37       1.0  0.91549  0.69750  0.39441  1.0000
  C   C38       1.0  0.08453  0.30252  0.60559  1.0000
  C   C39       1.0  0.02058  0.69651  0.46098  1.0000
  C   C40       1.0  0.97941  0.30349  0.53902  1.0000
  C   C41       1.0  0.85813  0.80856  0.51777  1.0000
  C   C42       1.0  0.14187  0.19146  0.48223  1.0000
  C   C43       1.0  0.78973  0.89069  0.58440  1.0000
  C   C44       1.0  0.21026  0.10932  0.41559  1.0000
  C   C45       1.0  0.84310  0.92787  0.67479  1.0000
  C   C46       1.0  0.15689  0.07214  0.32521  1.0000
  C   C47       1.0  0.77768  0.01027  0.73654  1.0000
  C   C48       1.0  0.22230  0.98974  0.26345  1.0000
  C   C49       1.0  0.65772  0.05552  0.70996  1.0000
  C   C50       1.0  0.34226  0.94448  0.29003  1.0000
  C   C51       1.0  0.60383  0.01768  0.62013  1.0000
  C   C52       1.0  0.39615  0.98233  0.37987  1.0000
  C   C53       1.0  0.66971  0.93700  0.55775  1.0000
  C   C54       1.0  0.33027  0.06300  0.44225  1.0000
  N   N1        1.0  0.26893  0.52525  0.33085  1.0000
  N   N2        1.0  0.73106  0.47476  0.66915  1.0000
  N   N3        1.0  0.07472  0.53403  0.19884  1.0000
  N   N4        1.0  0.92528  0.46599  0.80116  1.0000
  N   N5        1.0  0.98189  0.76736  0.53860  1.0000
  N   N6        1.0  0.01811  0.23266  0.46140  1.0000
  N   N7        1.0  0.81532  0.76657  0.43057  1.0000
  N   N8        1.0  0.18469  0.23345  0.56942  1.0000
  O   O1        1.0  0.32005  0.55175  0.05457  1.0000
  O   O2        1.0  0.67996  0.44825  0.94544  1.0000
  O   O3        1.0  0.48955  0.67148  0.17813  1.0000
  O   O4        1.0  0.51049  0.32851  0.82187  1.0000
  O   O5        1.0  0.97049  0.16326  0.18142  1.0000
  O   O6        1.0  0.02950  0.83676  0.81859  1.0000
  O   O7        1.0  0.02736  0.23487  0.05204  1.0000
  O   O8        1.0  0.97265  0.76512  0.94796  1.0000
