data_image0
_chemical_formula_structural       H32Pb2C54N8O8
_chemical_formula_sum              "H32 Pb2 C54 N8 O8"
_cell_length_a       9.37155
_cell_length_b       10.677
_cell_length_c       13.0813
_cell_angle_alpha    92.1672
_cell_angle_beta     107.836
_cell_angle_gamma    104.607

_space_group_name_H-M_alt    "P 1"
_space_group_IT_number       1

loop_
  _space_group_symop_operation_xyz
  'x, y, z'

loop_
  _atom_site_type_symbol
  _atom_site_label
  _atom_site_symmetry_multiplicity
  _atom_site_fract_x
  _atom_site_fract_y
  _atom_site_fract_z
  _atom_site_occupancy
  H   H1        1.0  0.49968  0.87008  0.15414  1.0000
  H   H2        1.0  0.50028  0.12994  0.84580  1.0000
  H   H3        1.0  0.33139  0.66802  0.19396  1.0000
  H   H4        1.0  0.66861  0.33198  0.80604  1.0000
  H   H5        1.0  0.11722  0.68930  0.26681  1.0000
  H   H6        1.0  0.88280  0.31071  0.73318  1.0000
  H   H7        1.0  0.42058  0.43394  0.21821  1.0000
  H   H8        1.0  0.57941  0.56608  0.78180  1.0000
  H   H9        1.0  0.21246  0.48530  0.28414  1.0000
  H   H10       1.0  0.78757  0.51471  0.71591  1.0000
  H   H11       1.0  0.02485  0.30307  0.32882  1.0000
  H   H12       1.0  0.97520  0.69692  0.67123  1.0000
  H   H13       1.0  0.71305  0.64372  0.33775  1.0000
  H   H14       1.0  0.28696  0.35626  0.66226  1.0000
  H   H15       1.0  0.51426  0.53584  0.41835  1.0000
  H   H16       1.0  0.48572  0.46417  0.58164  1.0000
  H   H17       1.0  0.40764  0.66970  0.52111  1.0000
  H   H18       1.0  0.59235  0.33027  0.47888  1.0000
  H   H19       1.0  0.50221  0.91053  0.54183  1.0000
  H   H20       1.0  0.49780  0.08946  0.45816  1.0000
  H   H21       1.0  0.70309  0.01996  0.46277  1.0000
  H   H22       1.0  0.29694  0.98003  0.53725  1.0000
  H   H23       1.0  0.80547  0.84553  0.06168  1.0000
  H   H24       1.0  0.19449  0.15446  0.93834  1.0000
  H   H25       1.0  0.00826  0.23500  0.00976  1.0000
  H   H26       1.0  0.99170  0.76498  0.99024  1.0000
  H   H27       1.0  0.91752  0.58943  0.32590  1.0000
  H   H28       1.0  0.08250  0.41060  0.67411  1.0000
  H   H29       1.0  0.87280  0.27085  0.51735  1.0000
  H   H30       1.0  0.12721  0.72915  0.48267  1.0000
  H   H31       1.0  0.84171  0.09776  0.34694  1.0000
  H   H32       1.0  0.15830  0.90225  0.65305  1.0000
  Pb  Pb1       1.0  0.52751  0.18014  0.11845  1.0000
  Pb  Pb2       1.0  0.47247  0.81982  0.88154  1.0000
  C   C1        1.0  0.40545  0.87438  0.18537  1.0000
  C   C2        1.0  0.59453  0.12563  0.81458  1.0000
  C   C3        1.0  0.31082  0.76202  0.20814  1.0000
  C   C4        1.0  0.68922  0.23800  0.79186  1.0000
  C   C5        1.0  0.19405  0.77390  0.24837  1.0000
  C   C6        1.0  0.80592  0.22610  0.75156  1.0000
  C   C7        1.0  0.17210  0.89792  0.26488  1.0000
  C   C8        1.0  0.82791  0.10208  0.73512  1.0000
  C   C9        1.0  0.27204  0.00725  0.23902  1.0000
  C   C10       1.0  0.72799  0.99278  0.76100  1.0000
  C   C11       1.0  0.25122  0.13691  0.25236  1.0000
  C   C12       1.0  0.74874  0.86309  0.74758  1.0000
  C   C13       1.0  0.33526  0.35747  0.23846  1.0000
  C   C14       1.0  0.66477  0.64254  0.76158  1.0000
  C   C15       1.0  0.21945  0.38548  0.27506  1.0000
  C   C16       1.0  0.78051  0.61452  0.72490  1.0000
  C   C17       1.0  0.11604  0.28461  0.30050  1.0000
  C   C18       1.0  0.88399  0.71539  0.69954  1.0000
  C   C19       1.0  0.12931  0.15686  0.28964  1.0000
  C   C20       1.0  0.87069  0.84314  0.71035  1.0000
  C   C21       1.0  0.02981  0.04474  0.31226  1.0000
  C   C22       1.0  0.97018  0.95526  0.68773  1.0000
  C   C23       1.0  0.05055  0.91998  0.30169  1.0000
  C   C24       1.0  0.94945  0.08002  0.69830  1.0000
  C   C25       1.0  0.85053  0.89768  0.35512  1.0000
  C   C26       1.0  0.14950  0.10232  0.64491  1.0000
  C   C27       1.0  0.72273  0.83909  0.39510  1.0000
  C   C28       1.0  0.27731  0.16090  0.60492  1.0000
  C   C29       1.0  0.66685  0.70214  0.38256  1.0000
  C   C30       1.0  0.33313  0.29784  0.61741  1.0000
  C   C31       1.0  0.55460  0.64194  0.42762  1.0000
  C   C32       1.0  0.44537  0.35805  0.57235  1.0000
  C   C33       1.0  0.49446  0.71653  0.48476  1.0000
  C   C34       1.0  0.50555  0.28347  0.51524  1.0000
  C   C35       1.0  0.54719  0.85243  0.49580  1.0000
  C   C36       1.0  0.45280  0.14757  0.50418  1.0000
  C   C37       1.0  0.66020  0.91377  0.45134  1.0000
  C   C38       1.0  0.33979  0.08622  0.54864  1.0000
  C   C39       1.0  0.78073  0.09308  0.07608  1.0000
  C   C40       1.0  0.21926  0.90693  0.92391  1.0000
  C   C41       1.0  0.89503  0.04458  0.03805  1.0000
  C   C42       1.0  0.10492  0.95541  0.96192  1.0000
  C   C43       1.0  0.89002  0.91204  0.03315  1.0000
  C   C44       1.0  0.10994  0.08794  0.96685  1.0000
  C   C45       1.0  0.00620  0.13243  0.00509  1.0000
  C   C46       1.0  0.99381  0.86756  0.99496  1.0000
  C   C47       1.0  0.75380  0.34027  0.31394  1.0000
  C   C48       1.0  0.24619  0.65973  0.68607  1.0000
  C   C49       1.0  0.88125  0.42104  0.41083  1.0000
  C   C50       1.0  0.11879  0.57895  0.58916  1.0000
  C   C51       1.0  0.95495  0.55005  0.40205  1.0000
  C   C52       1.0  0.04510  0.44994  0.59794  1.0000
  C   C53       1.0  0.92760  0.37133  0.50960  1.0000
  C   C54       1.0  0.07240  0.62867  0.49041  1.0000
  N   N1        1.0  0.35020  0.23739  0.22770  1.0000
  N   N2        1.0  0.64981  0.76263  0.77230  1.0000
  N   N3        1.0  0.38648  0.99264  0.20004  1.0000
  N   N4        1.0  0.61350  0.00737  0.79993  1.0000
  N   N5        1.0  0.93906  0.83023  0.32826  1.0000
  N   N6        1.0  0.06096  0.16976  0.67174  1.0000
  N   N7        1.0  0.90203  0.02887  0.34657  1.0000
  N   N8        1.0  0.09797  0.97113  0.65343  1.0000
  O   O1        1.0  0.66554  0.00769  0.08981  1.0000
  O   O2        1.0  0.33448  0.99232  0.91021  1.0000
  O   O3        1.0  0.79969  0.21491  0.09115  1.0000
  O   O4        1.0  0.20033  0.78510  0.90887  1.0000
  O   O5        1.0  0.68557  0.39861  0.23993  1.0000
  O   O6        1.0  0.31438  0.60140  0.76010  1.0000
  O   O7        1.0  0.71871  0.21452  0.30880  1.0000
  O   O8        1.0  0.28128  0.78549  0.69122  1.0000
