data_image0
_chemical_formula_structural       Mn4P12H40C12N4O36
_chemical_formula_sum              "Mn4 P12 H40 C12 N4 O36"
_cell_length_a       8.35996
_cell_length_b       9.12406
_cell_length_c       13.4439
_cell_angle_alpha    97.862
_cell_angle_beta     90.0002
_cell_angle_gamma    90.0002

_space_group_name_H-M_alt    "P 1"
_space_group_IT_number       1

loop_
  _space_group_symop_operation_xyz
  'x, y, z'

loop_
  _atom_site_type_symbol
  _atom_site_label
  _atom_site_symmetry_multiplicity
  _atom_site_fract_x
  _atom_site_fract_y
  _atom_site_fract_z
  _atom_site_occupancy
  Mn  Mn1       1.0  0.96197  0.78084  0.24435  1.0000
  Mn  Mn2       1.0  0.46198  0.71916  0.25565  1.0000
  Mn  Mn3       1.0  0.03803  0.21916  0.75565  1.0000
  Mn  Mn4       1.0  0.53803  0.28084  0.74435  1.0000
  P   P1        1.0  0.19709  0.87526  0.44443  1.0000
  P   P2        1.0  0.69710  0.62474  0.05557  1.0000
  P   P3        1.0  0.80291  0.12474  0.55557  1.0000
  P   P4        1.0  0.30290  0.37526  0.94443  1.0000
  P   P5        1.0  0.32231  0.95583  0.75770  1.0000
  P   P6        1.0  0.82231  0.54416  0.74229  1.0000
  P   P7        1.0  0.67769  0.04416  0.24230  1.0000
  P   P8        1.0  0.17769  0.45584  0.25771  1.0000
  P   P9        1.0  0.29278  0.41525  0.58422  1.0000
  P   P10       1.0  0.79278  0.08475  0.91578  1.0000
  P   P11       1.0  0.70722  0.58475  0.41578  1.0000
  P   P12       1.0  0.20721  0.91525  0.08422  1.0000
  H   H1        1.0  0.13542  0.08168  0.53847  1.0000
  H   H2        1.0  0.63542  0.41832  0.96153  1.0000
  H   H3        1.0  0.86458  0.91832  0.46153  1.0000
  H   H4        1.0  0.36458  0.58168  0.03847  1.0000
  H   H5        1.0  0.10664  0.80729  0.60409  1.0000
  H   H6        1.0  0.60665  0.69271  0.89591  1.0000
  H   H7        1.0  0.89335  0.19271  0.39591  1.0000
  H   H8        1.0  0.39336  0.30729  0.10409  1.0000
  H   H9        1.0  0.13218  0.65119  0.51182  1.0000
  H   H10       1.0  0.63218  0.84880  0.98818  1.0000
  H   H11       1.0  0.86782  0.34881  0.48818  1.0000
  H   H12       1.0  0.36782  0.15120  0.01182  1.0000
  H   H13       1.0  0.42966  0.68845  0.53250  1.0000
  H   H14       1.0  0.92966  0.81155  0.96750  1.0000
  H   H15       1.0  0.57034  0.31155  0.46750  1.0000
  H   H16       1.0  0.07034  0.18845  0.03250  1.0000
  H   H17       1.0  0.24364  0.85802  0.89342  1.0000
  H   H18       1.0  0.74364  0.64198  0.60658  1.0000
  H   H19       1.0  0.75636  0.14198  0.10658  1.0000
  H   H20       1.0  0.25636  0.35802  0.39342  1.0000
  H   H21       1.0  0.43594  0.94228  0.59412  1.0000
  H   H22       1.0  0.93594  0.55772  0.90588  1.0000
  H   H23       1.0  0.56406  0.05772  0.40588  1.0000
  H   H24       1.0  0.06406  0.44228  0.09412  1.0000
  H   H25       1.0  0.53950  0.82670  0.66751  1.0000
  H   H26       1.0  0.03950  0.67331  0.83248  1.0000
  H   H27       1.0  0.46050  0.17330  0.33249  1.0000
  H   H28       1.0  0.96050  0.32669  0.16751  1.0000
  H   H29       1.0  0.03640  0.42416  0.61733  1.0000
  H   H30       1.0  0.53640  0.07584  0.88267  1.0000
  H   H31       1.0  0.96360  0.57584  0.38267  1.0000
  H   H32       1.0  0.46360  0.92416  0.11733  1.0000
  H   H33       1.0  0.24719  0.62622  0.70959  1.0000
  H   H34       1.0  0.74719  0.87378  0.79041  1.0000
  H   H35       1.0  0.75281  0.37378  0.29041  1.0000
  H   H36       1.0  0.25281  0.12622  0.20959  1.0000
  H   H37       1.0  0.45373  0.59448  0.68701  1.0000
  H   H38       1.0  0.95373  0.90552  0.81299  1.0000
  H   H39       1.0  0.54627  0.40552  0.31299  1.0000
  H   H40       1.0  0.04627  0.09448  0.18701  1.0000
  C   C1        1.0  0.18567  0.75665  0.54367  1.0000
  C   C2        1.0  0.68567  0.74336  0.95633  1.0000
  C   C3        1.0  0.81433  0.24335  0.45633  1.0000
  C   C4        1.0  0.31433  0.25664  0.04367  1.0000
  C   C5        1.0  0.41988  0.85984  0.64557  1.0000
  C   C6        1.0  0.91988  0.64016  0.85443  1.0000
  C   C7        1.0  0.58012  0.14016  0.35443  1.0000
  C   C8        1.0  0.08012  0.35984  0.14557  1.0000
  C   C9        1.0  0.33701  0.60024  0.65045  1.0000
  C   C10       1.0  0.83700  0.89976  0.84955  1.0000
  C   C11       1.0  0.66299  0.39976  0.34955  1.0000
  C   C12       1.0  0.16299  0.10024  0.15045  1.0000
  N   N1        1.0  0.34387  0.72498  0.58840  1.0000
  N   N2        1.0  0.84387  0.77502  0.91160  1.0000
  N   N3        1.0  0.65613  0.27502  0.41160  1.0000
  N   N4        1.0  0.15613  0.22498  0.08840  1.0000
  O   O1        1.0  0.03137  0.86707  0.39648  1.0000
  O   O2        1.0  0.53136  0.63293  0.10352  1.0000
  O   O3        1.0  0.96863  0.13293  0.60352  1.0000
  O   O4        1.0  0.46864  0.36707  0.89648  1.0000
  O   O5        1.0  0.23018  0.03880  0.49767  1.0000
  O   O6        1.0  0.73017  0.46120  0.00233  1.0000
  O   O7        1.0  0.76983  0.96120  0.50233  1.0000
  O   O8        1.0  0.26983  0.53880  0.99767  1.0000
  O   O9        1.0  0.34022  0.82681  0.37973  1.0000
  O   O10       1.0  0.84021  0.67319  0.12027  1.0000
  O   O11       1.0  0.65978  0.17320  0.62027  1.0000
  O   O12       1.0  0.15979  0.32681  0.87973  1.0000
  O   O13       1.0  0.44521  0.07741  0.78988  1.0000
  O   O14       1.0  0.94520  0.42260  0.71012  1.0000
  O   O15       1.0  0.55480  0.92260  0.21012  1.0000
  O   O16       1.0  0.05480  0.57740  0.28989  1.0000
  O   O17       1.0  0.31965  0.83697  0.83286  1.0000
  O   O18       1.0  0.81964  0.66303  0.66713  1.0000
  O   O19       1.0  0.68036  0.16303  0.16714  1.0000
  O   O20       1.0  0.18036  0.33697  0.33287  1.0000
  O   O21       1.0  0.15522  0.01026  0.74004  1.0000
  O   O22       1.0  0.65522  0.48974  0.75996  1.0000
  O   O23       1.0  0.84478  0.98974  0.25996  1.0000
  O   O24       1.0  0.34479  0.51026  0.24004  1.0000
  O   O25       1.0  0.11065  0.41711  0.55577  1.0000
  O   O26       1.0  0.61065  0.08289  0.94423  1.0000
  O   O27       1.0  0.88935  0.58289  0.44423  1.0000
  O   O28       1.0  0.38935  0.91711  0.05577  1.0000
  O   O29       1.0  0.32622  0.31684  0.66473  1.0000
  O   O30       1.0  0.82622  0.18317  0.83527  1.0000
  O   O31       1.0  0.67378  0.68317  0.33527  1.0000
  O   O32       1.0  0.17378  0.81684  0.16473  1.0000
  O   O33       1.0  0.37887  0.38433  0.48399  1.0000
  O   O34       1.0  0.87887  0.11567  0.01601  1.0000
  O   O35       1.0  0.62113  0.61567  0.51601  1.0000
  O   O36       1.0  0.12113  0.88433  0.98399  1.0000
