data_image0
_chemical_formula_structural       Cd2H36C48N4O8
_chemical_formula_sum              "Cd2 H36 C48 N4 O8"
_cell_length_a       9.84212
_cell_length_b       10.5067
_cell_length_c       12.15
_cell_angle_alpha    103.935
_cell_angle_beta     95.0399
_cell_angle_gamma    109.665

_space_group_name_H-M_alt    "P 1"
_space_group_IT_number       1

loop_
  _space_group_symop_operation_xyz
  'x, y, z'

loop_
  _atom_site_type_symbol
  _atom_site_label
  _atom_site_symmetry_multiplicity
  _atom_site_fract_x
  _atom_site_fract_y
  _atom_site_fract_z
  _atom_site_occupancy
  Cd  Cd1       1.0  0.91392  0.62753  0.59390  1.0000
  Cd  Cd2       1.0  0.08608  0.37247  0.40611  1.0000
  H   H1        1.0  0.06793  0.60900  0.82405  1.0000
  H   H2        1.0  0.93206  0.39100  0.17595  1.0000
  H   H3        1.0  0.12834  0.64635  0.03341  1.0000
  H   H4        1.0  0.87164  0.35364  0.96660  1.0000
  H   H5        1.0  0.28734  0.53320  0.10990  1.0000
  H   H6        1.0  0.71264  0.46679  0.89010  1.0000
  H   H7        1.0  0.38819  0.38633  0.97514  1.0000
  H   H8        1.0  0.61181  0.61367  0.02486  1.0000
  H   H9        1.0  0.32807  0.34911  0.76335  1.0000
  H   H10       1.0  0.67193  0.65089  0.23665  1.0000
  H   H11       1.0  0.93383  0.87689  0.99971  1.0000
  H   H12       1.0  0.06617  0.12311  0.00028  1.0000
  H   H13       1.0  0.82139  0.96908  0.16225  1.0000
  H   H14       1.0  0.17862  0.03091  0.83775  1.0000
  H   H15       1.0  0.55657  0.93540  0.12649  1.0000
  H   H16       1.0  0.44344  0.06459  0.87352  1.0000
  H   H17       1.0  0.40742  0.81730  0.92929  1.0000
  H   H18       1.0  0.59258  0.18269  0.07072  1.0000
  H   H19       1.0  0.52604  0.73931  0.76536  1.0000
  H   H20       1.0  0.47396  0.26069  0.23465  1.0000
  H   H21       1.0  0.85292  0.37839  0.71915  1.0000
  H   H22       1.0  0.14708  0.62162  0.28085  1.0000
  H   H23       1.0  0.64590  0.17306  0.73886  1.0000
  H   H24       1.0  0.35410  0.82695  0.26114  1.0000
  H   H25       1.0  0.36937  0.24335  0.47917  1.0000
  H   H26       1.0  0.63063  0.75665  0.52083  1.0000
  H   H27       1.0  0.58666  0.44568  0.47423  1.0000
  H   H28       1.0  0.41334  0.55432  0.52577  1.0000
  H   H29       1.0  0.49063  0.94341  0.65177  1.0000
  H   H30       1.0  0.50937  0.05659  0.34822  1.0000
  H   H31       1.0  0.26890  0.73559  0.64683  1.0000
  H   H32       1.0  0.73110  0.26441  0.35316  1.0000
  H   H33       1.0  0.98925  0.93699  0.58086  1.0000
  H   H34       1.0  0.01075  0.06301  0.41915  1.0000
  H   H35       1.0  0.19860  0.15659  0.58445  1.0000
  H   H36       1.0  0.80140  0.84342  0.41555  1.0000
  C   C1        1.0  0.15344  0.44563  0.65227  1.0000
  C   C2        1.0  0.84656  0.55438  0.34773  1.0000
  C   C3        1.0  0.19341  0.47481  0.77969  1.0000
  C   C4        1.0  0.80660  0.52520  0.22031  1.0000
  C   C5        1.0  0.13848  0.56010  0.85625  1.0000
  C   C6        1.0  0.86152  0.43990  0.14376  1.0000
  C   C7        1.0  0.17332  0.58167  0.97483  1.0000
  C   C8        1.0  0.82667  0.41833  0.02518  1.0000
  C   C9        1.0  0.26246  0.51879  0.01757  1.0000
  C   C10       1.0  0.73753  0.48120  0.98243  1.0000
  C   C11       1.0  0.31878  0.43532  0.94175  1.0000
  C   C12       1.0  0.68122  0.56468  0.05825  1.0000
  C   C13       1.0  0.28489  0.41381  0.82345  1.0000
  C   C14       1.0  0.71511  0.58619  0.17655  1.0000
  C   C15       1.0  0.80590  0.75288  0.77512  1.0000
  C   C16       1.0  0.19409  0.24712  0.22487  1.0000
  C   C17       1.0  0.73739  0.80531  0.87288  1.0000
  C   C18       1.0  0.26260  0.19469  0.12712  1.0000
  C   C19       1.0  0.81974  0.86794  0.98507  1.0000
  C   C20       1.0  0.18026  0.13206  0.01493  1.0000
  C   C21       1.0  0.75570  0.91728  0.07577  1.0000
  C   C22       1.0  0.24430  0.08272  0.92423  1.0000
  C   C23       1.0  0.60735  0.89856  0.05559  1.0000
  C   C24       1.0  0.39265  0.10143  0.94441  1.0000
  C   C25       1.0  0.52356  0.83325  0.94432  1.0000
  C   C26       1.0  0.47643  0.16674  0.05569  1.0000
  C   C27       1.0  0.58910  0.78914  0.85293  1.0000
  C   C28       1.0  0.41090  0.21086  0.14707  1.0000
  C   C29       1.0  0.74338  0.34398  0.66803  1.0000
  C   C30       1.0  0.25662  0.65602  0.33197  1.0000
  C   C31       1.0  0.62766  0.22915  0.67782  1.0000
  C   C32       1.0  0.37234  0.77085  0.32217  1.0000
  C   C33       1.0  0.48854  0.18971  0.61075  1.0000
  C   C34       1.0  0.51146  0.81029  0.38925  1.0000
  C   C35       1.0  0.47267  0.26923  0.53620  1.0000
  C   C36       1.0  0.52733  0.73077  0.46379  1.0000
  C   C37       1.0  0.59429  0.38224  0.53193  1.0000
  C   C38       1.0  0.40571  0.61776  0.46807  1.0000
  C   C39       1.0  0.36258  0.06653  0.61493  1.0000
  C   C40       1.0  0.63742  0.93347  0.38506  1.0000
  C   C41       1.0  0.38173  0.94762  0.63604  1.0000
  C   C42       1.0  0.61828  0.05238  0.36395  1.0000
  C   C43       1.0  0.25912  0.83096  0.63281  1.0000
  C   C44       1.0  0.74089  0.16904  0.36719  1.0000
  C   C45       1.0  0.10260  0.94305  0.59447  1.0000
  C   C46       1.0  0.89740  0.05696  0.40553  1.0000
  C   C47       1.0  0.21871  0.06391  0.59567  1.0000
  C   C48       1.0  0.78130  0.93609  0.40433  1.0000
  N   N1        1.0  0.72726  0.41933  0.59628  1.0000
  N   N2        1.0  0.27275  0.58067  0.40372  1.0000
  N   N3        1.0  0.12156  0.82741  0.61052  1.0000
  N   N4        1.0  0.87844  0.17260  0.38948  1.0000
  O   O1        1.0  0.07517  0.50512  0.61122  1.0000
  O   O2        1.0  0.92484  0.49489  0.38878  1.0000
  O   O3        1.0  0.19822  0.36091  0.58508  1.0000
  O   O4        1.0  0.80177  0.63909  0.41492  1.0000
  O   O5        1.0  0.91384  0.71591  0.79727  1.0000
  O   O6        1.0  0.08616  0.28409  0.20273  1.0000
  O   O7        1.0  0.75223  0.74488  0.67279  1.0000
  O   O8        1.0  0.24776  0.25512  0.32721  1.0000
