data_image0
_chemical_formula_structural       Nd4H36C40N4O28
_chemical_formula_sum              "Nd4 H36 C40 N4 O28"
_cell_length_a       8.80993
_cell_length_b       9.20934
_cell_length_c       15.6675
_cell_angle_alpha    90
_cell_angle_beta     90.0001
_cell_angle_gamma    98.9916

_space_group_name_H-M_alt    "P 1"
_space_group_IT_number       1

loop_
  _space_group_symop_operation_xyz
  'x, y, z'

loop_
  _atom_site_type_symbol
  _atom_site_label
  _atom_site_symmetry_multiplicity
  _atom_site_fract_x
  _atom_site_fract_y
  _atom_site_fract_z
  _atom_site_occupancy
  Nd  Nd1       1.0  0.96871  0.39519  0.11467  1.0000
  Nd  Nd2       1.0  0.53129  0.60481  0.61467  1.0000
  Nd  Nd3       1.0  0.03129  0.60481  0.88533  1.0000
  Nd  Nd4       1.0  0.46871  0.39519  0.38533  1.0000
  H   H1        1.0  0.49132  0.69908  0.09903  1.0000
  H   H2        1.0  0.00868  0.30092  0.59903  1.0000
  H   H3        1.0  0.50868  0.30092  0.90097  1.0000
  H   H4        1.0  0.99132  0.69908  0.40097  1.0000
  H   H5        1.0  0.39789  0.77371  0.01155  1.0000
  H   H6        1.0  0.10211  0.22630  0.51155  1.0000
  H   H7        1.0  0.60211  0.22630  0.98845  1.0000
  H   H8        1.0  0.89789  0.77370  0.48845  1.0000
  H   H9        1.0  0.41161  0.55349  0.92491  1.0000
  H   H10       1.0  0.08839  0.44651  0.42491  1.0000
  H   H11       1.0  0.58839  0.44651  0.07509  1.0000
  H   H12       1.0  0.91161  0.55349  0.57509  1.0000
  H   H13       1.0  0.59633  0.63571  0.95813  1.0000
  H   H14       1.0  0.90367  0.36429  0.45813  1.0000
  H   H15       1.0  0.40367  0.36429  0.04187  1.0000
  H   H16       1.0  0.09633  0.63571  0.54187  1.0000
  H   H17       1.0  0.70509  0.73152  0.21588  1.0000
  H   H18       1.0  0.79491  0.26848  0.71588  1.0000
  H   H19       1.0  0.29491  0.26848  0.78412  1.0000
  H   H20       1.0  0.20509  0.73152  0.28412  1.0000
  H   H21       1.0  0.89537  0.02466  0.01503  1.0000
  H   H22       1.0  0.60463  0.97534  0.51503  1.0000
  H   H23       1.0  0.10463  0.97534  0.98497  1.0000
  H   H24       1.0  0.39537  0.02466  0.48497  1.0000
  H   H25       1.0  0.61372  0.95036  0.28619  1.0000
  H   H26       1.0  0.88628  0.04963  0.78619  1.0000
  H   H27       1.0  0.38628  0.04963  0.71381  1.0000
  H   H28       1.0  0.11372  0.95037  0.21381  1.0000
  H   H29       1.0  0.91603  0.51532  0.29402  1.0000
  H   H30       1.0  0.58397  0.48468  0.79402  1.0000
  H   H31       1.0  0.08397  0.48468  0.70598  1.0000
  H   H32       1.0  0.41603  0.51532  0.20598  1.0000
  H   H33       1.0  0.08861  0.47715  0.28413  1.0000
  H   H34       1.0  0.41139  0.52285  0.78413  1.0000
  H   H35       1.0  0.91140  0.52285  0.71587  1.0000
  H   H36       1.0  0.58860  0.47715  0.21587  1.0000
  C   C1        1.0  0.26348  0.59162  0.07386  1.0000
  C   C2        1.0  0.23653  0.40838  0.57386  1.0000
  C   C3        1.0  0.73653  0.40838  0.92614  1.0000
  C   C4        1.0  0.76347  0.59162  0.42614  1.0000
  C   C5        1.0  0.41556  0.67184  0.04386  1.0000
  C   C6        1.0  0.08444  0.32816  0.54386  1.0000
  C   C7        1.0  0.58444  0.32817  0.95614  1.0000
  C   C8        1.0  0.91556  0.67184  0.45614  1.0000
  C   C9        1.0  0.48720  0.57338  0.98077  1.0000
  C   C10       1.0  0.01280  0.42662  0.48077  1.0000
  C   C11       1.0  0.51280  0.42663  0.01923  1.0000
  C   C12       1.0  0.98720  0.57338  0.51923  1.0000
  C   C13       1.0  0.85390  0.73254  0.06288  1.0000
  C   C14       1.0  0.64610  0.26746  0.56287  1.0000
  C   C15       1.0  0.14610  0.26746  0.93713  1.0000
  C   C16       1.0  0.35390  0.73254  0.43713  1.0000
  C   C17       1.0  0.80366  0.86108  0.10871  1.0000
  C   C18       1.0  0.69634  0.13892  0.60871  1.0000
  C   C19       1.0  0.19634  0.13892  0.89129  1.0000
  C   C20       1.0  0.30366  0.86108  0.39129  1.0000
  C   C21       1.0  0.72780  0.84077  0.18740  1.0000
  C   C22       1.0  0.77220  0.15923  0.68740  1.0000
  C   C23       1.0  0.27220  0.15923  0.81260  1.0000
  C   C24       1.0  0.22780  0.84077  0.31260  1.0000
  C   C25       1.0  0.66388  0.23352  0.22642  1.0000
  C   C26       1.0  0.83612  0.76647  0.72642  1.0000
  C   C27       1.0  0.33612  0.76647  0.77358  1.0000
  C   C28       1.0  0.16388  0.23352  0.27358  1.0000
  C   C29       1.0  0.83439  0.00365  0.07527  1.0000
  C   C30       1.0  0.66561  0.99635  0.57527  1.0000
  C   C31       1.0  0.16561  0.99635  0.92473  1.0000
  C   C32       1.0  0.33439  0.00365  0.42473  1.0000
  C   C33       1.0  0.71398  0.09853  0.18840  1.0000
  C   C34       1.0  0.78602  0.90147  0.68840  1.0000
  C   C35       1.0  0.28602  0.90148  0.81160  1.0000
  C   C36       1.0  0.21398  0.09853  0.31160  1.0000
  C   C37       1.0  0.67828  0.96068  0.22664  1.0000
  C   C38       1.0  0.82172  0.03932  0.72664  1.0000
  C   C39       1.0  0.32172  0.03932  0.77336  1.0000
  C   C40       1.0  0.17828  0.96068  0.27336  1.0000
  N   N1        1.0  0.79526  0.12082  0.11521  1.0000
  N   N2        1.0  0.70474  0.87918  0.61521  1.0000
  N   N3        1.0  0.20474  0.87918  0.88479  1.0000
  N   N4        1.0  0.29526  0.12082  0.38479  1.0000
  O   O1        1.0  0.71930  0.35609  0.19156  1.0000
  O   O2        1.0  0.78071  0.64391  0.69156  1.0000
  O   O3        1.0  0.28070  0.64391  0.80844  1.0000
  O   O4        1.0  0.21930  0.35609  0.30844  1.0000
  O   O5        1.0  0.00700  0.52268  0.25551  1.0000
  O   O6        1.0  0.49301  0.47732  0.75551  1.0000
  O   O7        1.0  0.99300  0.47732  0.74449  1.0000
  O   O8        1.0  0.50700  0.52268  0.24449  1.0000
  O   O9        1.0  0.84814  0.61587  0.10642  1.0000
  O   O10       1.0  0.65186  0.38413  0.60642  1.0000
  O   O11       1.0  0.15186  0.38413  0.89358  1.0000
  O   O12       1.0  0.34814  0.61587  0.39358  1.0000
  O   O13       1.0  0.25375  0.51280  0.14089  1.0000
  O   O14       1.0  0.24625  0.48720  0.64089  1.0000
  O   O15       1.0  0.74625  0.48720  0.85911  1.0000
  O   O16       1.0  0.75375  0.51280  0.35911  1.0000
  O   O17       1.0  0.14276  0.59554  0.02830  1.0000
  O   O18       1.0  0.35724  0.40446  0.52830  1.0000
  O   O19       1.0  0.85724  0.40446  0.97171  1.0000
  O   O20       1.0  0.64276  0.59554  0.47171  1.0000
  O   O21       1.0  0.89676  0.75062  0.98542  1.0000
  O   O22       1.0  0.60323  0.24938  0.48542  1.0000
  O   O23       1.0  0.10323  0.24938  0.01458  1.0000
  O   O24       1.0  0.39677  0.75062  0.51458  1.0000
  O   O25       1.0  0.56993  0.21812  0.28781  1.0000
  O   O26       1.0  0.93008  0.78188  0.78781  1.0000
  O   O27       1.0  0.43008  0.78188  0.71219  1.0000
  O   O28       1.0  0.06993  0.21812  0.21219  1.0000
