data_image0
_chemical_formula_structural       Sm4H36C40N4O28
_chemical_formula_sum              "Sm4 H36 C40 N4 O28"
_cell_length_a       8.78133
_cell_length_b       9.16832
_cell_length_c       15.51
_cell_angle_alpha    90.0001
_cell_angle_beta     89.9999
_cell_angle_gamma    99.1535

_space_group_name_H-M_alt    "P 1"
_space_group_IT_number       1

loop_
  _space_group_symop_operation_xyz
  'x, y, z'

loop_
  _atom_site_type_symbol
  _atom_site_label
  _atom_site_symmetry_multiplicity
  _atom_site_fract_x
  _atom_site_fract_y
  _atom_site_fract_z
  _atom_site_occupancy
  Sm  Sm1       1.0  0.96964  0.89599  0.11467  1.0000
  Sm  Sm2       1.0  0.53036  0.10400  0.61467  1.0000
  Sm  Sm3       1.0  0.03036  0.10400  0.88533  1.0000
  Sm  Sm4       1.0  0.46964  0.89600  0.38533  1.0000
  H   H1        1.0  0.49035  0.20145  0.09918  1.0000
  H   H2        1.0  0.00965  0.79855  0.59918  1.0000
  H   H3        1.0  0.50965  0.79855  0.90082  1.0000
  H   H4        1.0  0.99035  0.20145  0.40082  1.0000
  H   H5        1.0  0.39701  0.27466  0.01002  1.0000
  H   H6        1.0  0.10298  0.72534  0.51002  1.0000
  H   H7        1.0  0.60298  0.72534  0.98998  1.0000
  H   H8        1.0  0.89701  0.27466  0.48998  1.0000
  H   H9        1.0  0.41143  0.05265  0.92381  1.0000
  H   H10       1.0  0.08857  0.94735  0.42381  1.0000
  H   H11       1.0  0.58857  0.94735  0.07619  1.0000
  H   H12       1.0  0.91143  0.05265  0.57619  1.0000
  H   H13       1.0  0.59682  0.13619  0.95732  1.0000
  H   H14       1.0  0.90318  0.86381  0.45732  1.0000
  H   H15       1.0  0.40318  0.86381  0.04268  1.0000
  H   H16       1.0  0.09681  0.13619  0.54268  1.0000
  H   H17       1.0  0.70773  0.23115  0.21770  1.0000
  H   H18       1.0  0.79227  0.76885  0.71769  1.0000
  H   H19       1.0  0.29227  0.76885  0.78231  1.0000
  H   H20       1.0  0.20773  0.23115  0.28231  1.0000
  H   H21       1.0  0.89559  0.52455  0.01339  1.0000
  H   H22       1.0  0.60441  0.47545  0.51338  1.0000
  H   H23       1.0  0.10441  0.47545  0.98661  1.0000
  H   H24       1.0  0.39559  0.52455  0.48661  1.0000
  H   H25       1.0  0.61608  0.45104  0.28839  1.0000
  H   H26       1.0  0.88392  0.54897  0.78839  1.0000
  H   H27       1.0  0.38392  0.54897  0.71161  1.0000
  H   H28       1.0  0.11608  0.45103  0.21161  1.0000
  H   H29       1.0  0.91674  0.01475  0.29350  1.0000
  H   H30       1.0  0.58326  0.98525  0.79350  1.0000
  H   H31       1.0  0.08326  0.98525  0.70650  1.0000
  H   H32       1.0  0.41674  0.01475  0.20650  1.0000
  H   H33       1.0  0.09064  0.97768  0.28400  1.0000
  H   H34       1.0  0.40936  0.02232  0.78400  1.0000
  H   H35       1.0  0.90936  0.02232  0.71600  1.0000
  H   H36       1.0  0.59064  0.97768  0.21600  1.0000
  C   C1        1.0  0.26237  0.09167  0.07342  1.0000
  C   C2        1.0  0.23763  0.90833  0.57342  1.0000
  C   C3        1.0  0.73763  0.90833  0.92658  1.0000
  C   C4        1.0  0.76237  0.09167  0.42658  1.0000
  C   C5        1.0  0.41484  0.17293  0.04330  1.0000
  C   C6        1.0  0.08516  0.82707  0.54330  1.0000
  C   C7        1.0  0.58516  0.82707  0.95670  1.0000
  C   C8        1.0  0.91484  0.17293  0.45670  1.0000
  C   C9        1.0  0.48727  0.07342  0.98022  1.0000
  C   C10       1.0  0.01273  0.92658  0.48022  1.0000
  C   C11       1.0  0.51273  0.92658  0.01978  1.0000
  C   C12       1.0  0.98727  0.07342  0.51978  1.0000
  C   C13       1.0  0.85544  0.23133  0.06288  1.0000
  C   C14       1.0  0.64456  0.76867  0.56288  1.0000
  C   C15       1.0  0.14456  0.76867  0.93712  1.0000
  C   C16       1.0  0.35544  0.23133  0.43712  1.0000
  C   C17       1.0  0.80513  0.36066  0.10886  1.0000
  C   C18       1.0  0.69488  0.63934  0.60886  1.0000
  C   C19       1.0  0.19488  0.63934  0.89114  1.0000
  C   C20       1.0  0.30512  0.36066  0.39114  1.0000
  C   C21       1.0  0.73023  0.34070  0.18875  1.0000
  C   C22       1.0  0.76977  0.65930  0.68875  1.0000
  C   C23       1.0  0.26977  0.65930  0.81125  1.0000
  C   C24       1.0  0.23023  0.34070  0.31125  1.0000
  C   C25       1.0  0.66632  0.73530  0.22707  1.0000
  C   C26       1.0  0.83368  0.26470  0.72707  1.0000
  C   C27       1.0  0.33367  0.26470  0.77293  1.0000
  C   C28       1.0  0.16632  0.73530  0.27293  1.0000
  C   C29       1.0  0.83559  0.50370  0.07466  1.0000
  C   C30       1.0  0.66442  0.49630  0.57466  1.0000
  C   C31       1.0  0.16441  0.49630  0.92534  1.0000
  C   C32       1.0  0.33558  0.50370  0.42534  1.0000
  C   C33       1.0  0.71612  0.59943  0.18910  1.0000
  C   C34       1.0  0.78388  0.40058  0.68910  1.0000
  C   C35       1.0  0.28388  0.40057  0.81090  1.0000
  C   C36       1.0  0.21612  0.59942  0.31090  1.0000
  C   C37       1.0  0.68064  0.46120  0.22815  1.0000
  C   C38       1.0  0.81936  0.53880  0.72815  1.0000
  C   C39       1.0  0.31936  0.53880  0.77185  1.0000
  C   C40       1.0  0.18064  0.46120  0.27185  1.0000
  N   N1        1.0  0.79739  0.62174  0.11504  1.0000
  N   N2        1.0  0.70261  0.37825  0.61503  1.0000
  N   N3        1.0  0.20261  0.37825  0.88496  1.0000
  N   N4        1.0  0.29739  0.62174  0.38497  1.0000
  O   O1        1.0  0.72320  0.85794  0.19157  1.0000
  O   O2        1.0  0.77679  0.14206  0.69157  1.0000
  O   O3        1.0  0.27680  0.14207  0.80843  1.0000
  O   O4        1.0  0.22320  0.85793  0.30843  1.0000
  O   O5        1.0  0.00826  0.02213  0.25483  1.0000
  O   O6        1.0  0.49174  0.97787  0.75483  1.0000
  O   O7        1.0  0.99174  0.97787  0.74517  1.0000
  O   O8        1.0  0.50826  0.02213  0.24517  1.0000
  O   O9        1.0  0.85132  0.11517  0.10757  1.0000
  O   O10       1.0  0.64868  0.88483  0.60756  1.0000
  O   O11       1.0  0.14868  0.88483  0.89244  1.0000
  O   O12       1.0  0.35132  0.11517  0.39244  1.0000
  O   O13       1.0  0.25258  0.01236  0.14103  1.0000
  O   O14       1.0  0.24742  0.98764  0.64103  1.0000
  O   O15       1.0  0.74742  0.98764  0.85897  1.0000
  O   O16       1.0  0.75258  0.01236  0.35897  1.0000
  O   O17       1.0  0.14111  0.09456  0.02737  1.0000
  O   O18       1.0  0.35889  0.90544  0.52737  1.0000
  O   O19       1.0  0.85889  0.90544  0.97263  1.0000
  O   O20       1.0  0.64111  0.09456  0.47263  1.0000
  O   O21       1.0  0.89709  0.24848  0.98434  1.0000
  O   O22       1.0  0.60291  0.75152  0.48434  1.0000
  O   O23       1.0  0.10291  0.75152  0.01567  1.0000
  O   O24       1.0  0.39709  0.24848  0.51566  1.0000
  O   O25       1.0  0.57159  0.72075  0.28887  1.0000
  O   O26       1.0  0.92841  0.27925  0.78887  1.0000
  O   O27       1.0  0.42841  0.27925  0.71112  1.0000
  O   O28       1.0  0.07159  0.72074  0.21113  1.0000
