data_image0
_chemical_formula_structural       Zn2H56C62N4O8
_chemical_formula_sum              "Zn2 H56 C62 N4 O8"
_cell_length_a       8.51747
_cell_length_b       10.9389
_cell_length_c       14.3879
_cell_angle_alpha    102.299
_cell_angle_beta     107.213
_cell_angle_gamma    90.0067

_space_group_name_H-M_alt    "P 1"
_space_group_IT_number       1

loop_
  _space_group_symop_operation_xyz
  'x, y, z'

loop_
  _atom_site_type_symbol
  _atom_site_label
  _atom_site_symmetry_multiplicity
  _atom_site_fract_x
  _atom_site_fract_y
  _atom_site_fract_z
  _atom_site_occupancy
  Zn  Zn1       1.0  0.71735  0.16918  0.68355  1.0000
  Zn  Zn2       1.0  0.96623  0.66912  0.68356  1.0000
  H   H1        1.0  0.69832  0.83428  0.36350  1.0000
  H   H2        1.0  0.66485  0.33418  0.36356  1.0000
  H   H3        1.0  0.89373  0.21653  0.44430  1.0000
  H   H4        1.0  0.55090  0.71655  0.44445  1.0000
  H   H5        1.0  0.95481  0.19320  0.28209  1.0000
  H   H6        1.0  0.32780  0.69347  0.28222  1.0000
  H   H7        1.0  0.97986  0.12020  0.10027  1.0000
  H   H8        1.0  0.12078  0.62057  0.10026  1.0000
  H   H9        1.0  0.98158  0.00708  0.93094  1.0000
  H   H10       1.0  0.94928  0.50734  0.93107  1.0000
  H   H11       1.0  0.79504  0.66524  0.97466  1.0000
  H   H12       1.0  0.17927  0.16544  0.97474  1.0000
  H   H13       1.0  0.86441  0.59565  0.13756  1.0000
  H   H14       1.0  0.27281  0.09589  0.13774  1.0000
  H   H15       1.0  0.01026  0.70872  0.22682  1.0000
  H   H16       1.0  0.21661  0.20904  0.22712  1.0000
  H   H17       1.0  0.72658  0.57844  0.26733  1.0000
  H   H18       1.0  0.54066  0.07858  0.26730  1.0000
  H   H19       1.0  0.87459  0.69001  0.35581  1.0000
  H   H20       1.0  0.48135  0.19013  0.35587  1.0000
  H   H21       1.0  0.95030  0.47391  0.37108  1.0000
  H   H22       1.0  0.42045  0.97408  0.37112  1.0000
  H   H23       1.0  0.10112  0.55019  0.33573  1.0000
  H   H24       1.0  0.23450  0.05065  0.33580  1.0000
  H   H25       1.0  0.95565  0.43632  0.24532  1.0000
  H   H26       1.0  0.28930  0.93669  0.24536  1.0000
  H   H27       1.0  0.53932  0.70078  0.17908  1.0000
  H   H28       1.0  0.63953  0.20090  0.17909  1.0000
  H   H29       1.0  0.57679  0.65018  0.06314  1.0000
  H   H30       1.0  0.48604  0.15005  0.06322  1.0000
  H   H31       1.0  0.48052  0.91215  0.14618  1.0000
  H   H32       1.0  0.66500  0.41216  0.14588  1.0000
  H   H33       1.0  0.54223  0.87528  0.03826  1.0000
  H   H34       1.0  0.49565  0.37486  0.03786  1.0000
  H   H35       1.0  0.24235  0.86313  0.98607  1.0000
  H   H36       1.0  0.74387  0.36274  0.98612  1.0000
  H   H37       1.0  0.23244  0.76438  0.06643  1.0000
  H   H38       1.0  0.83381  0.26415  0.06672  1.0000
  H   H39       1.0  0.30109  0.70676  0.96150  1.0000
  H   H40       1.0  0.66052  0.20639  0.96162  1.0000
  H   H41       1.0  0.60245  0.34264  0.53499  1.0000
  H   H42       1.0  0.93266  0.84269  0.53490  1.0000
  H   H43       1.0  0.33703  0.43667  0.46001  1.0000
  H   H44       1.0  0.12329  0.93663  0.45998  1.0000
  H   H45       1.0  0.08445  0.38070  0.50485  1.0000
  H   H46       1.0  0.42071  0.88074  0.50498  1.0000
  H   H47       1.0  0.10216  0.22886  0.61160  1.0000
  H   H48       1.0  0.50954  0.72896  0.61180  1.0000
  H   H49       1.0  0.14456  0.11225  0.71543  1.0000
  H   H50       1.0  0.57096  0.61247  0.71537  1.0000
  H   H51       1.0  0.20869  0.96317  0.82545  1.0000
  H   H52       1.0  0.61689  0.46312  0.82514  1.0000
  H   H53       1.0  0.50011  0.89195  0.87663  1.0000
  H   H54       1.0  0.37677  0.39166  0.87634  1.0000
  H   H55       1.0  0.71007  0.97681  0.81110  1.0000
  H   H56       1.0  0.10130  0.47666  0.81114  1.0000
  C   C1        1.0  0.76011  0.90922  0.34553  1.0000
  C   C2        1.0  0.58537  0.40923  0.34551  1.0000
  C   C3        1.0  0.79953  0.02539  0.41432  1.0000
  C   C4        1.0  0.61479  0.52535  0.41432  1.0000
  C   C5        1.0  0.87068  0.12642  0.39121  1.0000
  C   C6        1.0  0.52080  0.62649  0.39130  1.0000
  C   C7        1.0  0.90371  0.11313  0.30038  1.0000
  C   C8        1.0  0.39710  0.61332  0.30043  1.0000
  C   C9        1.0  0.94023  0.02105  0.07393  1.0000
  C   C10       1.0  0.13405  0.52141  0.07396  1.0000
  C   C11       1.0  0.94235  0.95781  0.97954  1.0000
  C   C12       1.0  0.03724  0.45811  0.97963  1.0000
  C   C13       1.0  0.89286  0.82937  0.94465  1.0000
  C   C14       1.0  0.05158  0.32963  0.94474  1.0000
  C   C15       1.0  0.83591  0.76414  0.00384  1.0000
  C   C16       1.0  0.16778  0.26440  0.00386  1.0000
  C   C17       1.0  0.77108  0.77744  0.17217  1.0000
  C   C18       1.0  0.40092  0.27759  0.17217  1.0000
  C   C19       1.0  0.79799  0.89372  0.25649  1.0000
  C   C20       1.0  0.45854  0.39386  0.25645  1.0000
  C   C21       1.0  0.86823  0.99623  0.23316  1.0000
  C   C22       1.0  0.36528  0.49648  0.23315  1.0000
  C   C23       1.0  0.88676  0.95540  0.13359  1.0000
  C   C24       1.0  0.24720  0.45573  0.13357  1.0000
  C   C25       1.0  0.83266  0.82737  0.09749  1.0000
  C   C26       1.0  0.26478  0.32762  0.09748  1.0000
  C   C27       1.0  0.75861  0.04154  0.51040  1.0000
  C   C28       1.0  0.75175  0.54137  0.51037  1.0000
  C   C29       1.0  0.90813  0.76037  0.84685  1.0000
  C   C30       1.0  0.93843  0.26057  0.84697  1.0000
  C   C31       1.0  0.88088  0.67155  0.20446  1.0000
  C   C32       1.0  0.32345  0.17181  0.20460  1.0000
  C   C33       1.0  0.85484  0.61603  0.28771  1.0000
  C   C34       1.0  0.43286  0.11622  0.28776  1.0000
  C   C35       1.0  0.97184  0.51315  0.31140  1.0000
  C   C36       1.0  0.33938  0.01344  0.31146  1.0000
  C   C37       1.0  0.58648  0.73290  0.12433  1.0000
  C   C38       1.0  0.53756  0.23286  0.12430  1.0000
  C   C39       1.0  0.48172  0.83468  0.08363  1.0000
  C   C40       1.0  0.60153  0.33447  0.08344  1.0000
  C   C41       1.0  0.30551  0.78960  0.02117  1.0000
  C   C42       1.0  0.71564  0.28929  0.02125  1.0000
  C   C43       1.0  0.48827  0.32090  0.54976  1.0000
  C   C44       1.0  0.06160  0.82093  0.54972  1.0000
  C   C45       1.0  0.34084  0.37219  0.50871  1.0000
  C   C46       1.0  0.16811  0.87217  0.50871  1.0000
  C   C47       1.0  0.20137  0.33990  0.53250  1.0000
  C   C48       1.0  0.33139  0.83997  0.53261  1.0000
  C   C49       1.0  0.21210  0.25628  0.59481  1.0000
  C   C50       1.0  0.38282  0.75639  0.59496  1.0000
  C   C51       1.0  0.36459  0.20944  0.63403  1.0000
  C   C52       1.0  0.26947  0.70960  0.63414  1.0000
  C   C53       1.0  0.39259  0.12296  0.70312  1.0000
  C   C54       1.0  0.31064  0.62314  0.70321  1.0000
  C   C55       1.0  0.26912  0.08139  0.73742  1.0000
  C   C56       1.0  0.46841  0.58154  0.73736  1.0000
  C   C57       1.0  0.30610  0.99780  0.80058  1.0000
  C   C58       1.0  0.49464  0.49779  0.80041  1.0000
  C   C59       1.0  0.46575  0.95801  0.82819  1.0000
  C   C60       1.0  0.36266  0.45787  0.82803  1.0000
  C   C61       1.0  0.58340  0.00406  0.79220  1.0000
  C   C62       1.0  0.20900  0.50397  0.79217  1.0000
  N   N1        1.0  0.49907  0.24291  0.61118  1.0000
  N   N2        1.0  0.11214  0.74301  0.61123  1.0000
  N   N3        1.0  0.54752  0.08455  0.73165  1.0000
  N   N4        1.0  0.18427  0.58459  0.73173  1.0000
  O   O1        1.0  0.66380  0.96212  0.52184  1.0000
  O   O2        1.0  0.85791  0.46186  0.52177  1.0000
  O   O3        1.0  0.82640  0.14149  0.57846  1.0000
  O   O4        1.0  0.75219  0.64133  0.57844  1.0000
  O   O5        1.0  0.87053  0.64322  0.81713  1.0000
  O   O6        1.0  0.94623  0.14338  0.81735  1.0000
  O   O7        1.0  0.96398  0.82215  0.79483  1.0000
  O   O8        1.0  0.83071  0.32231  0.79487  1.0000
