data_image0
_chemical_formula_structural       Mg2H20C8O16
_chemical_formula_sum              "Mg2 H20 C8 O16"
_cell_length_a       5.30462
_cell_length_b       6.91181
_cell_length_c       12.5515
_cell_angle_alpha    89.6808
_cell_angle_beta     89.1429
_cell_angle_gamma    67.4544

_space_group_name_H-M_alt    "P 1"
_space_group_IT_number       1

loop_
  _space_group_symop_operation_xyz
  'x, y, z'

loop_
  _atom_site_type_symbol
  _atom_site_label
  _atom_site_symmetry_multiplicity
  _atom_site_fract_x
  _atom_site_fract_y
  _atom_site_fract_z
  _atom_site_occupancy
  Mg  Mg1       1.0  0.46762  0.06474  0.25006  1.0000
  Mg  Mg2       1.0  0.53238  0.93525  0.74995  1.0000
  H   H1        1.0  0.21328  0.61458  0.45283  1.0000
  H   H2        1.0  0.82805  0.38565  0.95237  1.0000
  H   H3        1.0  0.78666  0.38541  0.54716  1.0000
  H   H4        1.0  0.17198  0.61436  0.04763  1.0000
  H   H5        1.0  0.90980  0.11320  0.34905  1.0000
  H   H6        1.0  0.02271  0.88693  0.84901  1.0000
  H   H7        1.0  0.09019  0.88680  0.65095  1.0000
  H   H8        1.0  0.97730  0.11308  0.15099  1.0000
  H   H9        1.0  0.80648  0.93957  0.40031  1.0000
  H   H10       1.0  0.74587  0.06035  0.90038  1.0000
  H   H11       1.0  0.19352  0.06042  0.59969  1.0000
  H   H12       1.0  0.25415  0.93966  0.09962  1.0000
  H   H13       1.0  0.04311  0.43075  0.31641  1.0000
  H   H14       1.0  0.47394  0.56952  0.81633  1.0000
  H   H15       1.0  0.95690  0.56927  0.68359  1.0000
  H   H16       1.0  0.52607  0.43048  0.18367  1.0000
  H   H17       1.0  0.18020  0.29239  0.41798  1.0000
  H   H18       1.0  0.47239  0.70789  0.91797  1.0000
  H   H19       1.0  0.81978  0.70761  0.58201  1.0000
  H   H20       1.0  0.52763  0.29211  0.08203  1.0000
  C   C1        1.0  0.53882  0.72974  0.42272  1.0000
  C   C2        1.0  0.26864  0.27057  0.92264  1.0000
  C   C3        1.0  0.46116  0.27030  0.57726  1.0000
  C   C4        1.0  0.73139  0.72944  0.07737  1.0000
  C   C5        1.0  0.42589  0.58297  0.47067  1.0000
  C   C6        1.0  0.00895  0.41716  0.97048  1.0000
  C   C7        1.0  0.57408  0.41695  0.52934  1.0000
  C   C8        1.0  0.99107  0.58285  0.02952  1.0000
  O   O1        1.0  0.40843  0.83999  0.34519  1.0000
  O   O2        1.0  0.24866  0.16055  0.84493  1.0000
  O   O3        1.0  0.59146  0.16006  0.65478  1.0000
  O   O4        1.0  0.75135  0.83944  0.15508  1.0000
  O   O5        1.0  0.76126  0.73582  0.45904  1.0000
  O   O6        1.0  0.49717  0.26401  0.95910  1.0000
  O   O7        1.0  0.23876  0.26415  0.54098  1.0000
  O   O8        1.0  0.50286  0.73600  0.04090  1.0000
  O   O9        1.0  0.75319  0.07243  0.35826  1.0000
  O   O10       1.0  0.82541  0.92759  0.85823  1.0000
  O   O11       1.0  0.24680  0.92757  0.64175  1.0000
  O   O12       1.0  0.17461  0.07242  0.14177  1.0000
  O   O13       1.0  0.14127  0.28660  0.33878  1.0000
  O   O14       1.0  0.42751  0.71370  0.83878  1.0000
  O   O15       1.0  0.85873  0.71340  0.66121  1.0000
  O   O16       1.0  0.57251  0.28630  0.16123  1.0000
