data_image0
_chemical_formula_structural       Ca2H40C32N20O16
_chemical_formula_sum              "Ca2 H40 C32 N20 O16"
_cell_length_a       7.78578
_cell_length_b       11.811
_cell_length_c       11.811
_cell_angle_alpha    85.3627
_cell_angle_beta     90.52
_cell_angle_gamma    90.5197

_space_group_name_H-M_alt    "P 1"
_space_group_IT_number       1

loop_
  _space_group_symop_operation_xyz
  'x, y, z'

loop_
  _atom_site_type_symbol
  _atom_site_label
  _atom_site_symmetry_multiplicity
  _atom_site_fract_x
  _atom_site_fract_y
  _atom_site_fract_z
  _atom_site_occupancy
  Ca  Ca1       1.0  0.25000  0.01353  0.98647  1.0000
  Ca  Ca2       1.0  0.75000  0.98647  0.01353  1.0000
  H   H1        1.0  0.54154  0.14701  0.86065  1.0000
  H   H2        1.0  0.95845  0.13935  0.85299  1.0000
  H   H3        1.0  0.45846  0.85299  0.13935  1.0000
  H   H4        1.0  0.04155  0.86065  0.14701  1.0000
  H   H5        1.0  0.54248  0.18136  0.99249  1.0000
  H   H6        1.0  0.95752  0.00751  0.81864  1.0000
  H   H7        1.0  0.45752  0.81864  0.00751  1.0000
  H   H8        1.0  0.04248  0.99248  0.18136  1.0000
  H   H9        1.0  0.24118  0.22337  0.08105  1.0000
  H   H10       1.0  0.25882  0.91894  0.77663  1.0000
  H   H11       1.0  0.75882  0.77663  0.91894  1.0000
  H   H12       1.0  0.74118  0.08105  0.22337  1.0000
  H   H13       1.0  0.04957  0.20606  0.03803  1.0000
  H   H14       1.0  0.45043  0.96197  0.79394  1.0000
  H   H15       1.0  0.95043  0.79394  0.96197  1.0000
  H   H16       1.0  0.54957  0.03803  0.20606  1.0000
  H   H17       1.0  0.44778  0.51678  0.57032  1.0000
  H   H18       1.0  0.05222  0.42968  0.48322  1.0000
  H   H19       1.0  0.55222  0.48322  0.42968  1.0000
  H   H20       1.0  0.94779  0.57032  0.51678  1.0000
  H   H21       1.0  0.27061  0.65615  0.65552  1.0000
  H   H22       1.0  0.22939  0.34447  0.34386  1.0000
  H   H23       1.0  0.72939  0.34386  0.34447  1.0000
  H   H24       1.0  0.77061  0.65553  0.65614  1.0000
  H   H25       1.0  0.22195  0.44934  0.95717  1.0000
  H   H26       1.0  0.27804  0.04283  0.55067  1.0000
  H   H27       1.0  0.77804  0.55066  0.04283  1.0000
  H   H28       1.0  0.72196  0.95717  0.44933  1.0000
  H   H29       1.0  0.38909  0.29663  0.88083  1.0000
  H   H30       1.0  0.11090  0.11917  0.70337  1.0000
  H   H31       1.0  0.61090  0.70337  0.11917  1.0000
  H   H32       1.0  0.88910  0.88083  0.29663  1.0000
  H   H33       1.0  0.05564  0.60390  0.92329  1.0000
  H   H34       1.0  0.44436  0.07671  0.39610  1.0000
  H   H35       1.0  0.94436  0.39610  0.07671  1.0000
  H   H36       1.0  0.55564  0.92329  0.60390  1.0000
  H   H37       1.0  0.05338  0.68233  0.78850  1.0000
  H   H38       1.0  0.44662  0.21150  0.31767  1.0000
  H   H39       1.0  0.94662  0.31767  0.21150  1.0000
  H   H40       1.0  0.55338  0.78850  0.68233  1.0000
  C   C1        1.0  0.52848  0.30288  0.66659  1.0000
  C   C2        1.0  0.97151  0.33341  0.69712  1.0000
  C   C3        1.0  0.47152  0.69712  0.33341  1.0000
  C   C4        1.0  0.02849  0.66659  0.30288  1.0000
  C   C5        1.0  0.43701  0.39160  0.71787  1.0000
  C   C6        1.0  0.06299  0.28213  0.60840  1.0000
  C   C7        1.0  0.56299  0.60840  0.28212  1.0000
  C   C8        1.0  0.93701  0.71788  0.39160  1.0000
  C   C9        1.0  0.40252  0.49608  0.65614  1.0000
  C   C10       1.0  0.09748  0.34386  0.50392  1.0000
  C   C11       1.0  0.59748  0.50392  0.34386  1.0000
  C   C12       1.0  0.90253  0.65614  0.49608  1.0000
  C   C13       1.0  0.30381  0.57604  0.70264  1.0000
  C   C14       1.0  0.19619  0.29736  0.42396  1.0000
  C   C15       1.0  0.69619  0.42396  0.29736  1.0000
  C   C16       1.0  0.80381  0.70264  0.57604  1.0000
  C   C17       1.0  0.27580  0.45891  0.87228  1.0000
  C   C18       1.0  0.22419  0.12771  0.54110  1.0000
  C   C19       1.0  0.72420  0.54110  0.12771  1.0000
  C   C20       1.0  0.77580  0.87228  0.45890  1.0000
  C   C21       1.0  0.37157  0.37543  0.82859  1.0000
  C   C22       1.0  0.12843  0.17141  0.62457  1.0000
  C   C23       1.0  0.62843  0.62457  0.17141  1.0000
  C   C24       1.0  0.87157  0.82859  0.37543  1.0000
  C   C25       1.0  0.13697  0.64388  0.85597  1.0000
  C   C26       1.0  0.36303  0.14403  0.35613  1.0000
  C   C27       1.0  0.86303  0.35613  0.14403  1.0000
  C   C28       1.0  0.63697  0.85597  0.64387  1.0000
  C   C29       1.0  0.24481  0.73672  0.90698  1.0000
  C   C30       1.0  0.25520  0.09302  0.26328  1.0000
  C   C31       1.0  0.75520  0.26328  0.09302  1.0000
  C   C32       1.0  0.74481  0.90698  0.73672  1.0000
  N   N1        1.0  0.57908  0.30996  0.55685  1.0000
  N   N2        1.0  0.92092  0.44315  0.69004  1.0000
  N   N3        1.0  0.42092  0.69004  0.44315  1.0000
  N   N4        1.0  0.07908  0.55685  0.30996  1.0000
  N   N5        1.0  0.64936  0.20939  0.54227  1.0000
  N   N6        1.0  0.85064  0.45773  0.79060  1.0000
  N   N7        1.0  0.35064  0.79060  0.45773  1.0000
  N   N8        1.0  0.14936  0.54227  0.20940  1.0000
  N   N9        1.0  0.64196  0.14286  0.63991  1.0000
  N   N10       1.0  0.85804  0.36009  0.85713  1.0000
  N   N11       1.0  0.35804  0.85714  0.36009  1.0000
  N   N12       1.0  0.14196  0.63991  0.14286  1.0000
  N   N13       1.0  0.56686  0.19977  0.71883  1.0000
  N   N14       1.0  0.93313  0.28117  0.80023  1.0000
  N   N15       1.0  0.43314  0.80023  0.28117  1.0000
  N   N16       1.0  0.06686  0.71883  0.19977  1.0000
  N   N17       1.0  0.24038  0.55679  0.80911  1.0000
  N   N18       1.0  0.25962  0.19089  0.44321  1.0000
  N   N19       1.0  0.75962  0.44321  0.19089  1.0000
  N   N20       1.0  0.74039  0.80911  0.55679  1.0000
  O   O1        1.0  0.15628  0.82076  0.93405  1.0000
  O   O2        1.0  0.34372  0.06595  0.17924  1.0000
  O   O3        1.0  0.84372  0.17924  0.06595  1.0000
  O   O4        1.0  0.65628  0.93405  0.82076  1.0000
  O   O5        1.0  0.40487  0.72599  0.91602  1.0000
  O   O6        1.0  0.09513  0.08398  0.27401  1.0000
  O   O7        1.0  0.59513  0.27401  0.08398  1.0000
  O   O8        1.0  0.90487  0.91602  0.72599  1.0000
  O   O9        1.0  0.52007  0.11740  0.94238  1.0000
  O   O10       1.0  0.97993  0.05762  0.88260  1.0000
  O   O11       1.0  0.47993  0.88260  0.05762  1.0000
  O   O12       1.0  0.02007  0.94238  0.11740  1.0000
  O   O13       1.0  0.17281  0.21259  0.01329  1.0000
  O   O14       1.0  0.32719  0.98671  0.78741  1.0000
  O   O15       1.0  0.82719  0.78741  0.98671  1.0000
  O   O16       1.0  0.67281  0.01329  0.21259  1.0000
