data_image0
_chemical_formula_structural       Tl8H24C36O28
_chemical_formula_sum              "Tl8 H24 C36 O28"
_cell_length_a       4.14117
_cell_length_b       16.4769
_cell_length_c       17.568
_cell_angle_alpha    89.9997
_cell_angle_beta     89.9998
_cell_angle_gamma    100.742

_space_group_name_H-M_alt    "P 1"
_space_group_IT_number       1

loop_
  _space_group_symop_operation_xyz
  'x, y, z'

loop_
  _atom_site_type_symbol
  _atom_site_label
  _atom_site_symmetry_multiplicity
  _atom_site_fract_x
  _atom_site_fract_y
  _atom_site_fract_z
  _atom_site_occupancy
  Tl  Tl1       1.0  0.20362  0.31071  0.60926  1.0000
  Tl  Tl2       1.0  0.79620  0.18927  0.10926  1.0000
  Tl  Tl3       1.0  0.79636  0.68929  0.39074  1.0000
  Tl  Tl4       1.0  0.20373  0.81071  0.89075  1.0000
  Tl  Tl5       1.0  0.18764  0.55641  0.88971  1.0000
  Tl  Tl6       1.0  0.81239  0.94361  0.38970  1.0000
  Tl  Tl7       1.0  0.81229  0.44358  0.11031  1.0000
  Tl  Tl8       1.0  0.18762  0.05639  0.61032  1.0000
  H   H1        1.0  0.32999  0.47397  0.54812  1.0000
  H   H2        1.0  0.66999  0.02600  0.04810  1.0000
  H   H3        1.0  0.66999  0.52602  0.45186  1.0000
  H   H4        1.0  0.33000  0.97399  0.95183  1.0000
  H   H5        1.0  0.65847  0.42259  0.76649  1.0000
  H   H6        1.0  0.34154  0.07746  0.26651  1.0000
  H   H7        1.0  0.34143  0.57741  0.23353  1.0000
  H   H8        1.0  0.65854  0.92256  0.73351  1.0000
  H   H9        1.0  0.54988  0.42874  0.85229  1.0000
  H   H10       1.0  0.45004  0.07125  0.35232  1.0000
  H   H11       1.0  0.45010  0.57126  0.14773  1.0000
  H   H12       1.0  0.54997  0.92874  0.64771  1.0000
  H   H13       1.0  0.70763  0.59120  0.71277  1.0000
  H   H14       1.0  0.29257  0.90882  0.21271  1.0000
  H   H15       1.0  0.29236  0.40877  0.28723  1.0000
  H   H16       1.0  0.70748  0.09123  0.78725  1.0000
  H   H17       1.0  0.96851  0.85020  0.65949  1.0000
  H   H18       1.0  0.03165  0.64981  0.15949  1.0000
  H   H19       1.0  0.03141  0.14978  0.34053  1.0000
  H   H20       1.0  0.96840  0.35022  0.84054  1.0000
  H   H21       1.0  0.31933  0.67244  0.51836  1.0000
  H   H22       1.0  0.68075  0.82754  0.01834  1.0000
  H   H23       1.0  0.68066  0.32756  0.48165  1.0000
  H   H24       1.0  0.31922  0.17244  0.98165  1.0000
  C   C1        1.0  0.06393  0.53724  0.60183  1.0000
  C   C2        1.0  0.93623  0.96276  0.10179  1.0000
  C   C3        1.0  0.93611  0.46276  0.39817  1.0000
  C   C4        1.0  0.06383  0.03725  0.89816  1.0000
  C   C5        1.0  0.02157  0.62308  0.61452  1.0000
  C   C6        1.0  0.97861  0.87692  0.11449  1.0000
  C   C7        1.0  0.97845  0.37692  0.38548  1.0000
  C   C8        1.0  0.02143  0.12308  0.88549  1.0000
  C   C9        1.0  0.83022  0.64076  0.67588  1.0000
  C   C10       1.0  0.16998  0.85925  0.17585  1.0000
  C   C11       1.0  0.16972  0.35923  0.32412  1.0000
  C   C12       1.0  0.83016  0.14077  0.82413  1.0000
  C   C13       1.0  0.80970  0.72277  0.69124  1.0000
  C   C14       1.0  0.19046  0.77725  0.19124  1.0000
  C   C15       1.0  0.19028  0.27722  0.30876  1.0000
  C   C16       1.0  0.80959  0.22277  0.80877  1.0000
  C   C17       1.0  0.97685  0.78635  0.64508  1.0000
  C   C18       1.0  0.02330  0.71366  0.14509  1.0000
  C   C19       1.0  0.02315  0.21363  0.35493  1.0000
  C   C20       1.0  0.97676  0.28636  0.85493  1.0000
  C   C21       1.0  0.14963  0.76858  0.58072  1.0000
  C   C22       1.0  0.85049  0.73141  0.08072  1.0000
  C   C23       1.0  0.85032  0.23140  0.41929  1.0000
  C   C24       1.0  0.14954  0.26859  0.91929  1.0000
  C   C25       1.0  0.17344  0.68658  0.56635  1.0000
  C   C26       1.0  0.82665  0.81340  0.06632  1.0000
  C   C27       1.0  0.82650  0.31341  0.43366  1.0000
  C   C28       1.0  0.17337  0.18658  0.93366  1.0000
  C   C29       1.0  0.61742  0.74402  0.75861  1.0000
  C   C30       1.0  0.38277  0.75601  0.25860  1.0000
  C   C31       1.0  0.38261  0.25596  0.24140  1.0000
  C   C32       1.0  0.61723  0.24403  0.74142  1.0000
  C   C33       1.0  0.30915  0.83593  0.52724  1.0000
  C   C34       1.0  0.69100  0.66405  0.02724  1.0000
  C   C35       1.0  0.69083  0.16407  0.47278  1.0000
  C   C36       1.0  0.30907  0.33593  0.97277  1.0000
  O   O1        1.0  0.90450  0.47549  0.63223  1.0000
  O   O2        1.0  0.09562  0.02453  0.13217  1.0000
  O   O3        1.0  0.09545  0.52450  0.36775  1.0000
  O   O4        1.0  0.90444  0.97550  0.86775  1.0000
  O   O5        1.0  0.30715  0.53209  0.55072  1.0000
  O   O6        1.0  0.69288  0.96789  0.05068  1.0000
  O   O7        1.0  0.69279  0.46791  0.44927  1.0000
  O   O8        1.0  0.30714  0.03210  0.94926  1.0000
  O   O9        1.0  0.40005  0.68898  0.78820  1.0000
  O   O10       1.0  0.60010  0.81106  0.28817  1.0000
  O   O11       1.0  0.59988  0.31102  0.21180  1.0000
  O   O12       1.0  0.39994  0.18899  0.71182  1.0000
  O   O13       1.0  0.69011  0.81903  0.78266  1.0000
  O   O14       1.0  0.30996  0.68098  0.28264  1.0000
  O   O15       1.0  0.30989  0.18096  0.21734  1.0000
  O   O16       1.0  0.69002  0.31905  0.71737  1.0000
  O   O17       1.0  0.43141  0.90629  0.55480  1.0000
  O   O18       1.0  0.56869  0.59370  0.05482  1.0000
  O   O19       1.0  0.56853  0.09371  0.44519  1.0000
  O   O20       1.0  0.43141  0.40629  0.94520  1.0000
  O   O21       1.0  0.31031  0.81778  0.45653  1.0000
  O   O22       1.0  0.68983  0.68219  0.95653  1.0000
  O   O23       1.0  0.68961  0.18221  0.54348  1.0000
  O   O24       1.0  0.31020  0.31779  0.04348  1.0000
  O   O25       1.0  0.62906  0.46242  0.80653  1.0000
  O   O26       1.0  0.37092  0.03761  0.30653  1.0000
  O   O27       1.0  0.37087  0.53759  0.19349  1.0000
  O   O28       1.0  0.62910  0.96239  0.69348  1.0000
