data_image0
_chemical_formula_structural       Sr2H44C32N20O16
_chemical_formula_sum              "Sr2 H44 C32 N20 O16"
_cell_length_a       8.18202
_cell_length_b       11.8411
_cell_length_c       11.8404
_cell_angle_alpha    87.8175
_cell_angle_beta     87.8133
_cell_angle_gamma    87.8174

_space_group_name_H-M_alt    "P 1"
_space_group_IT_number       1

loop_
  _space_group_symop_operation_xyz
  'x, y, z'

loop_
  _atom_site_type_symbol
  _atom_site_label
  _atom_site_symmetry_multiplicity
  _atom_site_fract_x
  _atom_site_fract_y
  _atom_site_fract_z
  _atom_site_occupancy
  Sr  Sr1       1.0  0.75000  0.01846  0.98153  1.0000
  Sr  Sr2       1.0  0.25000  0.98154  0.01846  1.0000
  H   H1        1.0  0.57214  0.25228  0.31996  1.0000
  H   H2        1.0  0.92794  0.68003  0.74768  1.0000
  H   H3        1.0  0.42788  0.74772  0.68004  1.0000
  H   H4        1.0  0.07205  0.31997  0.25233  1.0000
  H   H5        1.0  0.52397  0.13153  0.40384  1.0000
  H   H6        1.0  0.97605  0.59616  0.86846  1.0000
  H   H7        1.0  0.47606  0.86847  0.59615  1.0000
  H   H8        1.0  0.02394  0.40384  0.13154  1.0000
  H   H9        1.0  0.79168  0.35995  0.35235  1.0000
  H   H10       1.0  0.70830  0.64770  0.64003  1.0000
  H   H11       1.0  0.20831  0.64004  0.64765  1.0000
  H   H12       1.0  0.29169  0.35230  0.35996  1.0000
  H   H13       1.0  0.97638  0.42735  0.48927  1.0000
  H   H14       1.0  0.52359  0.51076  0.57264  1.0000
  H   H15       1.0  0.02362  0.57265  0.51074  1.0000
  H   H16       1.0  0.47640  0.48924  0.42736  1.0000
  H   H17       1.0  0.86848  0.12999  0.70381  1.0000
  H   H18       1.0  0.63158  0.29621  0.86997  1.0000
  H   H19       1.0  0.13154  0.87001  0.29620  1.0000
  H   H20       1.0  0.36840  0.70380  0.13003  1.0000
  H   H21       1.0  0.69419  0.06974  0.55606  1.0000
  H   H22       1.0  0.80586  0.44393  0.93021  1.0000
  H   H23       1.0  0.30583  0.93026  0.44392  1.0000
  H   H24       1.0  0.19411  0.55607  0.06979  1.0000
  H   H25       1.0  0.23574  0.34328  0.91368  1.0000
  H   H26       1.0  0.26427  0.08634  0.65673  1.0000
  H   H27       1.0  0.76424  0.65673  0.08633  1.0000
  H   H28       1.0  0.73573  0.91365  0.34328  1.0000
  H   H29       1.0  0.45233  0.14673  0.85633  1.0000
  H   H30       1.0  0.04770  0.14368  0.85328  1.0000
  H   H31       1.0  0.54766  0.85327  0.14367  1.0000
  H   H32       1.0  0.95231  0.85633  0.14672  1.0000
  H   H33       1.0  0.42920  0.19194  0.98144  1.0000
  H   H34       1.0  0.07081  0.01859  0.80806  1.0000
  H   H35       1.0  0.57081  0.80806  0.01857  1.0000
  H   H36       1.0  0.92919  0.98142  0.19194  1.0000
  H   H37       1.0  0.93213  0.21505  0.06002  1.0000
  H   H38       1.0  0.56789  0.94002  0.78493  1.0000
  H   H39       1.0  0.06786  0.78496  0.93996  1.0000
  H   H40       1.0  0.43214  0.05999  0.21506  1.0000
  H   H41       1.0  0.74428  0.24364  0.08751  1.0000
  H   H42       1.0  0.75573  0.91250  0.75635  1.0000
  H   H43       1.0  0.25570  0.75635  0.91247  1.0000
  H   H44       1.0  0.24430  0.08751  0.24364  1.0000
  C   C1        1.0  0.70894  0.09946  0.27519  1.0000
  C   C2        1.0  0.79108  0.72483  0.90050  1.0000
  C   C3        1.0  0.29107  0.90055  0.72481  1.0000
  C   C4        1.0  0.20890  0.27517  0.09951  1.0000
  C   C5        1.0  0.62704  0.17690  0.36318  1.0000
  C   C6        1.0  0.87300  0.63684  0.82309  1.0000
  C   C7        1.0  0.37297  0.82310  0.63683  1.0000
  C   C8        1.0  0.12700  0.36316  0.17692  1.0000
  C   C9        1.0  0.81609  0.31137  0.43007  1.0000
  C   C10       1.0  0.68393  0.56995  0.68864  1.0000
  C   C11       1.0  0.18394  0.68863  0.56994  1.0000
  C   C12       1.0  0.31607  0.43005  0.31138  1.0000
  C   C13       1.0  0.91687  0.34841  0.50880  1.0000
  C   C14       1.0  0.58311  0.49119  0.65158  1.0000
  C   C15       1.0  0.08313  0.65158  0.49120  1.0000
  C   C16       1.0  0.41688  0.50880  0.34842  1.0000
  C   C17       1.0  0.94124  0.28699  0.61301  1.0000
  C   C18       1.0  0.55882  0.38698  0.71300  1.0000
  C   C19       1.0  0.05878  0.71300  0.38699  1.0000
  C   C20       1.0  0.44118  0.61301  0.28700  1.0000
  C   C21       1.0  0.85839  0.18302  0.62728  1.0000
  C   C22       1.0  0.64165  0.37271  0.81695  1.0000
  C   C23       1.0  0.14160  0.81697  0.37272  1.0000
  C   C24       1.0  0.35834  0.62729  0.18305  1.0000
  C   C25       1.0  0.75958  0.14803  0.54611  1.0000
  C   C26       1.0  0.74050  0.45389  0.85195  1.0000
  C   C27       1.0  0.24045  0.85196  0.45390  1.0000
  C   C28       1.0  0.25950  0.54612  0.14806  1.0000
  C   C29       1.0  0.03514  0.33238  0.69799  1.0000
  C   C30       1.0  0.46489  0.30202  0.66760  1.0000
  C   C31       1.0  0.96486  0.66762  0.30201  1.0000
  C   C32       1.0  0.53509  0.69797  0.33240  1.0000
  N   N1        1.0  0.08271  0.27899  0.79627  1.0000
  N   N2        1.0  0.41732  0.20375  0.72099  1.0000
  N   N3        1.0  0.91729  0.72101  0.20372  1.0000
  N   N4        1.0  0.58267  0.79625  0.27902  1.0000
  N   N5        1.0  0.17472  0.45479  0.78229  1.0000
  N   N6        1.0  0.32530  0.21771  0.54520  1.0000
  N   N7        1.0  0.82527  0.54521  0.21771  1.0000
  N   N8        1.0  0.67470  0.78228  0.45480  1.0000
  N   N9        1.0  0.16493  0.35916  0.84428  1.0000
  N   N10       1.0  0.33511  0.15573  0.64085  1.0000
  N   N11       1.0  0.83509  0.64085  0.15571  1.0000
  N   N12       1.0  0.66489  0.84428  0.35917  1.0000
  N   N13       1.0  0.09336  0.44114  0.69082  1.0000
  N   N14       1.0  0.40667  0.30918  0.55885  1.0000
  N   N15       1.0  0.90664  0.55887  0.30918  1.0000
  N   N16       1.0  0.59332  0.69081  0.44115  1.0000
  N   N17       1.0  0.73353  0.21213  0.44826  1.0000
  N   N18       1.0  0.76650  0.55173  0.78787  1.0000
  N   N19       1.0  0.26647  0.78785  0.55174  1.0000
  N   N20       1.0  0.23348  0.44826  0.21214  1.0000
  O   O1        1.0  0.63014  0.08818  0.18533  1.0000
  O   O2        1.0  0.86988  0.81469  0.91175  1.0000
  O   O3        1.0  0.36989  0.91184  0.81466  1.0000
  O   O4        1.0  0.13010  0.18531  0.08824  1.0000
  O   O5        1.0  0.84319  0.04822  0.29802  1.0000
  O   O6        1.0  0.65684  0.70202  0.95173  1.0000
  O   O7        1.0  0.15681  0.95176  0.70198  1.0000
  O   O8        1.0  0.34315  0.29799  0.04827  1.0000
  O   O9        1.0  0.46932  0.12345  0.93825  1.0000
  O   O10       1.0  0.03070  0.06175  0.87656  1.0000
  O   O11       1.0  0.53068  0.87655  0.06175  1.0000
  O   O12       1.0  0.96930  0.93824  0.12343  1.0000
  O   O13       1.0  0.82187  0.22403  0.02631  1.0000
  O   O14       1.0  0.67816  0.97371  0.77595  1.0000
  O   O15       1.0  0.17812  0.77598  0.97367  1.0000
  O   O16       1.0  0.32186  0.02630  0.22404  1.0000
