data_image0
_chemical_formula_structural       Ni2H40C50N4O14
_chemical_formula_sum              "Ni2 H40 C50 N4 O14"
_cell_length_a       9.85002
_cell_length_b       9.74484
_cell_length_c       14.4393
_cell_angle_alpha    83.1179
_cell_angle_beta     76.2808
_cell_angle_gamma    59.6373

_space_group_name_H-M_alt    "P 1"
_space_group_IT_number       1

loop_
  _space_group_symop_operation_xyz
  'x, y, z'

loop_
  _atom_site_type_symbol
  _atom_site_label
  _atom_site_symmetry_multiplicity
  _atom_site_fract_x
  _atom_site_fract_y
  _atom_site_fract_z
  _atom_site_occupancy
  Ni  Ni1       1.0  0.10568  0.96947  0.41560  1.0000
  Ni  Ni2       1.0  0.07533  0.03072  0.91564  1.0000
  H   H1        1.0  0.17750  0.91019  0.20872  1.0000
  H   H2        1.0  0.08753  0.09006  0.70878  1.0000
  H   H3        1.0  0.40253  0.71884  0.09168  1.0000
  H   H4        1.0  0.12128  0.28132  0.59167  1.0000
  H   H5        1.0  0.65264  0.48982  0.32399  1.0000
  H   H6        1.0  0.14235  0.51049  0.82392  1.0000
  H   H7        1.0  0.41871  0.69734  0.42961  1.0000
  H   H8        1.0  0.11598  0.30307  0.92956  1.0000
  H   H9        1.0  0.54429  0.51570  0.01789  1.0000
  H   H10       1.0  0.06008  0.48428  0.51776  1.0000
  H   H11       1.0  0.75920  0.29194  0.91445  1.0000
  H   H12       1.0  0.05120  0.70806  0.41431  1.0000
  H   H13       1.0  0.05507  0.12930  0.10972  1.0000
  H   H14       1.0  0.18402  0.87093  0.60965  1.0000
  H   H15       1.0  0.85616  0.34674  0.22215  1.0000
  H   H16       1.0  0.20254  0.65356  0.72212  1.0000
  H   H17       1.0  0.42458  0.29623  0.42075  1.0000
  H   H18       1.0  0.72123  0.70354  0.92082  1.0000
  H   H19       1.0  0.56602  0.33886  0.52707  1.0000
  H   H20       1.0  0.90541  0.66094  0.02709  1.0000
  H   H21       1.0  0.67829  0.88374  0.65811  1.0000
  H   H22       1.0  0.56235  0.11588  0.15834  1.0000
  H   H23       1.0  0.51189  0.85408  0.56179  1.0000
  H   H24       1.0  0.36631  0.14555  0.06199  1.0000
  H   H25       1.0  0.56980  0.29808  0.81799  1.0000
  H   H26       1.0  0.86836  0.70198  0.31805  1.0000
  H   H27       1.0  0.51773  0.56824  0.84796  1.0000
  H   H28       1.0  0.08645  0.43165  0.34792  1.0000
  H   H29       1.0  0.61850  0.70886  0.72259  1.0000
  H   H30       1.0  0.32751  0.29088  0.22244  1.0000
  H   H31       1.0  0.77294  0.57876  0.56217  1.0000
  H   H32       1.0  0.35179  0.42080  0.06197  1.0000
  H   H33       1.0  0.79974  0.04932  0.41404  1.0000
  H   H34       1.0  0.84918  0.95072  0.91404  1.0000
  H   H35       1.0  0.87368  0.98020  0.30924  1.0000
  H   H36       1.0  0.85373  0.01988  0.80926  1.0000
  H   H37       1.0  0.00727  0.23594  0.35433  1.0000
  H   H38       1.0  0.24330  0.76427  0.85425  1.0000
  H   H39       1.0  0.19759  0.13220  0.31670  1.0000
  H   H40       1.0  0.33008  0.86789  0.81678  1.0000
  C   C1        1.0  0.28487  0.81431  0.23098  1.0000
  C   C2        1.0  0.09900  0.18596  0.73101  1.0000
  C   C3        1.0  0.41244  0.70471  0.16605  1.0000
  C   C4        1.0  0.11696  0.29552  0.66605  1.0000
  C   C5        1.0  0.54843  0.58046  0.19687  1.0000
  C   C6        1.0  0.12872  0.41978  0.69683  1.0000
  C   C7        1.0  0.55091  0.57967  0.29391  1.0000
  C   C8        1.0  0.13039  0.42066  0.79386  1.0000
  C   C9        1.0  0.41971  0.69444  0.35431  1.0000
  C   C10       1.0  0.11400  0.30592  0.85428  1.0000
  C   C11       1.0  0.67820  0.45322  0.13135  1.0000
  C   C12       1.0  0.13130  0.54695  0.63127  1.0000
  C   C13       1.0  0.65549  0.43509  0.04209  1.0000
  C   C14       1.0  0.09063  0.56491  0.54196  1.0000
  C   C15       1.0  0.77455  0.31001  0.98326  1.0000
  C   C16       1.0  0.08456  0.68999  0.48314  1.0000
  C   C17       1.0  0.93961  0.21776  0.09291  1.0000
  C   C18       1.0  0.15708  0.78243  0.59286  1.0000
  C   C19       1.0  0.82610  0.34135  0.15531  1.0000
  C   C20       1.0  0.16718  0.65888  0.65526  1.0000
  C   C21       1.0  0.35697  0.05812  0.42980  1.0000
  C   C22       1.0  0.41546  0.94181  0.92987  1.0000
  C   C23       1.0  0.46175  0.07183  0.48451  1.0000
  C   C24       1.0  0.53400  0.92791  0.98460  1.0000
  C   C25       1.0  0.47932  0.20725  0.47360  1.0000
  C   C26       1.0  0.68701  0.79249  0.97366  1.0000
  C   C27       1.0  0.56076  0.22911  0.53201  1.0000
  C   C28       1.0  0.79035  0.77063  0.03205  1.0000
  C   C29       1.0  0.63591  0.11002  0.59718  1.0000
  C   C30       1.0  0.74638  0.88972  0.09722  1.0000
  C   C31       1.0  0.62153  0.97259  0.60586  1.0000
  C   C32       1.0  0.59449  0.02710  0.10601  1.0000
  C   C33       1.0  0.53147  0.95584  0.55192  1.0000
  C   C34       1.0  0.48769  0.04383  0.05207  1.0000
  C   C35       1.0  0.72686  0.12466  0.66029  1.0000
  C   C36       1.0  0.85198  0.87525  0.16029  1.0000
  C   C37       1.0  0.70432  0.28522  0.67445  1.0000
  C   C38       1.0  0.98995  0.71466  0.17443  1.0000
  C   C39       1.0  0.61602  0.35942  0.76269  1.0000
  C   C40       1.0  0.97585  0.64051  0.26269  1.0000
  C   C41       1.0  0.58690  0.51101  0.77931  1.0000
  C   C42       1.0  0.09825  0.48885  0.27925  1.0000
  C   C43       1.0  0.64289  0.59082  0.70765  1.0000
  C   C44       1.0  0.23391  0.40897  0.20751  1.0000
  C   C45       1.0  0.72853  0.51855  0.61927  1.0000
  C   C46       1.0  0.24725  0.48116  0.11911  1.0000
  C   C47       1.0  0.76186  0.36502  0.60238  1.0000
  C   C48       1.0  0.12714  0.63479  0.10229  1.0000
  C   C49       1.0  0.86577  0.28243  0.51006  1.0000
  C   C50       1.0  0.14840  0.71747  0.00997  1.0000
  N   N1        1.0  0.28661  0.80856  0.32429  1.0000
  N   N2        1.0  0.09504  0.19176  0.82432  1.0000
  N   N3        1.0  0.91427  0.20136  0.00826  1.0000
  N   N4        1.0  0.11543  0.79873  0.50820  1.0000
  O   O1        1.0  0.27793  0.99116  0.47507  1.0000
  O   O2        1.0  0.26940  0.00913  0.97502  1.0000
  O   O3        1.0  0.35085  0.11700  0.34661  1.0000
  O   O4        1.0  0.46824  0.88278  0.84671  1.0000
  O   O5        1.0  0.80332  0.00969  0.70991  1.0000
  O   O6        1.0  0.81352  0.99026  0.20982  1.0000
  O   O7        1.0  0.93090  0.13006  0.51357  1.0000
  O   O8        1.0  0.06140  0.86987  0.01357  1.0000
  O   O9        1.0  0.88302  0.36423  0.43788  1.0000
  O   O10       1.0  0.24715  0.63572  0.93769  1.0000
  O   O11       1.0  0.89662  0.96835  0.37440  1.0000
  O   O12       1.0  0.86498  0.03174  0.87439  1.0000
  O   O13       1.0  0.09170  0.13778  0.31530  1.0000
  O   O14       1.0  0.22966  0.86249  0.81535  1.0000
