data_image0
_chemical_formula_structural       Ni2H24C40N2O10
_chemical_formula_sum              "Ni2 H24 C40 N2 O10"
_cell_length_a       9.41657
_cell_length_b       9.36737
_cell_length_c       11.6633
_cell_angle_alpha    75.108
_cell_angle_beta     79.3363
_cell_angle_gamma    65.2839

_space_group_name_H-M_alt    "P 1"
_space_group_IT_number       1

loop_
  _space_group_symop_operation_xyz
  'x, y, z'

loop_
  _atom_site_type_symbol
  _atom_site_label
  _atom_site_symmetry_multiplicity
  _atom_site_fract_x
  _atom_site_fract_y
  _atom_site_fract_z
  _atom_site_occupancy
  Ni  Ni1       1.0  0.91041  0.98314  0.58728  1.0000
  Ni  Ni2       1.0  0.08954  0.01688  0.41273  1.0000
  H   H1        1.0  0.56848  0.13385  0.64343  1.0000
  H   H2        1.0  0.43148  0.86614  0.35660  1.0000
  H   H3        1.0  0.94001  0.82285  0.84281  1.0000
  H   H4        1.0  0.05998  0.17714  0.15720  1.0000
  H   H5        1.0  0.37809  0.15459  0.82097  1.0000
  H   H6        1.0  0.62190  0.84539  0.17906  1.0000
  H   H7        1.0  0.76822  0.82907  0.02956  1.0000
  H   H8        1.0  0.23178  0.17092  0.97046  1.0000
  H   H9        1.0  0.07653  0.71199  0.21782  1.0000
  H   H10       1.0  0.92350  0.28797  0.78224  1.0000
  H   H11       1.0  0.74597  0.64050  0.50995  1.0000
  H   H12       1.0  0.25397  0.35950  0.49005  1.0000
  H   H13       1.0  0.00259  0.56097  0.10496  1.0000
  H   H14       1.0  0.99746  0.43900  0.89507  1.0000
  H   H15       1.0  0.66234  0.50267  0.39650  1.0000
  H   H16       1.0  0.33767  0.49729  0.60349  1.0000
  H   H17       1.0  0.51477  0.59331  0.06525  1.0000
  H   H18       1.0  0.48526  0.40671  0.93471  1.0000
  H   H19       1.0  0.27505  0.53469  0.11082  1.0000
  H   H20       1.0  0.72498  0.46535  0.88915  1.0000
  H   H21       1.0  0.48374  0.16156  0.40782  1.0000
  H   H22       1.0  0.51627  0.83844  0.59213  1.0000
  H   H23       1.0  0.25631  0.32009  0.28600  1.0000
  H   H24       1.0  0.74371  0.67993  0.71393  1.0000
  C   C1        1.0  0.60650  0.06814  0.73136  1.0000
  C   C2        1.0  0.39347  0.93185  0.26866  1.0000
  C   C3        1.0  0.81450  0.89478  0.84232  1.0000
  C   C4        1.0  0.18549  0.10521  0.15769  1.0000
  C   C5        1.0  0.95853  0.78072  0.43224  1.0000
  C   C6        1.0  0.04145  0.21927  0.56778  1.0000
  C   C7        1.0  0.50113  0.07885  0.83240  1.0000
  C   C8        1.0  0.49886  0.92113  0.16763  1.0000
  C   C9        1.0  0.71576  0.90008  0.94706  1.0000
  C   C10       1.0  0.28425  0.09991  0.05296  1.0000
  C   C11       1.0  0.91625  0.68454  0.37008  1.0000
  C   C12       1.0  0.08374  0.31544  0.62994  1.0000
  C   C13       1.0  0.55418  0.99461  0.94492  1.0000
  C   C14       1.0  0.44582  0.00537  0.05511  1.0000
  C   C15       1.0  0.98826  0.66244  0.25586  1.0000
  C   C16       1.0  0.01176  0.33753  0.74418  1.0000
  C   C17       1.0  0.80082  0.62377  0.42110  1.0000
  C   C18       1.0  0.19916  0.37621  0.57890  1.0000
  C   C19       1.0  0.94663  0.58000  0.19347  1.0000
  C   C20       1.0  0.05342  0.41995  0.80656  1.0000
  C   C21       1.0  0.75520  0.54564  0.35731  1.0000
  C   C22       1.0  0.24480  0.45434  0.64269  1.0000
  C   C23       1.0  0.82816  0.52238  0.24315  1.0000
  C   C24       1.0  0.17189  0.47758  0.75685  1.0000
  C   C25       1.0  0.77990  0.44540  0.16907  1.0000
  C   C26       1.0  0.22013  0.55461  0.83091  1.0000
  C   C27       1.0  0.63559  0.40914  0.20815  1.0000
  C   C28       1.0  0.36444  0.59087  0.79181  1.0000
  C   C29       1.0  0.50712  0.49890  0.14044  1.0000
  C   C30       1.0  0.49292  0.50112  0.85951  1.0000
  C   C31       1.0  0.62570  0.28824  0.30582  1.0000
  C   C32       1.0  0.37430  0.71178  0.69415  1.0000
  C   C33       1.0  0.37150  0.46686  0.16734  1.0000
  C   C34       1.0  0.62853  0.53316  0.83262  1.0000
  C   C35       1.0  0.48860  0.25739  0.33286  1.0000
  C   C36       1.0  0.51141  0.74262  0.66710  1.0000
  C   C37       1.0  0.76214  0.18928  0.37780  1.0000
  C   C38       1.0  0.23783  0.81077  0.62220  1.0000
  C   C39       1.0  0.36208  0.34556  0.26367  1.0000
  C   C40       1.0  0.63794  0.65446  0.73628  1.0000
  N   N1        1.0  0.76114  0.97797  0.73564  1.0000
  N   N2        1.0  0.23883  0.02203  0.26438  1.0000
  O   O1        1.0  0.88939  0.80438  0.53461  1.0000
  O   O2        1.0  0.11026  0.19594  0.46528  1.0000
  O   O3        1.0  0.94127  0.16218  0.62562  1.0000
  O   O4        1.0  0.05899  0.83750  0.37456  1.0000
  O   O5        1.0  0.10121  0.83004  0.67426  1.0000
  O   O6        1.0  0.89880  0.16966  0.32568  1.0000
  O   O7        1.0  0.73300  0.13057  0.48637  1.0000
  O   O8        1.0  0.26691  0.86983  0.51371  1.0000
  O   O9        1.0  0.84758  0.42437  0.06945  1.0000
  O   O10       1.0  0.15244  0.57568  0.93052  1.0000
