data_image0
_chemical_formula_structural       Ni2H48C64N4O14
_chemical_formula_sum              "Ni2 H48 C64 N4 O14"
_cell_length_a       11.1516
_cell_length_b       11.7186
_cell_length_c       13.8963
_cell_angle_alpha    69.9627
_cell_angle_beta     67.0036
_cell_angle_gamma    76.5468

_space_group_name_H-M_alt    "P 1"
_space_group_IT_number       1

loop_
  _space_group_symop_operation_xyz
  'x, y, z'

loop_
  _atom_site_type_symbol
  _atom_site_label
  _atom_site_symmetry_multiplicity
  _atom_site_fract_x
  _atom_site_fract_y
  _atom_site_fract_z
  _atom_site_occupancy
  Ni  Ni1       1.0  0.33797  0.36076  0.44954  1.0000
  Ni  Ni2       1.0  0.66203  0.63924  0.55046  1.0000
  H   H1        1.0  0.05828  0.18123  0.79040  1.0000
  H   H2        1.0  0.94172  0.81877  0.20960  1.0000
  H   H3        1.0  0.60726  0.27629  0.41932  1.0000
  H   H4        1.0  0.39274  0.72371  0.58068  1.0000
  H   H5        1.0  0.94288  0.87694  0.41336  1.0000
  H   H6        1.0  0.05711  0.12306  0.58664  1.0000
  H   H7        1.0  0.94566  0.52835  0.18207  1.0000
  H   H8        1.0  0.05434  0.47165  0.81793  1.0000
  H   H9        1.0  0.39087  0.12013  0.96504  1.0000
  H   H10       1.0  0.60914  0.87987  0.03496  1.0000
  H   H11       1.0  0.33730  0.80863  0.42592  1.0000
  H   H12       1.0  0.66269  0.19137  0.57409  1.0000
  H   H13       1.0  0.41576  0.54039  0.22598  1.0000
  H   H14       1.0  0.58425  0.45961  0.77402  1.0000
  H   H15       1.0  0.44420  0.21888  0.76414  1.0000
  H   H16       1.0  0.55580  0.78113  0.23586  1.0000
  H   H17       1.0  0.44072  0.60195  0.41272  1.0000
  H   H18       1.0  0.55927  0.39805  0.58729  1.0000
  H   H19       1.0  0.08043  0.47064  0.53371  1.0000
  H   H20       1.0  0.91956  0.52936  0.46628  1.0000
  H   H21       1.0  0.62812  0.59018  0.07338  1.0000
  H   H22       1.0  0.37188  0.40980  0.92662  1.0000
  H   H23       1.0  0.37537  0.02054  0.32564  1.0000
  H   H24       1.0  0.62462  0.97946  0.67437  1.0000
  H   H25       1.0  0.82647  0.31799  0.27974  1.0000
  H   H26       1.0  0.17353  0.68200  0.72027  1.0000
  H   H27       1.0  0.00080  0.09059  0.99309  1.0000
  H   H28       1.0  0.99921  0.90940  0.00691  1.0000
  H   H29       1.0  0.31605  0.92460  0.21513  1.0000
  H   H30       1.0  0.68396  0.07540  0.78487  1.0000
  H   H31       1.0  0.13293  0.34984  0.23070  1.0000
  H   H32       1.0  0.86709  0.65016  0.76929  1.0000
  H   H33       1.0  0.95968  0.67431  0.54873  1.0000
  H   H34       1.0  0.04032  0.32570  0.45126  1.0000
  H   H35       1.0  0.85055  0.47666  0.78895  1.0000
  H   H36       1.0  0.14945  0.52334  0.21105  1.0000
  H   H37       1.0  0.75220  0.35529  0.87402  1.0000
  H   H38       1.0  0.24781  0.64471  0.12598  1.0000
  H   H39       1.0  0.92486  0.33015  0.85033  1.0000
  H   H40       1.0  0.07514  0.66985  0.14967  1.0000
  H   H41       1.0  0.26049  0.05551  0.59045  1.0000
  H   H42       1.0  0.73950  0.94450  0.40956  1.0000
  H   H43       1.0  0.30312  0.90998  0.67600  1.0000
  H   H44       1.0  0.69687  0.09003  0.32401  1.0000
  H   H45       1.0  0.13791  0.98342  0.71442  1.0000
  H   H46       1.0  0.86208  0.01658  0.28559  1.0000
  H   H47       1.0  0.07810  0.25834  0.11706  1.0000
  H   H48       1.0  0.92191  0.74166  0.88294  1.0000
  C   C1        1.0  0.25463  0.20520  0.76534  1.0000
  C   C2        1.0  0.74537  0.79481  0.23465  1.0000
  C   C3        1.0  0.28562  0.26280  0.64635  1.0000
  C   C4        1.0  0.71439  0.73720  0.35364  1.0000
  C   C5        1.0  0.13806  0.76189  0.48661  1.0000
  C   C6        1.0  0.86194  0.23812  0.51338  1.0000
  C   C7        1.0  0.29325  0.25000  0.34710  1.0000
  C   C8        1.0  0.70675  0.75000  0.65290  1.0000
  C   C9        1.0  0.13006  0.16793  0.82966  1.0000
  C   C10       1.0  0.86994  0.83207  0.17033  1.0000
  C   C11       1.0  0.25920  0.19144  0.28311  1.0000
  C   C12       1.0  0.74080  0.80856  0.71689  1.0000
  C   C13       1.0  0.61698  0.34721  0.34267  1.0000
  C   C14       1.0  0.38301  0.65279  0.65733  1.0000
  C   C15       1.0  0.96705  0.93148  0.45153  1.0000
  C   C16       1.0  0.03294  0.06852  0.54847  1.0000
  C   C17       1.0  0.97117  0.51522  0.10218  1.0000
  C   C18       1.0  0.02884  0.48476  0.89783  1.0000
  C   C19       1.0  0.31851  0.13419  0.92617  1.0000
  C   C20       1.0  0.68150  0.86581  0.07383  1.0000
  C   C21       1.0  0.06917  0.88389  0.49419  1.0000
  C   C22       1.0  0.93083  0.11611  0.50581  1.0000
  C   C23       1.0  0.27530  0.73772  0.44886  1.0000
  C   C24       1.0  0.72469  0.26229  0.55115  1.0000
  C   C25       1.0  0.10184  0.95354  0.54380  1.0000
  C   C26       1.0  0.89815  0.04647  0.45619  1.0000
  C   C27       1.0  0.87462  0.48268  0.07858  1.0000
  C   C28       1.0  0.12539  0.51731  0.92143  1.0000
  C   C29       1.0  0.50998  0.49416  0.23342  1.0000
  C   C30       1.0  0.49002  0.50583  0.76658  1.0000
  C   C31       1.0  0.34797  0.18869  0.81481  1.0000
  C   C32       1.0  0.65202  0.81133  0.18519  1.0000
  C   C33       1.0  0.33418  0.62135  0.44103  1.0000
  C   C34       1.0  0.66582  0.37866  0.55898  1.0000
  C   C35       1.0  0.13240  0.54981  0.50785  1.0000
  C   C36       1.0  0.86760  0.45019  0.49215  1.0000
  C   C37       1.0  0.62764  0.52104  0.14950  1.0000
  C   C38       1.0  0.37236  0.47895  0.85051  1.0000
  C   C39       1.0  0.31005  0.07111  0.27989  1.0000
  C   C40       1.0  0.68996  0.92889  0.72011  1.0000
  C   C41       1.0  0.73868  0.37110  0.26387  1.0000
  C   C42       1.0  0.26131  0.62889  0.73613  1.0000
  C   C43       1.0  0.19382  0.09657  0.98884  1.0000
  C   C44       1.0  0.80618  0.90343  0.01116  1.0000
  C   C45       1.0  0.74583  0.45904  0.16418  1.0000
  C   C46       1.0  0.25417  0.54095  0.83582  1.0000
  C   C47       1.0  0.09854  0.11571  0.94150  1.0000
  C   C48       1.0  0.90146  0.88430  0.05850  1.0000
  C   C49       1.0  0.27796  0.01814  0.21851  1.0000
  C   C50       1.0  0.72204  0.98185  0.78149  1.0000
  C   C51       1.0  0.19587  0.08711  0.15976  1.0000
  C   C52       1.0  0.80414  0.91288  0.84024  1.0000
  C   C53       1.0  0.17437  0.25767  0.22539  1.0000
  C   C54       1.0  0.82563  0.74232  0.77461  1.0000
  C   C55       1.0  0.06646  0.66376  0.51637  1.0000
  C   C56       1.0  0.93354  0.33625  0.48362  1.0000
  C   C57       1.0  0.83715  0.39727  0.86167  1.0000
  C   C58       1.0  0.16286  0.60273  0.13833  1.0000
  C   C59       1.0  0.90370  0.46710  0.97510  1.0000
  C   C60       1.0  0.09630  0.53289  0.02491  1.0000
  C   C61       1.0  0.22579  0.96780  0.64549  1.0000
  C   C62       1.0  0.77420  0.03221  0.35451  1.0000
  C   C63       1.0  0.14292  0.20667  0.16298  1.0000
  C   C64       1.0  0.85708  0.79333  0.83701  1.0000
  N   N1        1.0  0.26428  0.52822  0.46939  1.0000
  N   N2        1.0  0.73573  0.47178  0.53061  1.0000
  N   N3        1.0  0.50439  0.40848  0.32865  1.0000
  N   N4        1.0  0.49561  0.59152  0.67136  1.0000
  O   O1        1.0  0.36692  0.19214  0.40312  1.0000
  O   O2        1.0  0.63307  0.80787  0.59689  1.0000
  O   O3        1.0  0.24579  0.36207  0.34534  1.0000
  O   O4        1.0  0.75421  0.63794  0.65466  1.0000
  O   O5        1.0  0.19752  0.28020  0.60361  1.0000
  O   O6        1.0  0.80249  0.71980  0.39638  1.0000
  O   O7        1.0  0.40010  0.29533  0.58665  1.0000
  O   O8        1.0  0.59990  0.70467  0.41335  1.0000
  O   O9        1.0  0.19822  0.90099  0.58850  1.0000
  O   O10       1.0  0.80178  0.09902  0.41150  1.0000
  O   O11       1.0  0.16295  0.03453  0.09875  1.0000
  O   O12       1.0  0.83706  0.96547  0.90124  1.0000
  O   O13       1.0  0.80608  0.43165  0.95899  1.0000
  O   O14       1.0  0.19393  0.56835  0.04101  1.0000
