data_image0
_chemical_formula_structural       Sn4H64C52O16
_chemical_formula_sum              "Sn4 H64 C52 O16"
_cell_length_a       10.6307
_cell_length_b       11.54
_cell_length_c       11.9112
_cell_angle_alpha    107.575
_cell_angle_beta     90.0002
_cell_angle_gamma    89.9999

_space_group_name_H-M_alt    "P 1"
_space_group_IT_number       1

loop_
  _space_group_symop_operation_xyz
  'x, y, z'

loop_
  _atom_site_type_symbol
  _atom_site_label
  _atom_site_symmetry_multiplicity
  _atom_site_fract_x
  _atom_site_fract_y
  _atom_site_fract_z
  _atom_site_occupancy
  Sn  Sn1       1.0  0.85930  0.97236  0.19771  1.0000
  Sn  Sn2       1.0  0.35931  0.02764  0.30228  1.0000
  Sn  Sn3       1.0  0.14068  0.02764  0.80228  1.0000
  Sn  Sn4       1.0  0.64069  0.97236  0.69772  1.0000
  H   H1        1.0  0.90582  0.22978  0.39432  1.0000
  H   H2        1.0  0.40582  0.77022  0.10568  1.0000
  H   H3        1.0  0.09419  0.77022  0.60568  1.0000
  H   H4        1.0  0.59418  0.22978  0.89432  1.0000
  H   H5        1.0  0.13029  0.32778  0.55826  1.0000
  H   H6        1.0  0.63029  0.67222  0.94174  1.0000
  H   H7        1.0  0.86971  0.67222  0.44174  1.0000
  H   H8        1.0  0.36971  0.32778  0.05826  1.0000
  H   H9        1.0  0.09444  0.50483  0.72308  1.0000
  H   H10       1.0  0.59444  0.49517  0.77691  1.0000
  H   H11       1.0  0.90556  0.49517  0.27692  1.0000
  H   H12       1.0  0.40556  0.50483  0.22308  1.0000
  H   H13       1.0  0.96452  0.67891  0.83519  1.0000
  H   H14       1.0  0.46452  0.32110  0.66481  1.0000
  H   H15       1.0  0.03547  0.32109  0.16481  1.0000
  H   H16       1.0  0.53548  0.67891  0.33519  1.0000
  H   H17       1.0  0.74378  0.70495  0.77123  1.0000
  H   H18       1.0  0.24378  0.29505  0.72877  1.0000
  H   H19       1.0  0.25622  0.29505  0.22877  1.0000
  H   H20       1.0  0.75622  0.70495  0.27123  1.0000
  H   H21       1.0  0.65760  0.47567  0.38621  1.0000
  H   H22       1.0  0.15760  0.52433  0.11379  1.0000
  H   H23       1.0  0.34239  0.52432  0.61378  1.0000
  H   H24       1.0  0.84239  0.47567  0.88622  1.0000
  H   H25       1.0  0.56760  0.37938  0.45293  1.0000
  H   H26       1.0  0.06760  0.62063  0.04707  1.0000
  H   H27       1.0  0.43240  0.62062  0.54707  1.0000
  H   H28       1.0  0.93240  0.37937  0.95293  1.0000
  H   H29       1.0  0.86433  0.02511  0.43451  1.0000
  H   H30       1.0  0.36433  0.97489  0.06549  1.0000
  H   H31       1.0  0.13567  0.97489  0.56549  1.0000
  H   H32       1.0  0.63567  0.02511  0.93451  1.0000
  H   H33       1.0  0.90883  0.87035  0.37240  1.0000
  H   H34       1.0  0.40883  0.12965  0.12760  1.0000
  H   H35       1.0  0.09117  0.12965  0.62760  1.0000
  H   H36       1.0  0.59117  0.87035  0.87240  1.0000
  H   H37       1.0  0.74577  0.91323  0.37817  1.0000
  H   H38       1.0  0.24577  0.08678  0.12183  1.0000
  H   H39       1.0  0.25423  0.08678  0.62183  1.0000
  H   H40       1.0  0.75423  0.91322  0.87817  1.0000
  H   H41       1.0  0.82702  0.17152  0.11957  1.0000
  H   H42       1.0  0.32701  0.82848  0.38043  1.0000
  H   H43       1.0  0.17298  0.82848  0.88043  1.0000
  H   H44       1.0  0.67298  0.17152  0.61956  1.0000
  H   H45       1.0  0.75936  0.20066  0.26284  1.0000
  H   H46       1.0  0.25936  0.79934  0.23716  1.0000
  H   H47       1.0  0.24064  0.79934  0.73716  1.0000
  H   H48       1.0  0.74064  0.20066  0.76284  1.0000
  H   H49       1.0  0.67816  0.10636  0.13700  1.0000
  H   H50       1.0  0.17816  0.89364  0.36300  1.0000
  H   H51       1.0  0.32185  0.89364  0.86300  1.0000
  H   H52       1.0  0.82185  0.10636  0.63700  1.0000
  H   H53       1.0  0.92874  0.77561  0.02121  1.0000
  H   H54       1.0  0.42874  0.22439  0.47879  1.0000
  H   H55       1.0  0.07126  0.22439  0.97879  1.0000
  H   H56       1.0  0.57126  0.77561  0.52120  1.0000
  H   H57       1.0  0.06522  0.83865  0.10935  1.0000
  H   H58       1.0  0.56522  0.16135  0.39064  1.0000
  H   H59       1.0  0.93479  0.16135  0.89064  1.0000
  H   H60       1.0  0.43479  0.83865  0.60935  1.0000
  H   H61       1.0  0.00849  0.90535  0.00232  1.0000
  H   H62       1.0  0.50849  0.09465  0.49768  1.0000
  H   H63       1.0  0.99151  0.09465  0.99768  1.0000
  H   H64       1.0  0.49151  0.90535  0.50232  1.0000
  C   C1        1.0  0.09191  0.14693  0.35930  1.0000
  C   C2        1.0  0.59190  0.85307  0.14070  1.0000
  C   C3        1.0  0.90810  0.85308  0.64071  1.0000
  C   C4        1.0  0.40810  0.14693  0.85930  1.0000
  C   C5        1.0  0.00083  0.23616  0.42919  1.0000
  C   C6        1.0  0.50083  0.76384  0.07082  1.0000
  C   C7        1.0  0.99917  0.76384  0.57082  1.0000
  C   C8        1.0  0.49917  0.23616  0.92918  1.0000
  C   C9        1.0  0.03328  0.32587  0.52739  1.0000
  C   C10       1.0  0.53328  0.67413  0.97261  1.0000
  C   C11       1.0  0.96671  0.67413  0.47262  1.0000
  C   C12       1.0  0.46671  0.32587  0.02739  1.0000
  C   C13       1.0  0.95272  0.42363  0.59400  1.0000
  C   C14       1.0  0.45272  0.57637  0.90600  1.0000
  C   C15       1.0  0.04728  0.57637  0.40600  1.0000
  C   C16       1.0  0.54728  0.42363  0.09400  1.0000
  C   C17       1.0  0.99807  0.51359  0.69567  1.0000
  C   C18       1.0  0.49808  0.48641  0.80433  1.0000
  C   C19       1.0  0.00192  0.48641  0.30433  1.0000
  C   C20       1.0  0.50192  0.51359  0.19567  1.0000
  C   C21       1.0  0.92481  0.61134  0.75877  1.0000
  C   C22       1.0  0.42481  0.38866  0.74123  1.0000
  C   C23       1.0  0.07519  0.38866  0.24122  1.0000
  C   C24       1.0  0.57520  0.61134  0.25877  1.0000
  C   C25       1.0  0.80072  0.62716  0.72420  1.0000
  C   C26       1.0  0.30072  0.37284  0.77580  1.0000
  C   C27       1.0  0.19927  0.37283  0.27579  1.0000
  C   C28       1.0  0.69928  0.62716  0.22421  1.0000
  C   C29       1.0  0.75746  0.54174  0.62336  1.0000
  C   C30       1.0  0.25746  0.45826  0.87663  1.0000
  C   C31       1.0  0.24254  0.45826  0.37663  1.0000
  C   C32       1.0  0.74255  0.54173  0.12337  1.0000
  C   C33       1.0  0.82984  0.44232  0.56132  1.0000
  C   C34       1.0  0.32984  0.55768  0.93868  1.0000
  C   C35       1.0  0.17016  0.55768  0.43867  1.0000
  C   C36       1.0  0.67016  0.44231  0.06133  1.0000
  C   C37       1.0  0.64981  0.43856  0.46103  1.0000
  C   C38       1.0  0.14981  0.56144  0.03897  1.0000
  C   C39       1.0  0.35019  0.56144  0.53897  1.0000
  C   C40       1.0  0.85019  0.43856  0.96103  1.0000
  C   C41       1.0  0.84213  0.94038  0.36556  1.0000
  C   C42       1.0  0.34213  0.05962  0.13444  1.0000
  C   C43       1.0  0.15786  0.05962  0.63444  1.0000
  C   C44       1.0  0.65787  0.94038  0.86556  1.0000
  C   C45       1.0  0.77095  0.13269  0.17652  1.0000
  C   C46       1.0  0.27095  0.86732  0.32348  1.0000
  C   C47       1.0  0.22905  0.86732  0.82348  1.0000
  C   C48       1.0  0.72905  0.13269  0.67652  1.0000
  C   C49       1.0  0.98071  0.85864  0.06592  1.0000
  C   C50       1.0  0.48071  0.14136  0.43408  1.0000
  C   C51       1.0  0.01929  0.14136  0.93408  1.0000
  C   C52       1.0  0.51929  0.85864  0.56592  1.0000
  O   O1        1.0  0.05560  0.06710  0.26532  1.0000
  O   O2        1.0  0.55559  0.93290  0.23468  1.0000
  O   O3        1.0  0.94441  0.93290  0.73468  1.0000
  O   O4        1.0  0.44441  0.06710  0.76532  1.0000
  O   O5        1.0  0.20684  0.15503  0.39462  1.0000
  O   O6        1.0  0.70683  0.84498  0.10538  1.0000
  O   O7        1.0  0.79316  0.84497  0.60538  1.0000
  O   O8        1.0  0.29317  0.15502  0.89462  1.0000
  O   O9        1.0  0.76229  0.37078  0.46755  1.0000
  O   O10       1.0  0.26229  0.62923  0.03245  1.0000
  O   O11       1.0  0.23771  0.62923  0.53245  1.0000
  O   O12       1.0  0.73771  0.37076  0.96755  1.0000
  O   O13       1.0  0.64186  0.53747  0.56967  1.0000
  O   O14       1.0  0.14186  0.46253  0.93033  1.0000
  O   O15       1.0  0.35814  0.46253  0.43032  1.0000
  O   O16       1.0  0.85814  0.53746  0.06968  1.0000
