data_image0
_chemical_formula_structural       Cd4P4H44C32Cl8
_chemical_formula_sum              "Cd4 P4 H44 C32 Cl8"
_cell_length_a       7.0917
_cell_length_b       12.1446
_cell_length_c       12.8032
_cell_angle_alpha    90.0003
_cell_angle_beta     93.4914
_cell_angle_gamma    90.0007

_space_group_name_H-M_alt    "P 1"
_space_group_IT_number       1

loop_
  _space_group_symop_operation_xyz
  'x, y, z'

loop_
  _atom_site_type_symbol
  _atom_site_label
  _atom_site_symmetry_multiplicity
  _atom_site_fract_x
  _atom_site_fract_y
  _atom_site_fract_z
  _atom_site_occupancy
  Cd  Cd1       1.0  0.25479  0.02335  0.05382  1.0000
  Cd  Cd2       1.0  0.24521  0.52335  0.44617  1.0000
  Cd  Cd3       1.0  0.74521  0.97665  0.94617  1.0000
  Cd  Cd4       1.0  0.75479  0.47665  0.55383  1.0000
  P   P1        1.0  0.26760  0.08753  0.24374  1.0000
  P   P2        1.0  0.23240  0.58753  0.25626  1.0000
  P   P3        1.0  0.73241  0.91247  0.75625  1.0000
  P   P4        1.0  0.76759  0.41247  0.74375  1.0000
  H   H1        1.0  0.38521  0.96358  0.44035  1.0000
  H   H2        1.0  0.11479  0.46357  0.05965  1.0000
  H   H3        1.0  0.61479  0.03642  0.55964  1.0000
  H   H4        1.0  0.88521  0.53642  0.94036  1.0000
  H   H5        1.0  0.21929  0.81873  0.53691  1.0000
  H   H6        1.0  0.28070  0.31872  0.96310  1.0000
  H   H7        1.0  0.78070  0.18127  0.46309  1.0000
  H   H8        1.0  0.71930  0.68127  0.03691  1.0000
  H   H9        1.0  0.89715  0.75906  0.47531  1.0000
  H   H10       1.0  0.60284  0.25905  0.02469  1.0000
  H   H11       1.0  0.10284  0.24095  0.52468  1.0000
  H   H12       1.0  0.39715  0.74094  0.97532  1.0000
  H   H13       1.0  0.73908  0.84377  0.31584  1.0000
  H   H14       1.0  0.76090  0.34376  0.18417  1.0000
  H   H15       1.0  0.26092  0.15624  0.68416  1.0000
  H   H16       1.0  0.23908  0.65623  0.81584  1.0000
  H   H17       1.0  0.90436  0.98337  0.21596  1.0000
  H   H18       1.0  0.59562  0.48336  0.28405  1.0000
  H   H19       1.0  0.09564  0.01664  0.78404  1.0000
  H   H20       1.0  0.40437  0.51664  0.71596  1.0000
  H   H21       1.0  0.99063  0.20254  0.23050  1.0000
  H   H22       1.0  0.50938  0.70253  0.26950  1.0000
  H   H23       1.0  0.00939  0.79747  0.76950  1.0000
  H   H24       1.0  0.49063  0.29746  0.73050  1.0000
  H   H25       1.0  0.20159  0.28060  0.22209  1.0000
  H   H26       1.0  0.29841  0.78060  0.27791  1.0000
  H   H27       1.0  0.79842  0.71940  0.77791  1.0000
  H   H28       1.0  0.70160  0.21940  0.72209  1.0000
  H   H29       1.0  0.13542  0.23265  0.34694  1.0000
  H   H30       1.0  0.36458  0.73265  0.15306  1.0000
  H   H31       1.0  0.86459  0.76735  0.65306  1.0000
  H   H32       1.0  0.63543  0.26734  0.84695  1.0000
  H   H33       1.0  0.58782  0.03988  0.30570  1.0000
  H   H34       1.0  0.91218  0.53987  0.19430  1.0000
  H   H35       1.0  0.41218  0.96012  0.69430  1.0000
  H   H36       1.0  0.08783  0.46013  0.80570  1.0000
  H   H37       1.0  0.48592  0.14404  0.38623  1.0000
  H   H38       1.0  0.01408  0.64403  0.11376  1.0000
  H   H39       1.0  0.51409  0.85596  0.61376  1.0000
  H   H40       1.0  0.98593  0.35596  0.88624  1.0000
  H   H41       1.0  0.56690  0.17874  0.26154  1.0000
  H   H42       1.0  0.93309  0.67874  0.23846  1.0000
  H   H43       1.0  0.43311  0.82126  0.73846  1.0000
  H   H44       1.0  0.06690  0.32127  0.76154  1.0000
  C   C1        1.0  0.15551  0.98490  0.32242  1.0000
  C   C2        1.0  0.34449  0.48490  0.17757  1.0000
  C   C3        1.0  0.84450  0.01510  0.67757  1.0000
  C   C4        1.0  0.65550  0.51509  0.82243  1.0000
  C   C5        1.0  0.24315  0.93818  0.41310  1.0000
  C   C6        1.0  0.25685  0.43818  0.08690  1.0000
  C   C7        1.0  0.75686  0.06182  0.58689  1.0000
  C   C8        1.0  0.74314  0.56181  0.91311  1.0000
  C   C9        1.0  0.15002  0.85721  0.46792  1.0000
  C   C10       1.0  0.34997  0.35720  0.03208  1.0000
  C   C11       1.0  0.84998  0.14279  0.53206  1.0000
  C   C12       1.0  0.65001  0.64279  0.96793  1.0000
  C   C13       1.0  0.96874  0.82333  0.43341  1.0000
  C   C14       1.0  0.53125  0.32332  0.06659  1.0000
  C   C15       1.0  0.03125  0.17667  0.56658  1.0000
  C   C16       1.0  0.46874  0.67667  0.93342  1.0000
  C   C17       1.0  0.88024  0.87037  0.34363  1.0000
  C   C18       1.0  0.61975  0.37036  0.15637  1.0000
  C   C19       1.0  0.11976  0.12964  0.65636  1.0000
  C   C20       1.0  0.38023  0.62963  0.84364  1.0000
  C   C21       1.0  0.97348  0.94988  0.28764  1.0000
  C   C22       1.0  0.52651  0.44988  0.21236  1.0000
  C   C23       1.0  0.02653  0.05012  0.71236  1.0000
  C   C24       1.0  0.47348  0.55012  0.78765  1.0000
  C   C25       1.0  0.13571  0.21306  0.26348  1.0000
  C   C26       1.0  0.36428  0.71305  0.23652  1.0000
  C   C27       1.0  0.86430  0.78695  0.73651  1.0000
  C   C28       1.0  0.63572  0.28695  0.76349  1.0000
  C   C29       1.0  0.49979  0.11400  0.30618  1.0000
  C   C30       1.0  0.00020  0.61399  0.19381  1.0000
  C   C31       1.0  0.50022  0.88600  0.69381  1.0000
  C   C32       1.0  0.99980  0.38602  0.80619  1.0000
  Cl  Cl1       1.0  0.41374  0.09132  0.89689  1.0000
  Cl  Cl2       1.0  0.08626  0.59132  0.60311  1.0000
  Cl  Cl3       1.0  0.58626  0.90868  0.10311  1.0000
  Cl  Cl4       1.0  0.91374  0.40868  0.39689  1.0000
  Cl  Cl5       1.0  0.06608  0.85412  0.99695  1.0000
  Cl  Cl6       1.0  0.43392  0.35412  0.50305  1.0000
  Cl  Cl7       1.0  0.93392  0.14588  0.00305  1.0000
  Cl  Cl8       1.0  0.56609  0.64588  0.49695  1.0000
