data_image0
_chemical_formula_structural       Cd5H42C68N4O18
_chemical_formula_sum              "Cd5 H42 C68 N4 O18"
_cell_length_a       7.8677
_cell_length_b       13.5153
_cell_length_c       14.8385
_cell_angle_alpha    66.6039
_cell_angle_beta     78.8981
_cell_angle_gamma    86.898

_space_group_name_H-M_alt    "P 1"
_space_group_IT_number       1

loop_
  _space_group_symop_operation_xyz
  'x, y, z'

loop_
  _atom_site_type_symbol
  _atom_site_label
  _atom_site_symmetry_multiplicity
  _atom_site_fract_x
  _atom_site_fract_y
  _atom_site_fract_z
  _atom_site_occupancy
  Cd  Cd1       1.0  0.58366  0.11356  0.11214  1.0000
  Cd  Cd2       1.0  0.41633  0.88644  0.88785  1.0000
  Cd  Cd3       1.0  0.26495  0.86019  0.16651  1.0000
  Cd  Cd4       1.0  0.73506  0.13981  0.83349  1.0000
  Cd  Cd5       1.0  1.00000  1.00000  0.00000  1.0000
  H   H1        1.0  0.65678  0.97470  0.02588  1.0000
  H   H2        1.0  0.34322  0.02530  0.97411  1.0000
  H   H3        1.0  0.02677  0.45188  0.71243  1.0000
  H   H4        1.0  0.97322  0.54812  0.28758  1.0000
  H   H5        1.0  0.22799  0.61174  0.64079  1.0000
  H   H6        1.0  0.77200  0.38826  0.35921  1.0000
  H   H7        1.0  0.65608  0.35301  0.89647  1.0000
  H   H8        1.0  0.34392  0.64699  0.10353  1.0000
  H   H9        1.0  0.85164  0.51215  0.82825  1.0000
  H   H10       1.0  0.14835  0.48786  0.17175  1.0000
  H   H11       1.0  0.77823  0.68222  0.69716  1.0000
  H   H12       1.0  0.22177  0.31778  0.30284  1.0000
  H   H13       1.0  0.50605  0.69279  0.63179  1.0000
  H   H14       1.0  0.49394  0.30721  0.36821  1.0000
  H   H15       1.0  0.71111  0.88567  0.40919  1.0000
  H   H16       1.0  0.28889  0.11432  0.59081  1.0000
  H   H17       1.0  0.77618  0.82036  0.58070  1.0000
  H   H18       1.0  0.22381  0.17963  0.41930  1.0000
  H   H19       1.0  0.45561  0.95848  0.39486  1.0000
  H   H20       1.0  0.54438  0.04153  0.60514  1.0000
  H   H21       1.0  0.52019  0.88861  0.56496  1.0000
  H   H22       1.0  0.47981  0.11139  0.43503  1.0000
  H   H23       1.0  0.28806  0.80639  0.71330  1.0000
  H   H24       1.0  0.71195  0.19360  0.28670  1.0000
  H   H25       1.0  0.98588  0.79139  0.69150  1.0000
  H   H26       1.0  0.01412  0.20861  0.30850  1.0000
  H   H27       1.0  0.96708  0.17695  0.10711  1.0000
  H   H28       1.0  0.03292  0.82305  0.89289  1.0000
  H   H29       1.0  0.15733  0.33514  0.04460  1.0000
  H   H30       1.0  0.84266  0.66486  0.95541  1.0000
  H   H31       1.0  0.69640  0.52970  0.02236  1.0000
  H   H32       1.0  0.30360  0.47030  0.97764  1.0000
  H   H33       1.0  0.52428  0.35980  0.08653  1.0000
  H   H34       1.0  0.47572  0.64020  0.91347  1.0000
  H   H35       1.0  0.11090  0.63362  0.35221  1.0000
  H   H36       1.0  0.88911  0.36639  0.64779  1.0000
  H   H37       1.0  0.21435  0.47287  0.48115  1.0000
  H   H38       1.0  0.78566  0.52713  0.51885  1.0000
  H   H39       1.0  0.68538  0.65726  0.42446  1.0000
  H   H40       1.0  0.31463  0.34275  0.57554  1.0000
  H   H41       1.0  0.56102  0.80800  0.29788  1.0000
  H   H42       1.0  0.43898  0.19200  0.70212  1.0000
  C   C1        1.0  0.39563  0.23862  0.92583  1.0000
  C   C2        1.0  0.60437  0.76138  0.07417  1.0000
  C   C3        1.0  0.06171  0.25658  0.85331  1.0000
  C   C4        1.0  0.93829  0.74341  0.14669  1.0000
  C   C5        1.0  0.34208  0.34179  0.84825  1.0000
  C   C6        1.0  0.65792  0.65822  0.15175  1.0000
  C   C7        1.0  0.18825  0.35018  0.81286  1.0000
  C   C8        1.0  0.81175  0.64982  0.18715  1.0000
  C   C9        1.0  0.14916  0.44816  0.73735  1.0000
  C   C10       1.0  0.85083  0.55184  0.26265  1.0000
  C   C11       1.0  0.26045  0.53622  0.69770  1.0000
  C   C12       1.0  0.73955  0.46378  0.30230  1.0000
  C   C13       1.0  0.41964  0.53022  0.73082  1.0000
  C   C14       1.0  0.58035  0.46977  0.26918  1.0000
  C   C15       1.0  0.46137  0.43172  0.80732  1.0000
  C   C16       1.0  0.53863  0.56828  0.19268  1.0000
  C   C17       1.0  0.62113  0.42734  0.83964  1.0000
  C   C18       1.0  0.37887  0.57266  0.16036  1.0000
  C   C19       1.0  0.73119  0.51631  0.80119  1.0000
  C   C20       1.0  0.26881  0.48370  0.19881  1.0000
  C   C21       1.0  0.68993  0.61284  0.72608  1.0000
  C   C22       1.0  0.31007  0.38716  0.27392  1.0000
  C   C23       1.0  0.53846  0.61905  0.69056  1.0000
  C   C24       1.0  0.46153  0.38094  0.30944  1.0000
  C   C25       1.0  0.91518  0.98421  0.23560  1.0000
  C   C26       1.0  0.08482  0.01578  0.76440  1.0000
  C   C27       1.0  0.27914  0.02733  0.26363  1.0000
  C   C28       1.0  0.72086  0.97267  0.73636  1.0000
  C   C29       1.0  0.13859  0.95762  0.34658  1.0000
  C   C30       1.0  0.86141  0.04239  0.65342  1.0000
  C   C31       1.0  0.97106  0.94354  0.33509  1.0000
  C   C32       1.0  0.02894  0.05645  0.66491  1.0000
  C   C33       1.0  0.84192  0.89164  0.42090  1.0000
  C   C34       1.0  0.15808  0.10835  0.57910  1.0000
  C   C35       1.0  0.87849  0.85418  0.51535  1.0000
  C   C36       1.0  0.12151  0.14581  0.48465  1.0000
  C   C37       1.0  0.04913  0.86247  0.52988  1.0000
  C   C38       1.0  0.95087  0.13754  0.47012  1.0000
  C   C39       1.0  0.18193  0.91348  0.44410  1.0000
  C   C40       1.0  0.81807  0.08652  0.55590  1.0000
  C   C41       1.0  0.35282  0.92027  0.45926  1.0000
  C   C42       1.0  0.64718  0.07974  0.54074  1.0000
  C   C43       1.0  0.38924  0.88070  0.55437  1.0000
  C   C44       1.0  0.61076  0.11930  0.44563  1.0000
  C   C45       1.0  0.25712  0.83371  0.63891  1.0000
  C   C46       1.0  0.74288  0.16629  0.36109  1.0000
  C   C47       1.0  0.09023  0.82457  0.62682  1.0000
  C   C48       1.0  0.90976  0.17542  0.37318  1.0000
  C   C49       1.0  0.91119  0.25639  0.08828  1.0000
  C   C50       1.0  0.08881  0.74361  0.91171  1.0000
  C   C51       1.0  0.01817  0.34757  0.05231  1.0000
  C   C52       1.0  0.98183  0.65243  0.94769  1.0000
  C   C53       1.0  0.94531  0.45012  0.02331  1.0000
  C   C54       1.0  0.05469  0.54988  0.97670  1.0000
  C   C55       1.0  0.76336  0.45372  0.03954  1.0000
  C   C56       1.0  0.23664  0.54628  0.96047  1.0000
  C   C57       1.0  0.66514  0.35896  0.07602  1.0000
  C   C58       1.0  0.33486  0.64104  0.92398  1.0000
  C   C59       1.0  0.23701  0.63457  0.37187  1.0000
  C   C60       1.0  0.76300  0.36544  0.62812  1.0000
  C   C61       1.0  0.29715  0.54507  0.44366  1.0000
  C   C62       1.0  0.70285  0.45494  0.55634  1.0000
  C   C63       1.0  0.46351  0.54795  0.46419  1.0000
  C   C64       1.0  0.53649  0.45205  0.53582  1.0000
  C   C65       1.0  0.55681  0.64634  0.41239  1.0000
  C   C66       1.0  0.44319  0.35367  0.58760  1.0000
  C   C67       1.0  0.48794  0.73227  0.34114  1.0000
  C   C68       1.0  0.51206  0.26774  0.65885  1.0000
  N   N1        1.0  0.73744  0.26141  0.09773  1.0000
  N   N2        1.0  0.26255  0.73858  0.90227  1.0000
  N   N3        1.0  0.33147  0.72651  0.31942  1.0000
  N   N4        1.0  0.66854  0.27349  0.68058  1.0000
  O   O1        1.0  0.40285  0.23895  0.01053  1.0000
  O   O2        1.0  0.59715  0.76104  0.98947  1.0000
  O   O3        1.0  0.44391  0.16234  0.89743  1.0000
  O   O4        1.0  0.55609  0.83765  0.10256  1.0000
  O   O5        1.0  0.07675  0.18094  0.93551  1.0000
  O   O6        1.0  0.92326  0.81905  0.06449  1.0000
  O   O7        1.0  0.94700  0.26203  0.80108  1.0000
  O   O8        1.0  0.05300  0.73797  0.19892  1.0000
  O   O9        1.0  0.03151  0.98982  0.15951  1.0000
  O   O10       1.0  0.96849  0.01018  0.84049  1.0000
  O   O11       1.0  0.75886  0.00968  0.23303  1.0000
  O   O12       1.0  0.24114  0.99031  0.76697  1.0000
  O   O13       1.0  0.37920  0.98289  0.21011  1.0000
  O   O14       1.0  0.62080  0.01711  0.78989  1.0000
  O   O15       1.0  0.30572  0.12148  0.25409  1.0000
  O   O16       1.0  0.69428  0.87852  0.74591  1.0000
  O   O17       1.0  0.71869  0.04482  0.00275  1.0000
  O   O18       1.0  0.28132  0.95518  0.99725  1.0000
