data_image0
_chemical_formula_structural       Cu2H44C32S4N4O16
_chemical_formula_sum              "Cu2 H44 C32 S4 N4 O16"
_cell_length_a       7.17294
_cell_length_b       8.25861
_cell_length_c       16.1913
_cell_angle_alpha    90.0008
_cell_angle_beta     89.9995
_cell_angle_gamma    102.24

_space_group_name_H-M_alt    "P 1"
_space_group_IT_number       1

loop_
  _space_group_symop_operation_xyz
  'x, y, z'

loop_
  _atom_site_type_symbol
  _atom_site_label
  _atom_site_symmetry_multiplicity
  _atom_site_fract_x
  _atom_site_fract_y
  _atom_site_fract_z
  _atom_site_occupancy
  Cu  Cu1       1.0  1.00000  0.99999  0.50000  1.0000
  Cu  Cu2       1.0  1.00000  0.50001  1.00000  1.0000
  H   H1        1.0  0.81661  0.42621  0.51788  1.0000
  H   H2        1.0  0.18340  0.07380  0.01787  1.0000
  H   H3        1.0  0.18339  0.57377  0.48212  1.0000
  H   H4        1.0  0.81661  0.92620  0.98213  1.0000
  H   H5        1.0  0.46413  0.73027  0.40613  1.0000
  H   H6        1.0  0.53587  0.76971  0.90613  1.0000
  H   H7        1.0  0.53586  0.26971  0.59387  1.0000
  H   H8        1.0  0.46414  0.23029  0.09387  1.0000
  H   H9        1.0  0.95156  0.71324  0.62052  1.0000
  H   H10       1.0  0.04844  0.78678  0.12052  1.0000
  H   H11       1.0  0.04843  0.28675  0.37948  1.0000
  H   H12       1.0  0.95155  0.21323  0.87948  1.0000
  H   H13       1.0  0.96093  0.87157  0.69572  1.0000
  H   H14       1.0  0.03906  0.62845  0.19572  1.0000
  H   H15       1.0  0.03907  0.12842  0.30427  1.0000
  H   H16       1.0  0.96094  0.37156  0.80428  1.0000
  H   H17       1.0  0.74257  0.51724  0.69961  1.0000
  H   H18       1.0  0.25744  0.98278  0.19961  1.0000
  H   H19       1.0  0.25742  0.48276  0.30040  1.0000
  H   H20       1.0  0.74257  0.01723  0.80039  1.0000
  H   H21       1.0  0.80761  0.65257  0.78475  1.0000
  H   H22       1.0  0.19239  0.84745  0.28476  1.0000
  H   H23       1.0  0.19239  0.34744  0.21525  1.0000
  H   H24       1.0  0.80761  0.15256  0.71525  1.0000
  H   H25       1.0  0.43012  0.57158  0.71386  1.0000
  H   H26       1.0  0.56988  0.92843  0.21386  1.0000
  H   H27       1.0  0.56988  0.42843  0.28615  1.0000
  H   H28       1.0  0.43012  0.07158  0.78614  1.0000
  H   H29       1.0  0.51225  0.74604  0.77704  1.0000
  H   H30       1.0  0.48774  0.75396  0.27704  1.0000
  H   H31       1.0  0.48776  0.25397  0.22296  1.0000
  H   H32       1.0  0.51225  0.24603  0.72296  1.0000
  H   H33       1.0  0.26101  0.73345  0.61644  1.0000
  H   H34       1.0  0.73899  0.76655  0.11644  1.0000
  H   H35       1.0  0.73899  0.26655  0.38356  1.0000
  H   H36       1.0  0.26101  0.23346  0.88356  1.0000
  H   H37       1.0  0.40252  0.91173  0.56645  1.0000
  H   H38       1.0  0.59748  0.58827  0.06645  1.0000
  H   H39       1.0  0.59749  0.08827  0.43356  1.0000
  H   H40       1.0  0.40251  0.41174  0.93355  1.0000
  H   H41       1.0  0.33253  0.92241  0.67197  1.0000
  H   H42       1.0  0.66746  0.57759  0.17197  1.0000
  H   H43       1.0  0.66746  0.07759  0.32803  1.0000
  H   H44       1.0  0.33254  0.42241  0.82802  1.0000
  C   C1        1.0  0.65591  0.58626  0.45658  1.0000
  C   C2        1.0  0.34409  0.91374  0.95658  1.0000
  C   C3        1.0  0.34409  0.41372  0.54342  1.0000
  C   C4        1.0  0.65592  0.08628  0.04341  1.0000
  C   C5        1.0  0.67856  0.45919  0.51023  1.0000
  C   C6        1.0  0.32144  0.04081  0.01022  1.0000
  C   C7        1.0  0.32144  0.54079  0.48977  1.0000
  C   C8        1.0  0.67857  0.95920  0.98977  1.0000
  C   C9        1.0  0.47864  0.62807  0.44639  1.0000
  C   C10       1.0  0.52136  0.87191  0.94638  1.0000
  C   C11       1.0  0.52135  0.37191  0.55361  1.0000
  C   C12       1.0  0.47865  0.12809  0.05361  1.0000
  C   C13       1.0  0.72015  0.84018  0.61649  1.0000
  C   C14       1.0  0.27984  0.65983  0.11649  1.0000
  C   C15       1.0  0.27984  0.15981  0.38351  1.0000
  C   C16       1.0  0.72015  0.34019  0.88351  1.0000
  C   C17       1.0  0.86521  0.76938  0.66330  1.0000
  C   C18       1.0  0.13479  0.73064  0.16330  1.0000
  C   C19       1.0  0.13479  0.23061  0.33670  1.0000
  C   C20       1.0  0.86520  0.26938  0.83670  1.0000
  C   C21       1.0  0.74648  0.64278  0.72254  1.0000
  C   C22       1.0  0.25352  0.85724  0.22254  1.0000
  C   C23       1.0  0.25352  0.35722  0.27747  1.0000
  C   C24       1.0  0.74648  0.14277  0.77746  1.0000
  C   C25       1.0  0.54579  0.68148  0.72142  1.0000
  C   C26       1.0  0.45420  0.81853  0.22143  1.0000
  C   C27       1.0  0.45421  0.31852  0.27858  1.0000
  C   C28       1.0  0.54579  0.18148  0.77858  1.0000
  C   C29       1.0  0.37618  0.84299  0.62453  1.0000
  C   C30       1.0  0.62381  0.65701  0.12453  1.0000
  C   C31       1.0  0.62382  0.15701  0.37548  1.0000
  C   C32       1.0  0.37618  0.34300  0.87547  1.0000
  S   S1        1.0  0.85967  0.69313  0.40095  1.0000
  S   S2        1.0  0.14033  0.80686  0.90094  1.0000
  S   S3        1.0  0.14032  0.30685  0.59905  1.0000
  S   S4        1.0  0.85968  0.19315  0.09905  1.0000
  N   N1        1.0  0.54768  0.78987  0.64976  1.0000
  N   N2        1.0  0.45231  0.71014  0.14976  1.0000
  N   N3        1.0  0.45232  0.21013  0.35024  1.0000
  N   N4        1.0  0.54769  0.28987  0.85024  1.0000
  O   O1        1.0  0.99906  0.76997  0.46784  1.0000
  O   O2        1.0  0.00094  0.73002  0.96784  1.0000
  O   O3        1.0  0.00093  0.23000  0.53215  1.0000
  O   O4        1.0  0.99907  0.27000  0.03215  1.0000
  O   O5        1.0  0.80141  0.81972  0.35057  1.0000
  O   O6        1.0  0.19860  0.68026  0.85057  1.0000
  O   O7        1.0  0.19858  0.18026  0.64943  1.0000
  O   O8        1.0  0.80141  0.31975  0.14943  1.0000
  O   O9        1.0  0.93625  0.56692  0.35769  1.0000
  O   O10       1.0  0.06377  0.93307  0.85768  1.0000
  O   O11       1.0  0.06374  0.43306  0.64231  1.0000
  O   O12       1.0  0.93626  0.06694  0.14231  1.0000
  O   O13       1.0  0.75131  0.93832  0.55502  1.0000
  O   O14       1.0  0.24868  0.56169  0.05503  1.0000
  O   O15       1.0  0.24869  0.06167  0.44497  1.0000
  O   O16       1.0  0.75131  0.43833  0.94497  1.0000
