data_image0
_chemical_formula_structural       Zn4P4H64C40N4Cl8O12
_chemical_formula_sum              "Zn4 P4 H64 C40 N4 Cl8 O12"
_cell_length_a       7.74685
_cell_length_b       7.82311
_cell_length_c       27.9446
_cell_angle_alpha    89.9999
_cell_angle_beta     90
_cell_angle_gamma    117.359

_space_group_name_H-M_alt    "P 1"
_space_group_IT_number       1

loop_
  _space_group_symop_operation_xyz
  'x, y, z'

loop_
  _atom_site_type_symbol
  _atom_site_label
  _atom_site_symmetry_multiplicity
  _atom_site_fract_x
  _atom_site_fract_y
  _atom_site_fract_z
  _atom_site_occupancy
  Zn  Zn1       1.0  0.61344  0.95568  0.30049  1.0000
  Zn  Zn2       1.0  0.38657  0.04432  0.80049  1.0000
  Zn  Zn3       1.0  0.76849  0.54933  0.55208  1.0000
  Zn  Zn4       1.0  0.23151  0.45067  0.05208  1.0000
  P   P1        1.0  0.60182  0.19372  0.20337  1.0000
  P   P2        1.0  0.39817  0.80628  0.70337  1.0000
  P   P3        1.0  0.00712  0.58931  0.45011  1.0000
  P   P4        1.0  0.99289  0.41069  0.95011  1.0000
  H   H1        1.0  0.85975  0.36823  0.09607  1.0000
  H   H2        1.0  0.14025  0.63177  0.59608  1.0000
  H   H3        1.0  0.57801  0.77095  0.13788  1.0000
  H   H4        1.0  0.42200  0.22905  0.63788  1.0000
  H   H5        1.0  0.86003  0.74039  0.10168  1.0000
  H   H6        1.0  0.13997  0.25961  0.60168  1.0000
  H   H7        1.0  0.13386  0.03331  0.06610  1.0000
  H   H8        1.0  0.86614  0.96669  0.56610  1.0000
  H   H9        1.0  0.40437  0.96711  0.14606  1.0000
  H   H10       1.0  0.59564  0.03289  0.64606  1.0000
  H   H11       1.0  0.50679  0.20536  0.12241  1.0000
  H   H12       1.0  0.49321  0.79464  0.62241  1.0000
  H   H13       1.0  0.96147  0.47641  0.25397  1.0000
  H   H14       1.0  0.03852  0.52357  0.75398  1.0000
  H   H15       1.0  0.76201  0.53071  0.26052  1.0000
  H   H16       1.0  0.23799  0.46929  0.76052  1.0000
  H   H17       1.0  0.09641  0.72757  0.18849  1.0000
  H   H18       1.0  0.90359  0.27243  0.68849  1.0000
  H   H19       1.0  0.07900  0.82787  0.24465  1.0000
  H   H20       1.0  0.92100  0.17212  0.74465  1.0000
  H   H21       1.0  0.90412  0.78871  0.19928  1.0000
  H   H22       1.0  0.09589  0.21129  0.69928  1.0000
  H   H23       1.0  0.41861  0.47405  0.23672  1.0000
  H   H24       1.0  0.58139  0.52594  0.73672  1.0000
  H   H25       1.0  0.44848  0.42290  0.17574  1.0000
  H   H26       1.0  0.55152  0.57710  0.67574  1.0000
  H   H27       1.0  0.10666  0.14991  0.17621  1.0000
  H   H28       1.0  0.89334  0.85009  0.67621  1.0000
  H   H29       1.0  0.11127  0.37439  0.18903  1.0000
  H   H30       1.0  0.88872  0.62561  0.68903  1.0000
  H   H31       1.0  0.07670  0.20770  0.23626  1.0000
  H   H32       1.0  0.92329  0.79229  0.73626  1.0000
  H   H33       1.0  0.89277  0.30194  0.34927  1.0000
  H   H34       1.0  0.10723  0.69806  0.84927  1.0000
  H   H35       1.0  0.59676  0.63182  0.38954  1.0000
  H   H36       1.0  0.40324  0.36818  0.88954  1.0000
  H   H37       1.0  0.28783  0.35838  0.35982  1.0000
  H   H38       1.0  0.71217  0.64162  0.85982  1.0000
  H   H39       1.0  0.29892  0.06656  0.32620  1.0000
  H   H40       1.0  0.70108  0.93344  0.82621  1.0000
  H   H41       1.0  0.95338  0.78270  0.39258  1.0000
  H   H42       1.0  0.04661  0.21729  0.89258  1.0000
  H   H43       1.0  0.08128  0.66538  0.36724  1.0000
  H   H44       1.0  0.91872  0.33461  0.86724  1.0000
  H   H45       1.0  0.95105  0.26351  0.50461  1.0000
  H   H46       1.0  0.04895  0.73649  0.00461  1.0000
  H   H47       1.0  0.20948  0.38822  0.49889  1.0000
  H   H48       1.0  0.79052  0.61178  0.99889  1.0000
  H   H49       1.0  0.93837  0.03928  0.43753  1.0000
  H   H50       1.0  0.06164  0.96072  0.93753  1.0000
  H   H51       1.0  0.08507  0.03248  0.48600  1.0000
  H   H52       1.0  0.91493  0.96752  0.98600  1.0000
  H   H53       1.0  0.19589  0.16347  0.43333  1.0000
  H   H54       1.0  0.80411  0.83653  0.93333  1.0000
  H   H55       1.0  0.37753  0.82007  0.41099  1.0000
  H   H56       1.0  0.62247  0.17994  0.91099  1.0000
  H   H57       1.0  0.43695  0.71813  0.46211  1.0000
  H   H58       1.0  0.56305  0.28187  0.96211  1.0000
  H   H59       1.0  0.47272  0.12751  0.45791  1.0000
  H   H60       1.0  0.52728  0.87249  0.95791  1.0000
  H   H61       1.0  0.66809  0.06954  0.45348  1.0000
  H   H62       1.0  0.33191  0.93046  0.95348  1.0000
  H   H63       1.0  0.53416  0.02358  0.50781  1.0000
  H   H64       1.0  0.46584  0.97642  0.00781  1.0000
  C   C1        1.0  0.85253  0.22586  0.09808  1.0000
  C   C2        1.0  0.14747  0.77414  0.59808  1.0000
  C   C3        1.0  0.69703  0.07267  0.12032  1.0000
  C   C4        1.0  0.30298  0.92733  0.62032  1.0000
  C   C5        1.0  0.69863  0.89458  0.12149  1.0000
  C   C6        1.0  0.30137  0.10542  0.62149  1.0000
  C   C7        1.0  0.85430  0.87677  0.10139  1.0000
  C   C8        1.0  0.14571  0.12323  0.60139  1.0000
  C   C9        1.0  0.00591  0.03794  0.08101  1.0000
  C   C10       1.0  0.99410  0.96207  0.58101  1.0000
  C   C11       1.0  0.53857  0.10374  0.14335  1.0000
  C   C12       1.0  0.46143  0.89625  0.64335  1.0000
  C   C13       1.0  0.87290  0.53271  0.23562  1.0000
  C   C14       1.0  0.12710  0.46729  0.73562  1.0000
  C   C15       1.0  0.99536  0.73105  0.21558  1.0000
  C   C16       1.0  0.00464  0.26895  0.71558  1.0000
  C   C17       1.0  0.37042  0.36078  0.20930  1.0000
  C   C18       1.0  0.62957  0.63922  0.70930  1.0000
  C   C19       1.0  0.15330  0.26691  0.20250  1.0000
  C   C20       1.0  0.84670  0.73309  0.70250  1.0000
  C   C21       1.0  0.76272  0.32174  0.35273  1.0000
  C   C22       1.0  0.23728  0.67825  0.85273  1.0000
  C   C23       1.0  0.77006  0.48873  0.37251  1.0000
  C   C24       1.0  0.22994  0.51127  0.87251  1.0000
  C   C25       1.0  0.59631  0.50196  0.37528  1.0000
  C   C26       1.0  0.40369  0.49804  0.87529  1.0000
  C   C27       1.0  0.42416  0.35015  0.35890  1.0000
  C   C28       1.0  0.57584  0.64986  0.85890  1.0000
  C   C29       1.0  0.42917  0.18824  0.33994  1.0000
  C   C30       1.0  0.57083  0.81177  0.83994  1.0000
  C   C31       1.0  0.95910  0.64519  0.39075  1.0000
  C   C32       1.0  0.04090  0.35481  0.89075  1.0000
  C   C33       1.0  0.07305  0.29951  0.47982  1.0000
  C   C34       1.0  0.92695  0.70050  0.97982  1.0000
  C   C35       1.0  0.07258  0.12354  0.45779  1.0000
  C   C36       1.0  0.92742  0.87646  0.95779  1.0000
  C   C37       1.0  0.38902  0.82360  0.45032  1.0000
  C   C38       1.0  0.61098  0.17640  0.95032  1.0000
  C   C39       1.0  0.52257  0.02263  0.46865  1.0000
  C   C40       1.0  0.47743  0.97737  0.96865  1.0000
  N   N1        1.0  0.00355  0.20905  0.07921  1.0000
  N   N2        1.0  0.99645  0.79095  0.57921  1.0000
  N   N3        1.0  0.59663  0.17581  0.33682  1.0000
  N   N4        1.0  0.40337  0.82419  0.83682  1.0000
  Cl  Cl1       1.0  0.89710  0.96968  0.32143  1.0000
  Cl  Cl2       1.0  0.10290  0.03032  0.82144  1.0000
  Cl  Cl3       1.0  0.32933  0.69173  0.30518  1.0000
  Cl  Cl4       1.0  0.67067  0.30827  0.80518  1.0000
  Cl  Cl5       1.0  0.50350  0.59159  0.55470  1.0000
  Cl  Cl6       1.0  0.49650  0.40841  0.05470  1.0000
  Cl  Cl7       1.0  0.78988  0.30296  0.58708  1.0000
  Cl  Cl8       1.0  0.21012  0.69704  0.08708  1.0000
  O   O1        1.0  0.64968  0.06298  0.23359  1.0000
  O   O2        1.0  0.35032  0.93703  0.73359  1.0000
  O   O3        1.0  0.77439  0.40318  0.19519  1.0000
  O   O4        1.0  0.22560  0.59682  0.69519  1.0000
  O   O5        1.0  0.42611  0.21497  0.22672  1.0000
  O   O6        1.0  0.57388  0.78502  0.72672  1.0000
  O   O7        1.0  0.83936  0.54718  0.48293  1.0000
  O   O8        1.0  0.16064  0.45282  0.98293  1.0000
  O   O9        1.0  0.05422  0.41559  0.44053  1.0000
  O   O10       1.0  0.94578  0.58441  0.94053  1.0000
  O   O11       1.0  0.19535  0.76508  0.47102  1.0000
  O   O12       1.0  0.80465  0.23492  0.97102  1.0000
