data_image0
_chemical_formula_structural       Ca2H24C8O20
_chemical_formula_sum              "Ca2 H24 C8 O20"
_cell_length_a       6.16258
_cell_length_b       8.24902
_cell_length_c       10.256
_cell_angle_alpha    95.4042
_cell_angle_beta     105.576
_cell_angle_gamma    107.768

_space_group_name_H-M_alt    "P 1"
_space_group_IT_number       1

loop_
  _space_group_symop_operation_xyz
  'x, y, z'

loop_
  _atom_site_type_symbol
  _atom_site_label
  _atom_site_symmetry_multiplicity
  _atom_site_fract_x
  _atom_site_fract_y
  _atom_site_fract_z
  _atom_site_occupancy
  Ca  Ca1       1.0  0.34631  0.69793  0.27572  1.0000
  Ca  Ca2       1.0  0.65369  0.30207  0.72427  1.0000
  H   H1        1.0  0.52308  0.25368  0.29215  1.0000
  H   H2        1.0  0.47693  0.74632  0.70785  1.0000
  H   H3        1.0  0.76127  0.25731  0.12597  1.0000
  H   H4        1.0  0.23873  0.74269  0.87403  1.0000
  H   H5        1.0  0.68611  0.51245  0.43208  1.0000
  H   H6        1.0  0.31389  0.48755  0.56792  1.0000
  H   H7        1.0  0.82840  0.52376  0.06745  1.0000
  H   H8        1.0  0.17160  0.47624  0.93255  1.0000
  H   H9        1.0  0.74443  0.77969  0.53635  1.0000
  H   H10       1.0  0.25557  0.22031  0.46365  1.0000
  H   H11       1.0  0.68638  0.94666  0.54896  1.0000
  H   H12       1.0  0.31362  0.05334  0.45104  1.0000
  H   H13       1.0  0.77659  0.00692  0.27043  1.0000
  H   H14       1.0  0.22341  0.99308  0.72957  1.0000
  H   H15       1.0  0.70728  0.85867  0.13599  1.0000
  H   H16       1.0  0.29272  0.14133  0.86401  1.0000
  H   H17       1.0  0.02323  0.83284  0.05794  1.0000
  H   H18       1.0  0.97677  0.16716  0.94206  1.0000
  H   H19       1.0  0.26576  0.98294  0.08906  1.0000
  H   H20       1.0  0.73424  0.01706  0.91094  1.0000
  H   H21       1.0  0.97933  0.84421  0.32338  1.0000
  H   H22       1.0  0.02067  0.15579  0.67662  1.0000
  H   H23       1.0  0.10685  0.81091  0.46833  1.0000
  H   H24       1.0  0.89315  0.18909  0.53167  1.0000
  C   C1        1.0  0.37812  0.34518  0.11167  1.0000
  C   C2        1.0  0.62188  0.65482  0.88833  1.0000
  C   C3        1.0  0.57775  0.36753  0.24441  1.0000
  C   C4        1.0  0.42226  0.63247  0.75559  1.0000
  C   C5        1.0  0.80927  0.37119  0.20769  1.0000
  C   C6        1.0  0.19073  0.62881  0.79231  1.0000
  C   C7        1.0  0.98553  0.35260  0.33646  1.0000
  C   C8        1.0  0.01448  0.64740  0.66354  1.0000
  O   O1        1.0  0.31480  0.47500  0.08816  1.0000
  O   O2        1.0  0.68520  0.52500  0.91183  1.0000
  O   O3        1.0  0.28808  0.19656  0.03181  1.0000
  O   O4        1.0  0.71192  0.80344  0.96819  1.0000
  O   O5        1.0  0.61648  0.52195  0.33417  1.0000
  O   O6        1.0  0.38352  0.47805  0.66583  1.0000
  O   O7        1.0  0.91519  0.52691  0.16663  1.0000
  O   O8        1.0  0.08481  0.47309  0.83337  1.0000
  O   O9        1.0  0.93117  0.20634  0.37461  1.0000
  O   O10       1.0  0.06883  0.79366  0.62538  1.0000
  O   O11       1.0  0.17215  0.48138  0.40047  1.0000
  O   O12       1.0  0.82785  0.51862  0.59953  1.0000
  O   O13       1.0  0.60629  0.81936  0.50963  1.0000
  O   O14       1.0  0.39371  0.18064  0.49037  1.0000
  O   O15       1.0  0.71252  0.87928  0.23383  1.0000
  O   O16       1.0  0.28748  0.12072  0.76617  1.0000
  O   O17       1.0  0.19864  0.86147  0.09919  1.0000
  O   O18       1.0  0.80136  0.13853  0.90081  1.0000
  O   O19       1.0  0.13867  0.84942  0.38411  1.0000
  O   O20       1.0  0.86133  0.15058  0.61589  1.0000
