data_image0
_chemical_formula_structural       Tl8H4C20O16
_chemical_formula_sum              "Tl8 H4 C20 O16"
_cell_length_a       6.2637
_cell_length_b       7.56031
_cell_length_c       15.3366
_cell_angle_alpha    101.553
_cell_angle_beta     90.0001
_cell_angle_gamma    89.9998

_space_group_name_H-M_alt    "P 1"
_space_group_IT_number       1

loop_
  _space_group_symop_operation_xyz
  'x, y, z'

loop_
  _atom_site_type_symbol
  _atom_site_label
  _atom_site_symmetry_multiplicity
  _atom_site_fract_x
  _atom_site_fract_y
  _atom_site_fract_z
  _atom_site_occupancy
  Tl  Tl1       1.0  0.53246  0.15847  0.40708  1.0000
  Tl  Tl2       1.0  0.03248  0.34153  0.09292  1.0000
  Tl  Tl3       1.0  0.46753  0.84153  0.59292  1.0000
  Tl  Tl4       1.0  0.96755  0.65847  0.90708  1.0000
  Tl  Tl5       1.0  0.59857  0.60032  0.28634  1.0000
  Tl  Tl6       1.0  0.09857  0.89967  0.21365  1.0000
  Tl  Tl7       1.0  0.40143  0.39968  0.71365  1.0000
  Tl  Tl8       1.0  0.90143  0.10032  0.78634  1.0000
  H   H1        1.0  0.54541  0.31519  0.08240  1.0000
  H   H2        1.0  0.04539  0.18481  0.41760  1.0000
  H   H3        1.0  0.45461  0.68482  0.91760  1.0000
  H   H4        1.0  0.95460  0.81518  0.58240  1.0000
  C   C1        1.0  0.61799  0.07675  0.18775  1.0000
  C   C2        1.0  0.11799  0.42327  0.31226  1.0000
  C   C3        1.0  0.38201  0.92327  0.81226  1.0000
  C   C4        1.0  0.88201  0.57674  0.68774  1.0000
  C   C5        1.0  0.55798  0.03402  0.09060  1.0000
  C   C6        1.0  0.05798  0.46598  0.40940  1.0000
  C   C7        1.0  0.44201  0.96600  0.90940  1.0000
  C   C8        1.0  0.94202  0.53401  0.59060  1.0000
  C   C9        1.0  0.52895  0.85470  0.04445  1.0000
  C   C10       1.0  0.02893  0.64530  0.45555  1.0000
  C   C11       1.0  0.47107  0.14531  0.95556  1.0000
  C   C12       1.0  0.97106  0.35469  0.54445  1.0000
  C   C13       1.0  0.56719  0.69439  0.08786  1.0000
  C   C14       1.0  0.06718  0.80560  0.41213  1.0000
  C   C15       1.0  0.43282  0.30560  0.91213  1.0000
  C   C16       1.0  0.93281  0.19439  0.58787  1.0000
  C   C17       1.0  0.52888  0.17630  0.04551  1.0000
  C   C18       1.0  0.02886  0.32369  0.45449  1.0000
  C   C19       1.0  0.47114  0.82367  0.95448  1.0000
  C   C20       1.0  0.97113  0.67632  0.54552  1.0000
  O   O1        1.0  0.55550  0.96587  0.23548  1.0000
  O   O2        1.0  0.05550  0.53414  0.26451  1.0000
  O   O3        1.0  0.44450  0.03413  0.76452  1.0000
  O   O4        1.0  0.94449  0.46587  0.73549  1.0000
  O   O5        1.0  0.72772  0.21760  0.21641  1.0000
  O   O6        1.0  0.22772  0.28241  0.28360  1.0000
  O   O7        1.0  0.27227  0.78240  0.78360  1.0000
  O   O8        1.0  0.77227  0.71760  0.71640  1.0000
  O   O9        1.0  0.76180  0.65372  0.09906  1.0000
  O   O10       1.0  0.26179  0.84627  0.40094  1.0000
  O   O11       1.0  0.23820  0.34628  0.90094  1.0000
  O   O12       1.0  0.73820  0.15374  0.59907  1.0000
  O   O13       1.0  0.40506  0.61178  0.10907  1.0000
  O   O14       1.0  0.90506  0.88822  0.39092  1.0000
  O   O15       1.0  0.59494  0.38822  0.89092  1.0000
  O   O16       1.0  0.09494  0.11178  0.60908  1.0000
