data_image0
_chemical_formula_structural       Cd4H32C48S4N16O24
_chemical_formula_sum              "Cd4 H32 C48 S4 N16 O24"
_cell_length_a       7.54966
_cell_length_b       11.8183
_cell_length_c       16.4948
_cell_angle_alpha    89.9999
_cell_angle_beta     90
_cell_angle_gamma    94.3768

_space_group_name_H-M_alt    "P 1"
_space_group_IT_number       1

loop_
  _space_group_symop_operation_xyz
  'x, y, z'

loop_
  _atom_site_type_symbol
  _atom_site_label
  _atom_site_symmetry_multiplicity
  _atom_site_fract_x
  _atom_site_fract_y
  _atom_site_fract_z
  _atom_site_occupancy
  Cd  Cd1       1.0  0.05035  0.21500  0.18425  1.0000
  Cd  Cd2       1.0  0.44964  0.78500  0.68425  1.0000
  Cd  Cd3       1.0  0.94965  0.78500  0.81575  1.0000
  Cd  Cd4       1.0  0.55035  0.21500  0.31575  1.0000
  H   H1        1.0  0.19966  0.76263  0.05867  1.0000
  H   H2        1.0  0.30034  0.23737  0.55867  1.0000
  H   H3        1.0  0.80035  0.23737  0.94133  1.0000
  H   H4        1.0  0.69965  0.76263  0.44133  1.0000
  H   H5        1.0  0.18584  0.00967  0.07390  1.0000
  H   H6        1.0  0.31416  0.99033  0.57390  1.0000
  H   H7        1.0  0.81416  0.99033  0.92610  1.0000
  H   H8        1.0  0.68584  0.00967  0.42610  1.0000
  H   H9        1.0  0.93702  0.47188  0.25607  1.0000
  H   H10       1.0  0.56298  0.52812  0.75607  1.0000
  H   H11       1.0  0.06298  0.52812  0.74393  1.0000
  H   H12       1.0  0.43702  0.47188  0.24393  1.0000
  H   H13       1.0  0.37613  0.34761  0.91256  1.0000
  H   H14       1.0  0.12387  0.65238  0.41256  1.0000
  H   H15       1.0  0.62387  0.65238  0.08743  1.0000
  H   H16       1.0  0.87613  0.34761  0.58744  1.0000
  H   H17       1.0  0.02539  0.82091  0.17757  1.0000
  H   H18       1.0  0.47461  0.17909  0.67757  1.0000
  H   H19       1.0  0.97461  0.17909  0.82243  1.0000
  H   H20       1.0  0.52539  0.82091  0.32243  1.0000
  H   H21       1.0  0.89392  0.67913  0.27456  1.0000
  H   H22       1.0  0.60608  0.32087  0.77456  1.0000
  H   H23       1.0  0.10609  0.32086  0.72544  1.0000
  H   H24       1.0  0.39392  0.67914  0.22544  1.0000
  H   H25       1.0  0.33987  0.98344  0.94059  1.0000
  H   H26       1.0  0.16013  0.01656  0.44059  1.0000
  H   H27       1.0  0.66013  0.01656  0.05941  1.0000
  H   H28       1.0  0.83986  0.98344  0.55941  1.0000
  H   H29       1.0  0.43925  0.15616  0.85956  1.0000
  H   H30       1.0  0.06076  0.84383  0.35956  1.0000
  H   H31       1.0  0.56075  0.84383  0.14044  1.0000
  H   H32       1.0  0.93925  0.15616  0.64044  1.0000
  C   C1        1.0  0.16117  0.58433  0.08994  1.0000
  C   C2        1.0  0.33883  0.41567  0.58994  1.0000
  C   C3        1.0  0.83883  0.41567  0.91006  1.0000
  C   C4        1.0  0.66117  0.58433  0.41007  1.0000
  C   C5        1.0  0.20652  0.38666  0.05646  1.0000
  C   C6        1.0  0.29348  0.61334  0.55645  1.0000
  C   C7        1.0  0.79348  0.61334  0.94354  1.0000
  C   C8        1.0  0.70652  0.38666  0.44354  1.0000
  C   C9        1.0  0.14213  0.70003  0.10137  1.0000
  C   C10       1.0  0.35786  0.29997  0.60137  1.0000
  C   C11       1.0  0.85787  0.29997  0.89863  1.0000
  C   C12       1.0  0.64213  0.70003  0.39863  1.0000
  C   C13       1.0  0.08829  0.50207  0.14602  1.0000
  C   C14       1.0  0.41171  0.49793  0.64602  1.0000
  C   C15       1.0  0.91171  0.49793  0.85398  1.0000
  C   C16       1.0  0.58829  0.50207  0.35398  1.0000
  C   C17       1.0  0.23043  0.08182  0.03590  1.0000
  C   C18       1.0  0.26957  0.91818  0.53590  1.0000
  C   C19       1.0  0.76957  0.91818  0.96410  1.0000
  C   C20       1.0  0.73044  0.08182  0.46410  1.0000
  C   C21       1.0  0.99242  0.53575  0.21366  1.0000
  C   C22       1.0  0.50758  0.46425  0.71366  1.0000
  C   C23       1.0  0.00759  0.46425  0.78634  1.0000
  C   C24       1.0  0.49242  0.53575  0.28634  1.0000
  C   C25       1.0  0.24948  0.27822  0.02118  1.0000
  C   C26       1.0  0.25052  0.72177  0.52118  1.0000
  C   C27       1.0  0.75052  0.72178  0.97881  1.0000
  C   C28       1.0  0.74948  0.27822  0.47882  1.0000
  C   C29       1.0  0.33739  0.27088  0.94696  1.0000
  C   C30       1.0  0.16261  0.72912  0.44696  1.0000
  C   C31       1.0  0.66261  0.72911  0.05303  1.0000
  C   C32       1.0  0.83739  0.27088  0.55304  1.0000
  C   C33       1.0  0.04519  0.73165  0.16833  1.0000
  C   C34       1.0  0.45481  0.26835  0.66833  1.0000
  C   C35       1.0  0.95482  0.26835  0.83167  1.0000
  C   C36       1.0  0.54519  0.73165  0.33167  1.0000
  C   C37       1.0  0.97086  0.65063  0.22362  1.0000
  C   C38       1.0  0.52914  0.34937  0.72362  1.0000
  C   C39       1.0  0.02914  0.34937  0.77638  1.0000
  C   C40       1.0  0.47087  0.65063  0.27638  1.0000
  C   C41       1.0  0.31718  0.06805  0.96238  1.0000
  C   C42       1.0  0.18282  0.93195  0.46238  1.0000
  C   C43       1.0  0.68282  0.93195  0.03762  1.0000
  C   C44       1.0  0.81718  0.06805  0.53762  1.0000
  C   C45       1.0  0.37152  0.16442  0.91730  1.0000
  C   C46       1.0  0.12848  0.83558  0.41730  1.0000
  C   C47       1.0  0.62849  0.83557  0.08270  1.0000
  C   C48       1.0  0.87152  0.16442  0.58270  1.0000
  S   S1        1.0  0.26397  0.51704  0.01124  1.0000
  S   S2        1.0  0.23603  0.48296  0.51124  1.0000
  S   S3        1.0  0.73603  0.48296  0.98876  1.0000
  S   S4        1.0  0.76396  0.51704  0.48876  1.0000
  N   N1        1.0  0.18236  0.28493  0.35532  1.0000
  N   N2        1.0  0.31763  0.71507  0.85532  1.0000
  N   N3        1.0  0.81763  0.71507  0.64468  1.0000
  N   N4        1.0  0.68236  0.28493  0.14468  1.0000
  N   N5        1.0  0.11817  0.39224  0.12501  1.0000
  N   N6        1.0  0.38183  0.60776  0.62501  1.0000
  N   N7        1.0  0.88183  0.60776  0.87499  1.0000
  N   N8        1.0  0.61817  0.39224  0.37499  1.0000
  N   N9        1.0  0.91234  0.00565  0.25201  1.0000
  N   N10       1.0  0.58765  0.99435  0.75201  1.0000
  N   N11       1.0  0.08766  0.99435  0.74799  1.0000
  N   N12       1.0  0.41234  0.00565  0.24799  1.0000
  N   N13       1.0  0.19714  0.18429  0.06433  1.0000
  N   N14       1.0  0.30286  0.81571  0.56433  1.0000
  N   N15       1.0  0.80286  0.81571  0.93566  1.0000
  N   N16       1.0  0.69714  0.18429  0.43567  1.0000
  O   O1        1.0  0.84008  0.91500  0.27833  1.0000
  O   O2        1.0  0.65992  0.08500  0.77833  1.0000
  O   O3        1.0  0.15992  0.08500  0.72167  1.0000
  O   O4        1.0  0.34008  0.91500  0.22167  1.0000
  O   O5        1.0  0.26236  0.26370  0.28609  1.0000
  O   O6        1.0  0.23763  0.73630  0.78609  1.0000
  O   O7        1.0  0.73763  0.73630  0.71391  1.0000
  O   O8        1.0  0.76236  0.26370  0.21391  1.0000
  O   O9        1.0  0.03920  0.32963  0.35250  1.0000
  O   O10       1.0  0.46080  0.67037  0.85250  1.0000
  O   O11       1.0  0.96080  0.67037  0.64750  1.0000
  O   O12       1.0  0.53920  0.32963  0.14750  1.0000
  O   O13       1.0  0.25789  0.25887  0.41936  1.0000
  O   O14       1.0  0.24210  0.74113  0.91936  1.0000
  O   O15       1.0  0.74211  0.74113  0.58064  1.0000
  O   O16       1.0  0.75789  0.25887  0.08064  1.0000
  O   O17       1.0  0.94248  0.01972  0.17567  1.0000
  O   O18       1.0  0.55752  0.98028  0.67567  1.0000
  O   O19       1.0  0.05752  0.98028  0.82433  1.0000
  O   O20       1.0  0.44248  0.01972  0.32433  1.0000
  O   O21       1.0  0.95908  0.08849  0.29936  1.0000
  O   O22       1.0  0.54092  0.91151  0.79937  1.0000
  O   O23       1.0  0.04092  0.91151  0.70064  1.0000
  O   O24       1.0  0.45908  0.08849  0.20064  1.0000
