data_image0
_chemical_formula_structural       Cu4H64C56Se8N8Cl8
_chemical_formula_sum              "Cu4 H64 C56 Se8 N8 Cl8"
_cell_length_a       10.101
_cell_length_b       11.3854
_cell_length_c       14.7321
_cell_angle_alpha    90.0002
_cell_angle_beta     89.9986
_cell_angle_gamma    90.0002

_space_group_name_H-M_alt    "P 1"
_space_group_IT_number       1

loop_
  _space_group_symop_operation_xyz
  'x, y, z'

loop_
  _atom_site_type_symbol
  _atom_site_label
  _atom_site_symmetry_multiplicity
  _atom_site_fract_x
  _atom_site_fract_y
  _atom_site_fract_z
  _atom_site_occupancy
  Cu  Cu1       1.0  0.00000  0.00000  0.50000  1.0000
  Cu  Cu2       1.0  0.50000  0.50000  0.50000  1.0000
  Cu  Cu3       1.0  0.00000  0.50000  0.00000  1.0000
  Cu  Cu4       1.0  0.49999  0.99999  0.00001  1.0000
  H   H1        1.0  0.07276  0.81733  0.63691  1.0000
  H   H2        1.0  0.57276  0.68268  0.36309  1.0000
  H   H3        1.0  0.92723  0.31733  0.86309  1.0000
  H   H4        1.0  0.42724  0.18267  0.13691  1.0000
  H   H5        1.0  0.92724  0.18267  0.36309  1.0000
  H   H6        1.0  0.42724  0.31733  0.63691  1.0000
  H   H7        1.0  0.07277  0.68268  0.13691  1.0000
  H   H8        1.0  0.57276  0.81733  0.86309  1.0000
  H   H9        1.0  0.98459  0.75933  0.79122  1.0000
  H   H10       1.0  0.48460  0.74067  0.20878  1.0000
  H   H11       1.0  0.01541  0.25933  0.70878  1.0000
  H   H12       1.0  0.51539  0.24067  0.29121  1.0000
  H   H13       1.0  0.01541  0.24067  0.20878  1.0000
  H   H14       1.0  0.51540  0.25933  0.79121  1.0000
  H   H15       1.0  0.98460  0.74067  0.29122  1.0000
  H   H16       1.0  0.48461  0.75933  0.70879  1.0000
  H   H17       1.0  0.79570  0.87288  0.85544  1.0000
  H   H18       1.0  0.29571  0.62714  0.14456  1.0000
  H   H19       1.0  0.20430  0.37288  0.64456  1.0000
  H   H20       1.0  0.70430  0.12714  0.35544  1.0000
  H   H21       1.0  0.20431  0.12712  0.14457  1.0000
  H   H22       1.0  0.70430  0.37286  0.85544  1.0000
  H   H23       1.0  0.79570  0.62713  0.35544  1.0000
  H   H24       1.0  0.29570  0.87286  0.64456  1.0000
  H   H25       1.0  0.70683  0.04594  0.77029  1.0000
  H   H26       1.0  0.20684  0.45407  0.22972  1.0000
  H   H27       1.0  0.29317  0.54594  0.72971  1.0000
  H   H28       1.0  0.79316  0.95407  0.27028  1.0000
  H   H29       1.0  0.29317  0.95406  0.22971  1.0000
  H   H30       1.0  0.79316  0.54593  0.77028  1.0000
  H   H31       1.0  0.70683  0.45407  0.27029  1.0000
  H   H32       1.0  0.20684  0.04594  0.72972  1.0000
  H   H33       1.0  0.55530  0.10306  0.64275  1.0000
  H   H34       1.0  0.05531  0.39694  0.35725  1.0000
  H   H35       1.0  0.44470  0.60306  0.85725  1.0000
  H   H36       1.0  0.94470  0.89694  0.14275  1.0000
  H   H37       1.0  0.44469  0.89694  0.35725  1.0000
  H   H38       1.0  0.94469  0.60306  0.64275  1.0000
  H   H39       1.0  0.55530  0.39694  0.14275  1.0000
  H   H40       1.0  0.05530  0.10306  0.85725  1.0000
  H   H41       1.0  0.55679  0.18957  0.54158  1.0000
  H   H42       1.0  0.05679  0.31043  0.45842  1.0000
  H   H43       1.0  0.44321  0.68957  0.95842  1.0000
  H   H44       1.0  0.94321  0.81043  0.04158  1.0000
  H   H45       1.0  0.44321  0.81043  0.45842  1.0000
  H   H46       1.0  0.94321  0.68957  0.54158  1.0000
  H   H47       1.0  0.55679  0.31043  0.04158  1.0000
  H   H48       1.0  0.05679  0.18957  0.95841  1.0000
  H   H49       1.0  0.59475  0.92210  0.55579  1.0000
  H   H50       1.0  0.09475  0.57790  0.44421  1.0000
  H   H51       1.0  0.40524  0.42210  0.94421  1.0000
  H   H52       1.0  0.90525  0.07790  0.05579  1.0000
  H   H53       1.0  0.40525  0.07790  0.44421  1.0000
  H   H54       1.0  0.90524  0.42210  0.55579  1.0000
  H   H55       1.0  0.59475  0.57790  0.05579  1.0000
  H   H56       1.0  0.09476  0.92210  0.94421  1.0000
  H   H57       1.0  0.64012  0.00052  0.45856  1.0000
  H   H58       1.0  0.14012  0.49948  0.54144  1.0000
  H   H59       1.0  0.35988  0.50052  0.04144  1.0000
  H   H60       1.0  0.85988  0.99948  0.95856  1.0000
  H   H61       1.0  0.35988  0.99948  0.54144  1.0000
  H   H62       1.0  0.85988  0.50052  0.45856  1.0000
  H   H63       1.0  0.64012  0.49948  0.95856  1.0000
  H   H64       1.0  0.14012  0.00052  0.04144  1.0000
  C   C1        1.0  0.83995  0.01852  0.65676  1.0000
  C   C2        1.0  0.33996  0.48148  0.34324  1.0000
  C   C3        1.0  0.16005  0.51852  0.84324  1.0000
  C   C4        1.0  0.66004  0.98148  0.15676  1.0000
  C   C5        1.0  0.16004  0.98148  0.34324  1.0000
  C   C6        1.0  0.66004  0.51852  0.65676  1.0000
  C   C7        1.0  0.83996  0.48148  0.15676  1.0000
  C   C8        1.0  0.33996  0.01852  0.84324  1.0000
  C   C9        1.0  0.99152  0.86441  0.66930  1.0000
  C   C10       1.0  0.49152  0.63558  0.33069  1.0000
  C   C11       1.0  0.00848  0.36441  0.83070  1.0000
  C   C12       1.0  0.50848  0.13558  0.16930  1.0000
  C   C13       1.0  0.00848  0.13559  0.33070  1.0000
  C   C14       1.0  0.50848  0.36442  0.66930  1.0000
  C   C15       1.0  0.99152  0.63559  0.16930  1.0000
  C   C16       1.0  0.49152  0.86442  0.83070  1.0000
  C   C17       1.0  0.94221  0.83268  0.75372  1.0000
  C   C18       1.0  0.44223  0.66731  0.24628  1.0000
  C   C19       1.0  0.05778  0.33268  0.74628  1.0000
  C   C20       1.0  0.55778  0.16732  0.25372  1.0000
  C   C21       1.0  0.05779  0.16732  0.24628  1.0000
  C   C22       1.0  0.55778  0.33268  0.75372  1.0000
  C   C23       1.0  0.94221  0.66733  0.25372  1.0000
  C   C24       1.0  0.44223  0.83269  0.74628  1.0000
  C   C25       1.0  0.83641  0.89663  0.78944  1.0000
  C   C26       1.0  0.33642  0.60338  0.21056  1.0000
  C   C27       1.0  0.16359  0.39663  0.71056  1.0000
  C   C28       1.0  0.66358  0.10338  0.28944  1.0000
  C   C29       1.0  0.16359  0.10337  0.21056  1.0000
  C   C30       1.0  0.66358  0.39663  0.78944  1.0000
  C   C31       1.0  0.83642  0.60338  0.28944  1.0000
  C   C32       1.0  0.33642  0.89662  0.71056  1.0000
  C   C33       1.0  0.78527  0.99177  0.74133  1.0000
  C   C34       1.0  0.28527  0.50824  0.25867  1.0000
  C   C35       1.0  0.21473  0.49177  0.75867  1.0000
  C   C36       1.0  0.71473  0.00824  0.24134  1.0000
  C   C37       1.0  0.21473  0.00823  0.25867  1.0000
  C   C38       1.0  0.71473  0.49176  0.74133  1.0000
  C   C39       1.0  0.78527  0.50824  0.24133  1.0000
  C   C40       1.0  0.28527  0.99176  0.75866  1.0000
  C   C41       1.0  0.59661  0.11034  0.57407  1.0000
  C   C42       1.0  0.09661  0.38966  0.42593  1.0000
  C   C43       1.0  0.40339  0.61034  0.92593  1.0000
  C   C44       1.0  0.90339  0.88966  0.07407  1.0000
  C   C45       1.0  0.40339  0.88966  0.42594  1.0000
  C   C46       1.0  0.90339  0.61034  0.57407  1.0000
  C   C47       1.0  0.59661  0.38966  0.07407  1.0000
  C   C48       1.0  0.09661  0.11034  0.92593  1.0000
  C   C49       1.0  0.57188  0.00191  0.51657  1.0000
  C   C50       1.0  0.07188  0.49809  0.48343  1.0000
  C   C51       1.0  0.42812  0.50191  0.98343  1.0000
  C   C52       1.0  0.92812  0.99809  0.01657  1.0000
  C   C53       1.0  0.42812  0.99809  0.48343  1.0000
  C   C54       1.0  0.92812  0.50191  0.51657  1.0000
  C   C55       1.0  0.57188  0.49809  0.01657  1.0000
  C   C56       1.0  0.07188  0.00191  0.98343  1.0000
  Se  Se1       1.0  0.78620  0.15191  0.58451  1.0000
  Se  Se2       1.0  0.28621  0.34809  0.41548  1.0000
  Se  Se3       1.0  0.21379  0.65191  0.91549  1.0000
  Se  Se4       1.0  0.71379  0.84809  0.08452  1.0000
  Se  Se5       1.0  0.21379  0.84809  0.41550  1.0000
  Se  Se6       1.0  0.71379  0.65192  0.58451  1.0000
  Se  Se7       1.0  0.78621  0.34808  0.08452  1.0000
  Se  Se8       1.0  0.28621  0.15191  0.91548  1.0000
  N   N1        1.0  0.93946  0.95407  0.62178  1.0000
  N   N2        1.0  0.43946  0.54593  0.37822  1.0000
  N   N3        1.0  0.06053  0.45408  0.87822  1.0000
  N   N4        1.0  0.56054  0.04593  0.12178  1.0000
  N   N5        1.0  0.06054  0.04593  0.37822  1.0000
  N   N6        1.0  0.56054  0.45407  0.62178  1.0000
  N   N7        1.0  0.93947  0.54592  0.12178  1.0000
  N   N8        1.0  0.43945  0.95407  0.87822  1.0000
  Cl  Cl1       1.0  0.13410  0.14129  0.56704  1.0000
  Cl  Cl2       1.0  0.63411  0.35873  0.43298  1.0000
  Cl  Cl3       1.0  0.86591  0.64128  0.93298  1.0000
  Cl  Cl4       1.0  0.36586  0.85868  0.06704  1.0000
  Cl  Cl5       1.0  0.86591  0.85871  0.43296  1.0000
  Cl  Cl6       1.0  0.36589  0.64128  0.56702  1.0000
  Cl  Cl7       1.0  0.13410  0.35871  0.06703  1.0000
  Cl  Cl8       1.0  0.63412  0.14126  0.93298  1.0000
