data_image0
_chemical_formula_structural       Zn2H36C56N8O16
_chemical_formula_sum              "Zn2 H36 C56 N8 O16"
_cell_length_a       9.3886
_cell_length_b       10.2541
_cell_length_c       14.0892
_cell_angle_alpha    73.1045
_cell_angle_beta     71.6866
_cell_angle_gamma    83.3982

_space_group_name_H-M_alt    "P 1"
_space_group_IT_number       1

loop_
  _space_group_symop_operation_xyz
  'x, y, z'

loop_
  _atom_site_type_symbol
  _atom_site_label
  _atom_site_symmetry_multiplicity
  _atom_site_fract_x
  _atom_site_fract_y
  _atom_site_fract_z
  _atom_site_occupancy
  Zn  Zn1       1.0  0.83910  0.99178  0.72793  1.0000
  Zn  Zn2       1.0  0.16090  0.00822  0.27207  1.0000
  H   H1        1.0  0.63889  0.96453  0.96068  1.0000
  H   H2        1.0  0.36111  0.03547  0.03932  1.0000
  H   H3        1.0  0.67946  0.87265  0.13525  1.0000
  H   H4        1.0  0.32054  0.12735  0.86475  1.0000
  H   H5        1.0  0.93719  0.78605  0.14659  1.0000
  H   H6        1.0  0.06281  0.21395  0.85341  1.0000
  H   H7        1.0  0.13074  0.98899  0.53615  1.0000
  H   H8        1.0  0.86926  0.01101  0.46385  1.0000
  H   H9        1.0  0.39809  0.91363  0.51647  1.0000
  H   H10       1.0  0.60191  0.08637  0.48353  1.0000
  H   H11       1.0  0.48606  0.82845  0.67562  1.0000
  H   H12       1.0  0.51394  0.17155  0.32439  1.0000
  H   H13       1.0  0.68182  0.62845  0.91334  1.0000
  H   H14       1.0  0.31818  0.37155  0.08666  1.0000
  H   H15       1.0  0.86565  0.51285  0.00612  1.0000
  H   H16       1.0  0.13435  0.48716  0.99388  1.0000
  H   H17       1.0  0.54975  0.54479  0.29683  1.0000
  H   H18       1.0  0.45024  0.45520  0.70317  1.0000
  H   H19       1.0  0.37034  0.66606  0.20396  1.0000
  H   H20       1.0  0.62966  0.33393  0.79604  1.0000
  H   H21       1.0  0.74866  0.79745  0.49810  1.0000
  H   H22       1.0  0.25136  0.20255  0.50189  1.0000
  H   H23       1.0  0.78497  0.37506  0.49600  1.0000
  H   H24       1.0  0.21503  0.62494  0.50400  1.0000
  H   H25       1.0  0.87731  0.48919  0.74088  1.0000
  H   H26       1.0  0.12269  0.51081  0.25911  1.0000
  H   H27       1.0  0.20244  0.72593  0.12632  1.0000
  H   H28       1.0  0.79755  0.27407  0.87368  1.0000
  H   H29       1.0  0.03155  0.36734  0.19687  1.0000
  H   H30       1.0  0.96845  0.63266  0.80313  1.0000
  H   H31       1.0  0.73979  0.55345  0.36557  1.0000
  H   H32       1.0  0.26022  0.44655  0.63443  1.0000
  H   H33       1.0  0.54820  0.90634  0.82485  1.0000
  H   H34       1.0  0.45180  0.09366  0.17515  1.0000
  H   H35       1.0  0.55740  0.04315  0.73553  1.0000
  H   H36       1.0  0.44260  0.95685  0.26447  1.0000
  C   C1        1.0  0.74918  0.92648  0.96818  1.0000
  C   C2        1.0  0.25082  0.07352  0.03182  1.0000
  C   C3        1.0  0.77334  0.87508  0.06579  1.0000
  C   C4        1.0  0.22666  0.12491  0.93421  1.0000
  C   C5        1.0  0.91489  0.82663  0.07174  1.0000
  C   C6        1.0  0.08511  0.17337  0.92826  1.0000
  C   C7        1.0  0.03196  0.83271  0.97871  1.0000
  C   C8        1.0  0.96803  0.16730  0.02129  1.0000
  C   C9        1.0  0.99883  0.88810  0.88265  1.0000
  C   C10       1.0  0.00117  0.11190  0.11735  1.0000
  C   C11       1.0  0.11449  0.89840  0.78384  1.0000
  C   C12       1.0  0.88551  0.10160  0.21616  1.0000
  C   C13       1.0  0.17101  0.95107  0.60418  1.0000
  C   C14       1.0  0.82900  0.04893  0.39582  1.0000
  C   C15       1.0  0.32195  0.90998  0.59353  1.0000
  C   C16       1.0  0.67805  0.09002  0.40647  1.0000
  C   C17       1.0  0.37007  0.86312  0.68120  1.0000
  C   C18       1.0  0.62993  0.13688  0.31880  1.0000
  C   C19       1.0  0.26538  0.85616  0.77955  1.0000
  C   C20       1.0  0.73461  0.14384  0.22045  1.0000
  C   C21       1.0  0.29758  0.80411  0.87658  1.0000
  C   C22       1.0  0.70241  0.19590  0.12342  1.0000
  C   C23       1.0  0.18435  0.79103  0.97133  1.0000
  C   C24       1.0  0.81564  0.20898  0.02867  1.0000
  C   C25       1.0  0.40382  0.71863  0.99784  1.0000
  C   C26       1.0  0.59618  0.28137  0.00216  1.0000
  C   C27       1.0  0.51301  0.65471  0.05241  1.0000
  C   C28       1.0  0.48699  0.34528  0.94759  1.0000
  C   C29       1.0  0.65373  0.61049  0.99709  1.0000
  C   C30       1.0  0.34627  0.38951  0.00291  1.0000
  C   C31       1.0  0.75645  0.54557  0.04925  1.0000
  C   C32       1.0  0.24355  0.45443  0.95075  1.0000
  C   C33       1.0  0.72058  0.52173  0.15731  1.0000
  C   C34       1.0  0.27942  0.47826  0.84269  1.0000
  C   C35       1.0  0.57973  0.56453  0.21272  1.0000
  C   C36       1.0  0.42026  0.43546  0.78728  1.0000
  C   C37       1.0  0.47797  0.63160  0.16045  1.0000
  C   C38       1.0  0.52203  0.36840  0.83956  1.0000
  C   C39       1.0  0.82936  0.45237  0.21405  1.0000
  C   C40       1.0  0.17064  0.54763  0.78595  1.0000
  C   C41       1.0  0.82214  0.75953  0.67736  1.0000
  C   C42       1.0  0.17787  0.24047  0.32264  1.0000
  C   C43       1.0  0.81368  0.65469  0.62520  1.0000
  C   C44       1.0  0.18633  0.34531  0.37480  1.0000
  C   C45       1.0  0.77253  0.69125  0.53345  1.0000
  C   C46       1.0  0.22748  0.30875  0.46655  1.0000
  C   C47       1.0  0.76334  0.59154  0.48571  1.0000
  C   C48       1.0  0.23667  0.40847  0.51428  1.0000
  C   C49       1.0  0.79327  0.45414  0.53137  1.0000
  C   C50       1.0  0.20673  0.54586  0.46863  1.0000
  C   C51       1.0  0.83423  0.41815  0.62307  1.0000
  C   C52       1.0  0.16577  0.58185  0.37693  1.0000
  C   C53       1.0  0.84566  0.51823  0.66953  1.0000
  C   C54       1.0  0.15435  0.48178  0.33047  1.0000
  C   C55       1.0  0.85565  0.27143  0.67690  1.0000
  C   C56       1.0  0.14434  0.72857  0.32310  1.0000
  N   N1        1.0  0.07175  0.94602  0.69651  1.0000
  N   N2        1.0  0.92826  0.05398  0.30349  1.0000
  N   N3        1.0  0.85817  0.93200  0.87962  1.0000
  N   N4        1.0  0.14182  0.06800  0.12038  1.0000
  N   N5        1.0  0.43344  0.76085  0.89393  1.0000
  N   N6        1.0  0.56656  0.23915  0.10607  1.0000
  N   N7        1.0  0.25403  0.73640  0.04684  1.0000
  N   N8        1.0  0.74597  0.26360  0.95316  1.0000
  O   O1        1.0  0.96014  0.41940  0.15395  1.0000
  O   O2        1.0  0.03986  0.58060  0.84605  1.0000
  O   O3        1.0  0.80054  0.42679  0.30986  1.0000
  O   O4        1.0  0.19946  0.57321  0.69014  1.0000
  O   O5        1.0  0.79530  0.88542  0.63557  1.0000
  O   O6        1.0  0.20471  0.11458  0.36443  1.0000
  O   O7        1.0  0.85288  0.72399  0.76331  1.0000
  O   O8        1.0  0.14712  0.27601  0.23670  1.0000
  O   O9        1.0  0.83040  0.18129  0.63708  1.0000
  O   O10       1.0  0.16960  0.81871  0.36292  1.0000
  O   O11       1.0  0.89070  0.24093  0.76079  1.0000
  O   O12       1.0  0.10929  0.75907  0.23921  1.0000
  O   O13       1.0  0.72357  0.63208  0.39660  1.0000
  O   O14       1.0  0.27643  0.36792  0.60339  1.0000
  O   O15       1.0  0.58828  0.00114  0.79769  1.0000
  O   O16       1.0  0.41172  0.99885  0.20231  1.0000
