data_image0
_chemical_formula_structural       Cu2H40C48N36
_chemical_formula_sum              "Cu2 H40 C48 N36"
_cell_length_a       9.27168
_cell_length_b       11.3179
_cell_length_c       11.7187
_cell_angle_alpha    89.9997
_cell_angle_beta     96.2575
_cell_angle_gamma    89.9994

_space_group_name_H-M_alt    "P 1"
_space_group_IT_number       1

loop_
  _space_group_symop_operation_xyz
  'x, y, z'

loop_
  _atom_site_type_symbol
  _atom_site_label
  _atom_site_symmetry_multiplicity
  _atom_site_fract_x
  _atom_site_fract_y
  _atom_site_fract_z
  _atom_site_occupancy
  Cu  Cu1       1.0  1.00000  0.00000  1.00000  1.0000
  Cu  Cu2       1.0  0.00000  0.50000  0.50000  1.0000
  H   H1        1.0  0.75477  0.61318  0.79428  1.0000
  H   H2        1.0  0.24524  0.11318  0.70572  1.0000
  H   H3        1.0  0.24524  0.38682  0.20572  1.0000
  H   H4        1.0  0.75476  0.88682  0.29429  1.0000
  H   H5        1.0  0.84787  0.81977  0.78901  1.0000
  H   H6        1.0  0.15214  0.31977  0.71099  1.0000
  H   H7        1.0  0.15213  0.18023  0.21099  1.0000
  H   H8        1.0  0.84787  0.68023  0.28901  1.0000
  H   H9        1.0  0.28691  0.89073  0.14912  1.0000
  H   H10       1.0  0.71309  0.39074  0.35088  1.0000
  H   H11       1.0  0.71309  0.10927  0.85088  1.0000
  H   H12       1.0  0.28691  0.60926  0.64912  1.0000
  H   H13       1.0  0.45649  0.94420  0.17973  1.0000
  H   H14       1.0  0.54350  0.44420  0.32027  1.0000
  H   H15       1.0  0.54351  0.05580  0.82027  1.0000
  H   H16       1.0  0.45649  0.55580  0.67974  1.0000
  H   H17       1.0  0.65272  0.91324  0.07725  1.0000
  H   H18       1.0  0.34728  0.41324  0.42275  1.0000
  H   H19       1.0  0.34727  0.08676  0.92275  1.0000
  H   H20       1.0  0.65272  0.58675  0.57725  1.0000
  H   H21       1.0  0.60190  0.55660  0.94929  1.0000
  H   H22       1.0  0.39809  0.05660  0.55071  1.0000
  H   H23       1.0  0.39810  0.44340  0.05071  1.0000
  H   H24       1.0  0.60190  0.94340  0.44929  1.0000
  H   H25       1.0  0.33027  0.91357  0.36197  1.0000
  H   H26       1.0  0.66974  0.41356  0.13804  1.0000
  H   H27       1.0  0.66973  0.08644  0.63803  1.0000
  H   H28       1.0  0.33026  0.58643  0.86197  1.0000
  H   H29       1.0  0.15359  0.93295  0.50815  1.0000
  H   H30       1.0  0.84642  0.43295  0.99185  1.0000
  H   H31       1.0  0.84642  0.06705  0.49184  1.0000
  H   H32       1.0  0.15358  0.56705  0.00816  1.0000
  H   H33       1.0  0.01869  0.75684  0.56424  1.0000
  H   H34       1.0  0.98131  0.25683  0.93575  1.0000
  H   H35       1.0  0.98132  0.24317  0.43576  1.0000
  H   H36       1.0  0.01868  0.74317  0.06425  1.0000
  H   H37       1.0  0.21624  0.54333  0.33947  1.0000
  H   H38       1.0  0.78376  0.04332  0.16053  1.0000
  H   H39       1.0  0.78377  0.45667  0.66053  1.0000
  H   H40       1.0  0.21624  0.95668  0.83947  1.0000
  C   C1        1.0  0.73009  0.67701  0.85891  1.0000
  C   C2        1.0  0.26991  0.17701  0.64109  1.0000
  C   C3        1.0  0.26991  0.32299  0.14109  1.0000
  C   C4        1.0  0.73009  0.82299  0.35891  1.0000
  C   C5        1.0  0.78231  0.79242  0.85617  1.0000
  C   C6        1.0  0.21769  0.29242  0.64383  1.0000
  C   C7        1.0  0.21769  0.20758  0.14383  1.0000
  C   C8        1.0  0.78231  0.70758  0.35617  1.0000
  C   C9        1.0  0.67324  0.84440  0.01603  1.0000
  C   C10       1.0  0.32676  0.34440  0.48397  1.0000
  C   C11       1.0  0.32675  0.15560  0.98397  1.0000
  C   C12       1.0  0.67325  0.65560  0.51604  1.0000
  C   C13       1.0  0.61488  0.73097  0.02555  1.0000
  C   C14       1.0  0.38511  0.23097  0.47445  1.0000
  C   C15       1.0  0.38511  0.26903  0.97445  1.0000
  C   C16       1.0  0.61488  0.76903  0.52555  1.0000
  C   C17       1.0  0.64626  0.64536  0.94518  1.0000
  C   C18       1.0  0.35374  0.14537  0.55481  1.0000
  C   C19       1.0  0.35374  0.35464  0.05481  1.0000
  C   C20       1.0  0.64625  0.85463  0.44519  1.0000
  C   C21       1.0  0.53102  0.69654  0.11804  1.0000
  C   C22       1.0  0.46898  0.19654  0.38195  1.0000
  C   C23       1.0  0.46898  0.30346  0.88195  1.0000
  C   C24       1.0  0.53102  0.80346  0.61805  1.0000
  C   C25       1.0  0.38922  0.69497  0.25663  1.0000
  C   C26       1.0  0.61078  0.19497  0.24337  1.0000
  C   C27       1.0  0.61078  0.30503  0.74337  1.0000
  C   C28       1.0  0.38922  0.80503  0.75663  1.0000
  C   C29       1.0  0.28717  0.72475  0.33846  1.0000
  C   C30       1.0  0.71284  0.22474  0.16154  1.0000
  C   C31       1.0  0.71284  0.27525  0.66154  1.0000
  C   C32       1.0  0.28716  0.77525  0.83846  1.0000
  C   C33       1.0  0.26913  0.83667  0.38625  1.0000
  C   C34       1.0  0.73088  0.33666  0.11376  1.0000
  C   C35       1.0  0.73088  0.16334  0.61375  1.0000
  C   C36       1.0  0.26912  0.66334  0.88625  1.0000
  C   C37       1.0  0.17188  0.84820  0.46841  1.0000
  C   C38       1.0  0.82813  0.34819  0.03159  1.0000
  C   C39       1.0  0.82813  0.15180  0.53159  1.0000
  C   C40       1.0  0.17187  0.65180  0.96841  1.0000
  C   C41       1.0  0.09432  0.75046  0.49973  1.0000
  C   C42       1.0  0.90568  0.25045  0.00027  1.0000
  C   C43       1.0  0.90569  0.24954  0.50027  1.0000
  C   C44       1.0  0.09432  0.74955  0.99973  1.0000
  C   C45       1.0  0.20498  0.63096  0.37506  1.0000
  C   C46       1.0  0.79502  0.13096  0.12494  1.0000
  C   C47       1.0  0.79502  0.36904  0.62494  1.0000
  C   C48       1.0  0.20498  0.86904  0.87506  1.0000
  N   N1        1.0  0.39390  0.87918  0.13707  1.0000
  N   N2        1.0  0.60610  0.37919  0.36292  1.0000
  N   N3        1.0  0.60611  0.12082  0.86292  1.0000
  N   N4        1.0  0.39390  0.62082  0.63708  1.0000
  N   N5        1.0  0.75669  0.87467  0.93438  1.0000
  N   N6        1.0  0.24331  0.37467  0.56562  1.0000
  N   N7        1.0  0.24330  0.12533  0.06562  1.0000
  N   N8        1.0  0.75670  0.62533  0.43438  1.0000
  N   N9        1.0  0.43994  0.76662  0.17436  1.0000
  N   N10       1.0  0.56006  0.26662  0.32564  1.0000
  N   N11       1.0  0.56007  0.23338  0.82564  1.0000
  N   N12       1.0  0.43993  0.73338  0.67436  1.0000
  N   N13       1.0  0.53563  0.58877  0.16362  1.0000
  N   N14       1.0  0.46437  0.08877  0.33638  1.0000
  N   N15       1.0  0.46437  0.41123  0.83638  1.0000
  N   N16       1.0  0.53563  0.91122  0.66362  1.0000
  N   N17       1.0  0.44594  0.58729  0.24884  1.0000
  N   N18       1.0  0.55406  0.08730  0.25117  1.0000
  N   N19       1.0  0.55405  0.41270  0.75116  1.0000
  N   N20       1.0  0.44594  0.91270  0.74884  1.0000
  N   N21       1.0  0.11074  0.64298  0.45272  1.0000
  N   N22       1.0  0.88927  0.14297  0.04728  1.0000
  N   N23       1.0  0.88927  0.35703  0.54728  1.0000
  N   N24       1.0  0.11073  0.85703  0.95272  1.0000
  N   N25       1.0  0.97534  0.06903  0.83829  1.0000
  N   N26       1.0  0.02466  0.56904  0.66170  1.0000
  N   N27       1.0  0.02466  0.93097  0.16170  1.0000
  N   N28       1.0  0.97534  0.43097  0.33830  1.0000
  N   N29       1.0  0.97698  0.00807  0.75427  1.0000
  N   N30       1.0  0.02302  0.50807  0.74573  1.0000
  N   N31       1.0  0.02303  0.99193  0.24573  1.0000
  N   N32       1.0  0.97697  0.49194  0.25427  1.0000
  N   N33       1.0  0.97997  0.95087  0.67116  1.0000
  N   N34       1.0  0.02004  0.45088  0.82884  1.0000
  N   N35       1.0  0.02003  0.04913  0.32883  1.0000
  N   N36       1.0  0.97996  0.54913  0.17117  1.0000
