data_image0
_chemical_formula_structural       Cd4H20C24N36
_chemical_formula_sum              "Cd4 H20 C24 N36"
_cell_length_a       8.10586
_cell_length_b       8.73793
_cell_length_c       15.5081
_cell_angle_alpha    89.9999
_cell_angle_beta     90
_cell_angle_gamma    117.627

_space_group_name_H-M_alt    "P 1"
_space_group_IT_number       1

loop_
  _space_group_symop_operation_xyz
  'x, y, z'

loop_
  _atom_site_type_symbol
  _atom_site_label
  _atom_site_symmetry_multiplicity
  _atom_site_fract_x
  _atom_site_fract_y
  _atom_site_fract_z
  _atom_site_occupancy
  Cd  Cd1       1.0  0.98757  0.22231  0.05556  1.0000
  Cd  Cd2       1.0  0.01243  0.77769  0.55556  1.0000
  Cd  Cd3       1.0  0.76518  0.77762  0.05552  1.0000
  Cd  Cd4       1.0  0.23482  0.22239  0.55552  1.0000
  H   H1        1.0  0.29142  0.89394  0.35817  1.0000
  H   H2        1.0  0.70858  0.10606  0.85817  1.0000
  H   H3        1.0  0.39749  0.10614  0.35811  1.0000
  H   H4        1.0  0.60251  0.89386  0.85811  1.0000
  H   H5        1.0  0.68134  0.81228  0.24531  1.0000
  H   H6        1.0  0.31866  0.18772  0.74531  1.0000
  H   H7        1.0  0.86906  0.18757  0.24543  1.0000
  H   H8        1.0  0.13094  0.81243  0.74543  1.0000
  H   H9        1.0  0.49354  0.65641  0.37253  1.0000
  H   H10       1.0  0.50646  0.34359  0.87253  1.0000
  H   H11       1.0  0.83742  0.34355  0.37268  1.0000
  H   H12       1.0  0.16258  0.65645  0.87268  1.0000
  H   H13       1.0  0.27902  0.33677  0.36056  1.0000
  H   H14       1.0  0.72098  0.66323  0.86056  1.0000
  H   H15       1.0  0.94252  0.66323  0.36070  1.0000
  H   H16       1.0  0.05748  0.33677  0.86070  1.0000
  H   H17       1.0  0.48984  0.35814  0.10253  1.0000
  H   H18       1.0  0.51016  0.64186  0.60253  1.0000
  H   H19       1.0  0.13162  0.64162  0.10258  1.0000
  H   H20       1.0  0.86838  0.35838  0.60258  1.0000
  C   C1        1.0  0.24226  0.14130  0.21448  1.0000
  C   C2        1.0  0.75774  0.85870  0.71448  1.0000
  C   C3        1.0  0.10091  0.85850  0.21449  1.0000
  C   C4        1.0  0.89909  0.14150  0.71449  1.0000
  C   C5        1.0  0.59385  0.67271  0.24329  1.0000
  C   C6        1.0  0.40615  0.32729  0.74329  1.0000
  C   C7        1.0  0.92123  0.32719  0.24340  1.0000
  C   C8        1.0  0.07877  0.67280  0.74340  1.0000
  C   C9        1.0  0.48670  0.58449  0.31418  1.0000
  C   C10       1.0  0.51330  0.41551  0.81418  1.0000
  C   C11       1.0  0.90241  0.41547  0.31430  1.0000
  C   C12       1.0  0.09760  0.58453  0.81430  1.0000
  C   C13       1.0  0.37130  0.40710  0.30761  1.0000
  C   C14       1.0  0.62870  0.59290  0.80761  1.0000
  C   C15       1.0  0.96417  0.59283  0.30768  1.0000
  C   C16       1.0  0.03583  0.40717  0.80768  1.0000
  C   C17       1.0  0.37045  0.32342  0.23045  1.0000
  C   C18       1.0  0.62955  0.67658  0.73045  1.0000
  C   C19       1.0  0.04702  0.67643  0.23051  1.0000
  C   C20       1.0  0.95298  0.32357  0.73051  1.0000
  C   C21       1.0  0.48635  0.42085  0.16286  1.0000
  C   C22       1.0  0.51365  0.57915  0.66286  1.0000
  C   C23       1.0  0.06538  0.57896  0.16290  1.0000
  C   C24       1.0  0.93462  0.42104  0.66290  1.0000
  N   N1        1.0  0.79126  0.30365  0.97131  1.0000
  N   N2        1.0  0.20874  0.69635  0.47132  1.0000
  N   N3        1.0  0.48766  0.69631  0.97122  1.0000
  N   N4        1.0  0.51234  0.30369  0.47122  1.0000
  N   N5        1.0  0.81642  0.44793  0.97843  1.0000
  N   N6        1.0  0.18359  0.55207  0.47843  1.0000
  N   N7        1.0  0.36850  0.55207  0.97841  1.0000
  N   N8        1.0  0.63150  0.44793  0.47841  1.0000
  N   N9        1.0  0.84634  0.59378  0.98198  1.0000
  N   N10       1.0  0.15366  0.40622  0.48198  1.0000
  N   N11       1.0  0.25254  0.40627  0.98205  1.0000
  N   N12       1.0  0.74746  0.59373  0.48205  1.0000
  N   N13       1.0  0.93794  0.00002  0.95620  1.0000
  N   N14       1.0  0.06207  0.99999  0.45620  1.0000
  N   N15       1.0  0.06124  0.00008  0.91211  1.0000
  N   N16       1.0  0.93876  0.99992  0.41211  1.0000
  N   N17       1.0  0.17673  0.00015  0.86748  1.0000
  N   N18       1.0  0.82327  0.99985  0.36748  1.0000
  N   N19       1.0  0.71174  0.99996  0.11414  1.0000
  N   N20       1.0  0.28826  0.00004  0.61414  1.0000
  N   N21       1.0  0.56501  0.99998  0.09960  1.0000
  N   N22       1.0  0.43499  0.00002  0.59960  1.0000
  N   N23       1.0  0.42358  0.00001  0.08714  1.0000
  N   N24       1.0  0.57642  0.99999  0.58714  1.0000
  N   N25       1.0  0.59399  0.59228  0.16912  1.0000
  N   N26       1.0  0.40601  0.40771  0.66912  1.0000
  N   N27       1.0  0.00166  0.40754  0.16919  1.0000
  N   N28       1.0  0.99834  0.59246  0.66919  1.0000
  N   N29       1.0  0.11830  0.08721  0.15062  1.0000
  N   N30       1.0  0.88170  0.91279  0.65062  1.0000
  N   N31       1.0  0.03097  0.91254  0.15064  1.0000
  N   N32       1.0  0.96903  0.08746  0.65064  1.0000
  N   N33       1.0  0.35857  0.99999  0.31887  1.0000
  N   N34       1.0  0.64143  0.00001  0.81887  1.0000
  N   N35       1.0  0.23145  0.99992  0.25761  1.0000
  N   N36       1.0  0.76855  0.00008  0.75761  1.0000
