data_image0
_chemical_formula_structural       Nd4H24C24N8O32
_chemical_formula_sum              "Nd4 H24 C24 N8 O32"
_cell_length_a       8.19164
_cell_length_b       8.35153
_cell_length_c       17.4766
_cell_angle_alpha    89.9998
_cell_angle_beta     90.0002
_cell_angle_gamma    110.309

_space_group_name_H-M_alt    "P 1"
_space_group_IT_number       1

loop_
  _space_group_symop_operation_xyz
  'x, y, z'

loop_
  _atom_site_type_symbol
  _atom_site_label
  _atom_site_symmetry_multiplicity
  _atom_site_fract_x
  _atom_site_fract_y
  _atom_site_fract_z
  _atom_site_occupancy
  Nd  Nd1       1.0  0.25808  0.28334  0.52007  1.0000
  Nd  Nd2       1.0  0.24192  0.71666  0.02007  1.0000
  Nd  Nd3       1.0  0.74192  0.71665  0.47993  1.0000
  Nd  Nd4       1.0  0.75808  0.28335  0.97993  1.0000
  H   H1        1.0  0.39154  0.99742  0.53177  1.0000
  H   H2        1.0  0.10846  0.00258  0.03177  1.0000
  H   H3        1.0  0.60847  0.00258  0.46823  1.0000
  H   H4        1.0  0.89154  0.99742  0.96823  1.0000
  H   H5        1.0  0.22316  0.89634  0.48142  1.0000
  H   H6        1.0  0.27684  0.10366  0.98142  1.0000
  H   H7        1.0  0.77685  0.10366  0.51858  1.0000
  H   H8        1.0  0.72316  0.89634  0.01858  1.0000
  H   H9        1.0  0.50026  0.21461  0.65418  1.0000
  H   H10       1.0  0.99974  0.78539  0.15418  1.0000
  H   H11       1.0  0.49975  0.78539  0.34582  1.0000
  H   H12       1.0  0.00025  0.21461  0.84582  1.0000
  H   H13       1.0  0.62323  0.32262  0.58681  1.0000
  H   H14       1.0  0.87678  0.67738  0.08681  1.0000
  H   H15       1.0  0.37678  0.67738  0.41319  1.0000
  H   H16       1.0  0.12322  0.32262  0.91319  1.0000
  H   H17       1.0  0.30701  0.61878  0.78797  1.0000
  H   H18       1.0  0.19299  0.38122  0.28797  1.0000
  H   H19       1.0  0.69299  0.38122  0.21203  1.0000
  H   H20       1.0  0.80701  0.61878  0.71203  1.0000
  H   H21       1.0  0.61471  0.93456  0.61466  1.0000
  H   H22       1.0  0.88530  0.06544  0.11466  1.0000
  H   H23       1.0  0.38529  0.06544  0.38534  1.0000
  H   H24       1.0  0.11470  0.93456  0.88534  1.0000
  C   C1        1.0  0.92673  0.42863  0.52118  1.0000
  C   C2        1.0  0.57327  0.57136  0.02118  1.0000
  C   C3        1.0  0.07327  0.57136  0.47883  1.0000
  C   C4        1.0  0.42673  0.42864  0.97882  1.0000
  C   C5        1.0  0.38879  0.59526  0.62116  1.0000
  C   C6        1.0  0.11122  0.40474  0.12116  1.0000
  C   C7        1.0  0.61122  0.40474  0.37884  1.0000
  C   C8        1.0  0.88878  0.59526  0.87884  1.0000
  C   C9        1.0  0.44071  0.72902  0.67981  1.0000
  C   C10       1.0  0.05929  0.27098  0.17981  1.0000
  C   C11       1.0  0.55929  0.27099  0.32019  1.0000
  C   C12       1.0  0.94071  0.72902  0.82019  1.0000
  C   C13       1.0  0.39546  0.72539  0.75655  1.0000
  C   C14       1.0  0.10454  0.27461  0.25655  1.0000
  C   C15       1.0  0.60454  0.27461  0.24345  1.0000
  C   C16       1.0  0.89546  0.72539  0.74345  1.0000
  C   C17       1.0  0.49538  0.88819  0.78447  1.0000
  C   C18       1.0  0.00462  0.11182  0.28447  1.0000
  C   C19       1.0  0.50462  0.11182  0.21553  1.0000
  C   C20       1.0  0.99538  0.88819  0.71553  1.0000
  C   C21       1.0  0.50521  0.94664  0.86475  1.0000
  C   C22       1.0  0.99479  0.05336  0.36475  1.0000
  C   C23       1.0  0.49479  0.05336  0.13525  1.0000
  C   C24       1.0  0.00521  0.94664  0.63525  1.0000
  N   N1        1.0  0.55833  0.88864  0.66644  1.0000
  N   N2        1.0  0.94167  0.11136  0.16643  1.0000
  N   N3        1.0  0.44167  0.11136  0.33357  1.0000
  N   N4        1.0  0.05833  0.88864  0.83357  1.0000
  N   N5        1.0  0.59291  0.98838  0.72816  1.0000
  N   N6        1.0  0.90709  0.01162  0.22816  1.0000
  N   N7        1.0  0.40709  0.01162  0.27184  1.0000
  N   N8        1.0  0.09291  0.98838  0.77184  1.0000
  O   O1        1.0  0.32270  0.00693  0.48753  1.0000
  O   O2        1.0  0.17730  0.99307  0.98753  1.0000
  O   O3        1.0  0.67731  0.99307  0.51247  1.0000
  O   O4        1.0  0.82269  0.00693  0.01247  1.0000
  O   O5        1.0  0.50277  0.24617  0.60036  1.0000
  O   O6        1.0  0.99723  0.75383  0.10036  1.0000
  O   O7        1.0  0.49723  0.75383  0.39964  1.0000
  O   O8        1.0  0.00277  0.24617  0.89964  1.0000
  O   O9        1.0  0.94722  0.28623  0.52955  1.0000
  O   O10       1.0  0.55278  0.71377  0.02955  1.0000
  O   O11       1.0  0.05278  0.71377  0.47045  1.0000
  O   O12       1.0  0.44721  0.28623  0.97045  1.0000
  O   O13       1.0  0.79713  0.46618  0.54322  1.0000
  O   O14       1.0  0.70287  0.53382  0.04322  1.0000
  O   O15       1.0  0.20287  0.53382  0.45678  1.0000
  O   O16       1.0  0.29713  0.46618  0.95678  1.0000
  O   O17       1.0  0.48662  0.60950  0.56173  1.0000
  O   O18       1.0  0.01338  0.39050  0.06173  1.0000
  O   O19       1.0  0.51338  0.39050  0.43827  1.0000
  O   O20       1.0  0.98661  0.60950  0.93827  1.0000
  O   O21       1.0  0.25036  0.46847  0.63051  1.0000
  O   O22       1.0  0.24964  0.53153  0.13051  1.0000
  O   O23       1.0  0.74964  0.53153  0.36950  1.0000
  O   O24       1.0  0.75036  0.46847  0.86949  1.0000
  O   O25       1.0  0.39069  0.85264  0.91048  1.0000
  O   O26       1.0  0.10931  0.14736  0.41048  1.0000
  O   O27       1.0  0.60931  0.14736  0.08952  1.0000
  O   O28       1.0  0.89069  0.85264  0.58952  1.0000
  O   O29       1.0  0.62664  0.08234  0.88388  1.0000
  O   O30       1.0  0.87336  0.91766  0.38388  1.0000
  O   O31       1.0  0.37336  0.91766  0.11612  1.0000
  O   O32       1.0  0.12665  0.08234  0.61612  1.0000
