data_image0
_chemical_formula_structural       Cu4H40C16N40
_chemical_formula_sum              "Cu4 H40 C16 N40"
_cell_length_a       6.91075
_cell_length_b       9.77663
_cell_length_c       13.7452
_cell_angle_alpha    89.9972
_cell_angle_beta     102.935
_cell_angle_gamma    90.0001

_space_group_name_H-M_alt    "P 1"
_space_group_IT_number       1

loop_
  _space_group_symop_operation_xyz
  'x, y, z'

loop_
  _atom_site_type_symbol
  _atom_site_label
  _atom_site_symmetry_multiplicity
  _atom_site_fract_x
  _atom_site_fract_y
  _atom_site_fract_z
  _atom_site_occupancy
  Cu  Cu1       1.0  0.50254  0.18106  0.38104  1.0000
  Cu  Cu2       1.0  0.99730  0.68101  0.11891  1.0000
  Cu  Cu3       1.0  0.49738  0.81898  0.61897  1.0000
  Cu  Cu4       1.0  0.00277  0.31896  0.88108  1.0000
  H   H1        1.0  0.65693  0.38322  0.49948  1.0000
  H   H2        1.0  0.84300  0.88327  0.00054  1.0000
  H   H3        1.0  0.34299  0.61680  0.50053  1.0000
  H   H4        1.0  0.15710  0.11673  0.99948  1.0000
  H   H5        1.0  0.81075  0.25302  0.51913  1.0000
  H   H6        1.0  0.68905  0.75318  0.98081  1.0000
  H   H7        1.0  0.18918  0.74700  0.48088  1.0000
  H   H8        1.0  0.31091  0.24691  0.01911  1.0000
  H   H9        1.0  0.95953  0.42052  0.43037  1.0000
  H   H10       1.0  0.54039  0.92059  0.06965  1.0000
  H   H11       1.0  0.04037  0.57949  0.56962  1.0000
  H   H12       1.0  0.45966  0.07941  0.93036  1.0000
  H   H13       1.0  0.72841  0.43038  0.34183  1.0000
  H   H14       1.0  0.77154  0.93039  0.15816  1.0000
  H   H15       1.0  0.27150  0.56962  0.65817  1.0000
  H   H16       1.0  0.22852  0.06957  0.84184  1.0000
  H   H17       1.0  0.95857  0.27439  0.27697  1.0000
  H   H18       1.0  0.54139  0.77441  0.22304  1.0000
  H   H19       1.0  0.04138  0.72561  0.72304  1.0000
  H   H20       1.0  0.45861  0.22554  0.77692  1.0000
  H   H21       1.0  0.99011  0.17396  0.38669  1.0000
  H   H22       1.0  0.50975  0.67401  0.11332  1.0000
  H   H23       1.0  0.00979  0.82604  0.61332  1.0000
  H   H24       1.0  0.49027  0.32597  0.88664  1.0000
  H   H25       1.0  0.74015  0.05787  0.30105  1.0000
  H   H26       1.0  0.75971  0.55787  0.19895  1.0000
  H   H27       1.0  0.25976  0.94212  0.69896  1.0000
  H   H28       1.0  0.24032  0.44211  0.80108  1.0000
  H   H29       1.0  0.64784  0.18707  0.22140  1.0000
  H   H30       1.0  0.85215  0.68708  0.27855  1.0000
  H   H31       1.0  0.35212  0.81291  0.77857  1.0000
  H   H32       1.0  0.14786  0.31296  0.72142  1.0000
  H   H33       1.0  0.30227  0.38181  0.51529  1.0000
  H   H34       1.0  0.19774  0.88183  0.98479  1.0000
  H   H35       1.0  0.69759  0.61819  0.48480  1.0000
  H   H36       1.0  0.80247  0.11820  0.01515  1.0000
  H   H37       1.0  0.27018  0.87249  0.35201  1.0000
  H   H38       1.0  0.22967  0.37246  0.14800  1.0000
  H   H39       1.0  0.72989  0.12752  0.64799  1.0000
  H   H40       1.0  0.77043  0.62760  0.85203  1.0000
  C   C1        1.0  0.82828  0.36167  0.39296  1.0000
  C   C2        1.0  0.67166  0.86170  0.10703  1.0000
  C   C3        1.0  0.17164  0.63835  0.60704  1.0000
  C   C4        1.0  0.32837  0.13828  0.89296  1.0000
  C   C5        1.0  0.88580  0.24069  0.33617  1.0000
  C   C6        1.0  0.61411  0.74073  0.16384  1.0000
  C   C7        1.0  0.11412  0.75932  0.66384  1.0000
  C   C8        1.0  0.38589  0.25924  0.83614  1.0000
  C   C9        1.0  0.27738  0.27573  0.53163  1.0000
  C   C10       1.0  0.22259  0.77576  0.96839  1.0000
  C   C11       1.0  0.72252  0.72425  0.46841  1.0000
  C   C12       1.0  0.77756  0.22425  0.03158  1.0000
  C   C13       1.0  0.24796  0.93530  0.28568  1.0000
  C   C14       1.0  0.25193  0.43528  0.21431  1.0000
  C   C15       1.0  0.75208  0.06470  0.71431  1.0000
  C   C16       1.0  0.74816  0.56474  0.78574  1.0000
  N   N1        1.0  0.71633  0.30668  0.46399  1.0000
  N   N2        1.0  0.78353  0.80672  0.03598  1.0000
  N   N3        1.0  0.28360  0.69335  0.53601  1.0000
  N   N4        1.0  0.21649  0.19326  0.96399  1.0000
  N   N5        1.0  0.70515  0.16024  0.29513  1.0000
  N   N6        1.0  0.79475  0.66022  0.20483  1.0000
  N   N7        1.0  0.29476  0.83977  0.70487  1.0000
  N   N8        1.0  0.20528  0.33975  0.79514  1.0000
  N   N9        1.0  0.35020  0.17071  0.48808  1.0000
  N   N10       1.0  0.14975  0.67071  0.01193  1.0000
  N   N11       1.0  0.64974  0.82932  0.51195  1.0000
  N   N12       1.0  0.85047  0.32932  0.98810  1.0000
  N   N13       1.0  0.29011  0.05568  0.52738  1.0000
  N   N14       1.0  0.20981  0.55570  0.97260  1.0000
  N   N15       1.0  0.70981  0.94431  0.47259  1.0000
  N   N16       1.0  0.79036  0.44432  0.02743  1.0000
  N   N17       1.0  0.18482  0.09198  0.59197  1.0000
  N   N18       1.0  0.31507  0.59204  0.90799  1.0000
  N   N19       1.0  0.81502  0.90795  0.40798  1.0000
  N   N20       1.0  0.68498  0.40795  0.09197  1.0000
  N   N21       1.0  0.17266  0.23025  0.59586  1.0000
  N   N22       1.0  0.32724  0.73032  0.90414  1.0000
  N   N23       1.0  0.82716  0.76968  0.40414  1.0000
  N   N24       1.0  0.67278  0.26967  0.09578  1.0000
  N   N25       1.0  0.31607  0.06368  0.28278  1.0000
  N   N26       1.0  0.18385  0.56367  0.21720  1.0000
  N   N27       1.0  0.68388  0.93635  0.71723  1.0000
  N   N28       1.0  0.81626  0.43635  0.78286  1.0000
  N   N29       1.0  0.25860  0.10530  0.18698  1.0000
  N   N30       1.0  0.24137  0.60530  0.31299  1.0000
  N   N31       1.0  0.74136  0.89473  0.81302  1.0000
  N   N32       1.0  0.75869  0.39467  0.68708  1.0000
  N   N33       1.0  0.15899  0.00497  0.13474  1.0000
  N   N34       1.0  0.34097  0.50497  0.36524  1.0000
  N   N35       1.0  0.84105  0.99503  0.86525  1.0000
  N   N36       1.0  0.65904  0.49498  0.63483  1.0000
  N   N37       1.0  0.15030  0.89604  0.19467  1.0000
  N   N38       1.0  0.34960  0.39601  0.30532  1.0000
  N   N39       1.0  0.84978  0.10396  0.80532  1.0000
  N   N40       1.0  0.65042  0.60396  0.69472  1.0000
