data_image0
_chemical_formula_structural       Zn6H16C28N12O12
_chemical_formula_sum              "Zn6 H16 C28 N12 O12"
_cell_length_a       11.0494
_cell_length_b       11.0494
_cell_length_c       11.0424
_cell_angle_alpha    88.3242
_cell_angle_beta     88.3239
_cell_angle_gamma    69.2519

_space_group_name_H-M_alt    "P 1"
_space_group_IT_number       1

loop_
  _space_group_symop_operation_xyz
  'x, y, z'

loop_
  _atom_site_type_symbol
  _atom_site_label
  _atom_site_symmetry_multiplicity
  _atom_site_fract_x
  _atom_site_fract_y
  _atom_site_fract_z
  _atom_site_occupancy
  Zn  Zn1       1.0  0.47511  0.35971  0.99981  1.0000
  Zn  Zn2       1.0  0.64029  0.52489  0.50018  1.0000
  Zn  Zn3       1.0  0.52489  0.64029  0.00019  1.0000
  Zn  Zn4       1.0  0.35971  0.47511  0.49982  1.0000
  Zn  Zn5       1.0  0.59795  0.40205  0.25000  1.0000
  Zn  Zn6       1.0  0.40205  0.59795  0.75000  1.0000
  H   H1        1.0  0.55566  0.93588  0.05727  1.0000
  H   H2        1.0  0.06413  0.44433  0.44273  1.0000
  H   H3        1.0  0.44434  0.06413  0.94273  1.0000
  H   H4        1.0  0.93588  0.55566  0.55727  1.0000
  H   H5        1.0  0.64126  0.84694  0.50496  1.0000
  H   H6        1.0  0.15307  0.35873  0.99504  1.0000
  H   H7        1.0  0.35873  0.15307  0.49504  1.0000
  H   H8        1.0  0.84693  0.64127  0.00496  1.0000
  H   H9        1.0  0.64190  0.05320  0.40415  1.0000
  H   H10       1.0  0.94680  0.35810  0.09585  1.0000
  H   H11       1.0  0.35810  0.94680  0.59585  1.0000
  H   H12       1.0  0.05320  0.64191  0.90415  1.0000
  H   H13       1.0  0.69434  0.38158  0.04079  1.0000
  H   H14       1.0  0.61842  0.30566  0.45920  1.0000
  H   H15       1.0  0.30566  0.61842  0.95920  1.0000
  H   H16       1.0  0.38158  0.69434  0.54079  1.0000
  C   C1        1.0  0.59366  0.13591  0.17627  1.0000
  C   C2        1.0  0.86409  0.40634  0.32373  1.0000
  C   C3        1.0  0.40635  0.86409  0.82373  1.0000
  C   C4        1.0  0.13591  0.59366  0.67627  1.0000
  C   C5        1.0  0.59841  0.00594  0.22668  1.0000
  C   C6        1.0  0.99406  0.40159  0.27332  1.0000
  C   C7        1.0  0.40159  0.99406  0.77332  1.0000
  C   C8        1.0  0.00594  0.59841  0.72668  1.0000
  C   C9        1.0  0.57462  0.91695  0.15326  1.0000
  C   C10       1.0  0.08305  0.42538  0.34674  1.0000
  C   C11       1.0  0.42538  0.08305  0.84674  1.0000
  C   C12       1.0  0.91695  0.57462  0.65326  1.0000
  C   C13       1.0  0.57472  0.80119  0.20916  1.0000
  C   C14       1.0  0.19882  0.42527  0.29084  1.0000
  C   C15       1.0  0.42528  0.19882  0.79084  1.0000
  C   C16       1.0  0.80118  0.57472  0.70916  1.0000
  C   C17       1.0  0.59865  0.77652  0.33460  1.0000
  C   C18       1.0  0.22348  0.40134  0.16540  1.0000
  C   C19       1.0  0.40134  0.22348  0.66540  1.0000
  C   C20       1.0  0.77652  0.59865  0.83460  1.0000
  C   C21       1.0  0.62355  0.86601  0.40849  1.0000
  C   C22       1.0  0.13399  0.37644  0.09151  1.0000
  C   C23       1.0  0.37644  0.13399  0.59152  1.0000
  C   C24       1.0  0.86601  0.62355  0.90849  1.0000
  C   C25       1.0  0.62336  0.97943  0.35247  1.0000
  C   C26       1.0  0.02058  0.37663  0.14753  1.0000
  C   C27       1.0  0.37664  0.02057  0.64753  1.0000
  C   C28       1.0  0.97943  0.62337  0.85247  1.0000
  N   N1        1.0  0.55524  0.69423  0.16574  1.0000
  N   N2        1.0  0.30578  0.44476  0.33427  1.0000
  N   N3        1.0  0.44476  0.30577  0.83426  1.0000
  N   N4        1.0  0.69423  0.55524  0.66574  1.0000
  N   N5        1.0  0.56595  0.61156  0.25843  1.0000
  N   N6        1.0  0.38844  0.43405  0.24157  1.0000
  N   N7        1.0  0.43405  0.38844  0.74157  1.0000
  N   N8        1.0  0.61156  0.56595  0.75843  1.0000
  N   N9        1.0  0.59214  0.65755  0.36018  1.0000
  N   N10       1.0  0.34245  0.40785  0.13982  1.0000
  N   N11       1.0  0.40785  0.34245  0.63983  1.0000
  N   N12       1.0  0.65755  0.59214  0.86017  1.0000
  O   O1        1.0  0.55406  0.16690  0.06827  1.0000
  O   O2        1.0  0.83310  0.44594  0.43172  1.0000
  O   O3        1.0  0.44594  0.83310  0.93173  1.0000
  O   O4        1.0  0.16689  0.55406  0.56827  1.0000
  O   O5        1.0  0.62755  0.20554  0.24803  1.0000
  O   O6        1.0  0.79446  0.37246  0.25197  1.0000
  O   O7        1.0  0.37246  0.79446  0.75197  1.0000
  O   O8        1.0  0.20554  0.62754  0.74803  1.0000
  O   O9        1.0  0.60432  0.42884  0.06248  1.0000
  O   O10       1.0  0.57116  0.39568  0.43752  1.0000
  O   O11       1.0  0.39568  0.57116  0.93752  1.0000
  O   O12       1.0  0.42884  0.60432  0.56248  1.0000
