data_image0
_chemical_formula_structural       Ag4H20C20N12Cl4O12
_chemical_formula_sum              "Ag4 H20 C20 N12 Cl4 O12"
_cell_length_a       7.77901
_cell_length_b       8.30263
_cell_length_c       13.1968
_cell_angle_alpha    89.9997
_cell_angle_beta     89.9998
_cell_angle_gamma    89.9998

_space_group_name_H-M_alt    "P 1"
_space_group_IT_number       1

loop_
  _space_group_symop_operation_xyz
  'x, y, z'

loop_
  _atom_site_type_symbol
  _atom_site_label
  _atom_site_symmetry_multiplicity
  _atom_site_fract_x
  _atom_site_fract_y
  _atom_site_fract_z
  _atom_site_occupancy
  Ag  Ag1       1.0  0.89806  0.20651  0.76827  1.0000
  Ag  Ag2       1.0  0.10194  0.20651  0.23173  1.0000
  Ag  Ag3       1.0  0.39806  0.79349  0.73173  1.0000
  Ag  Ag4       1.0  0.60194  0.79349  0.26827  1.0000
  H   H1        1.0  0.09456  0.80758  0.61939  1.0000
  H   H2        1.0  0.90544  0.80758  0.38060  1.0000
  H   H3        1.0  0.59456  0.19242  0.88061  1.0000
  H   H4        1.0  0.40544  0.19242  0.11939  1.0000
  H   H5        1.0  0.25658  0.79709  0.53373  1.0000
  H   H6        1.0  0.74341  0.79709  0.46627  1.0000
  H   H7        1.0  0.75658  0.20291  0.96627  1.0000
  H   H8        1.0  0.24341  0.20291  0.03373  1.0000
  H   H9        1.0  0.13707  0.11863  0.58617  1.0000
  H   H10       1.0  0.86293  0.11863  0.41383  1.0000
  H   H11       1.0  0.63707  0.88137  0.91383  1.0000
  H   H12       1.0  0.36293  0.88137  0.08617  1.0000
  H   H13       1.0  0.32394  0.25455  0.45585  1.0000
  H   H14       1.0  0.67606  0.25454  0.54414  1.0000
  H   H15       1.0  0.82393  0.74546  0.04415  1.0000
  H   H16       1.0  0.17606  0.74546  0.95586  1.0000
  H   H17       1.0  0.34864  0.55572  0.45865  1.0000
  H   H18       1.0  0.65136  0.55572  0.54135  1.0000
  H   H19       1.0  0.84864  0.44428  0.04136  1.0000
  H   H20       1.0  0.15136  0.44428  0.95865  1.0000
  C   C1        1.0  0.15463  0.24835  0.58494  1.0000
  C   C2        1.0  0.84537  0.24835  0.41506  1.0000
  C   C3        1.0  0.65463  0.75165  0.91506  1.0000
  C   C4        1.0  0.34537  0.75165  0.08494  1.0000
  C   C5        1.0  0.25722  0.32510  0.51327  1.0000
  C   C6        1.0  0.74278  0.32510  0.48673  1.0000
  C   C7        1.0  0.75722  0.67490  0.98672  1.0000
  C   C8        1.0  0.24278  0.67491  0.01328  1.0000
  C   C9        1.0  0.27085  0.49206  0.51438  1.0000
  C   C10       1.0  0.72916  0.49206  0.48562  1.0000
  C   C11       1.0  0.77085  0.50794  0.98562  1.0000
  C   C12       1.0  0.22915  0.50794  0.01438  1.0000
  C   C13       1.0  0.18326  0.58111  0.58856  1.0000
  C   C14       1.0  0.81674  0.58111  0.41144  1.0000
  C   C15       1.0  0.68326  0.41889  0.91144  1.0000
  C   C16       1.0  0.31674  0.41890  0.08856  1.0000
  C   C17       1.0  0.08183  0.49221  0.65698  1.0000
  C   C18       1.0  0.91816  0.49221  0.34303  1.0000
  C   C19       1.0  0.58183  0.50779  0.84302  1.0000
  C   C20       1.0  0.41817  0.50779  0.15698  1.0000
  N   N1        1.0  0.06706  0.33236  0.65558  1.0000
  N   N2        1.0  0.93294  0.33236  0.34442  1.0000
  N   N3        1.0  0.56706  0.66764  0.84442  1.0000
  N   N4        1.0  0.43294  0.66764  0.15558  1.0000
  N   N5        1.0  0.20427  0.74750  0.59855  1.0000
  N   N6        1.0  0.79573  0.74750  0.40145  1.0000
  N   N7        1.0  0.70427  0.25250  0.90145  1.0000
  N   N8        1.0  0.29573  0.25250  0.09855  1.0000
  N   N9        1.0  0.73127  0.93396  0.63681  1.0000
  N   N10       1.0  0.26873  0.93396  0.36319  1.0000
  N   N11       1.0  0.23127  0.06604  0.86319  1.0000
  N   N12       1.0  0.76873  0.06604  0.13681  1.0000
  Cl  Cl1       1.0  0.97336  0.59567  0.75082  1.0000
  Cl  Cl2       1.0  0.02664  0.59568  0.24918  1.0000
  Cl  Cl3       1.0  0.47336  0.40432  0.74919  1.0000
  Cl  Cl4       1.0  0.52664  0.40432  0.25082  1.0000
  O   O1        1.0  0.87934  0.96229  0.60218  1.0000
  O   O2        1.0  0.12066  0.96229  0.39782  1.0000
  O   O3        1.0  0.37934  0.03771  0.89782  1.0000
  O   O4        1.0  0.62066  0.03771  0.10218  1.0000
  O   O5        1.0  0.67811  0.00288  0.71708  1.0000
  O   O6        1.0  0.32189  0.00288  0.28292  1.0000
  O   O7        1.0  0.17811  0.99712  0.78292  1.0000
  O   O8        1.0  0.82189  0.99712  0.21708  1.0000
  O   O9        1.0  0.63140  0.83635  0.59092  1.0000
  O   O10       1.0  0.36860  0.83635  0.40908  1.0000
  O   O11       1.0  0.13140  0.16365  0.90908  1.0000
  O   O12       1.0  0.86860  0.16365  0.09092  1.0000
