data_image0
_chemical_formula_structural       Cs2B2H48C32N8O12
_chemical_formula_sum              "Cs2 B2 H48 C32 N8 O12"
_cell_length_a       10.1293
_cell_length_b       10.4179
_cell_length_c       10.4179
_cell_angle_alpha    97.2085
_cell_angle_beta     91.5246
_cell_angle_gamma    91.5247

_space_group_name_H-M_alt    "P 1"
_space_group_IT_number       1

loop_
  _space_group_symop_operation_xyz
  'x, y, z'

loop_
  _atom_site_type_symbol
  _atom_site_label
  _atom_site_symmetry_multiplicity
  _atom_site_fract_x
  _atom_site_fract_y
  _atom_site_fract_z
  _atom_site_occupancy
  Cs  Cs1       1.0  0.75000  0.24367  0.75633  1.0000
  Cs  Cs2       1.0  0.25000  0.75633  0.24367  1.0000
  B   B1        1.0  0.75000  0.96895  0.03105  1.0000
  B   B2        1.0  0.25000  0.03105  0.96895  1.0000
  H   H1        1.0  0.63307  0.64034  0.79837  1.0000
  H   H2        1.0  0.86693  0.20163  0.35966  1.0000
  H   H3        1.0  0.36693  0.35966  0.20163  1.0000
  H   H4        1.0  0.13307  0.79837  0.64034  1.0000
  H   H5        1.0  0.53660  0.64742  0.94037  1.0000
  H   H6        1.0  0.96340  0.05963  0.35258  1.0000
  H   H7        1.0  0.46340  0.35258  0.05963  1.0000
  H   H8        1.0  0.03660  0.94037  0.64742  1.0000
  H   H9        1.0  0.43287  0.42858  0.84911  1.0000
  H   H10       1.0  0.06713  0.15089  0.57142  1.0000
  H   H11       1.0  0.56713  0.57142  0.15089  1.0000
  H   H12       1.0  0.93287  0.84911  0.42858  1.0000
  H   H13       1.0  0.39352  0.56168  0.76388  1.0000
  H   H14       1.0  0.10648  0.23612  0.43832  1.0000
  H   H15       1.0  0.60648  0.43832  0.23612  1.0000
  H   H16       1.0  0.89352  0.76388  0.56168  1.0000
  H   H17       1.0  0.34988  0.42109  0.56801  1.0000
  H   H18       1.0  0.15012  0.43199  0.57891  1.0000
  H   H19       1.0  0.65012  0.57891  0.43199  1.0000
  H   H20       1.0  0.84988  0.56801  0.42109  1.0000
  H   H21       1.0  0.37910  0.28691  0.65617  1.0000
  H   H22       1.0  0.12090  0.34383  0.71309  1.0000
  H   H23       1.0  0.62090  0.71309  0.34383  1.0000
  H   H24       1.0  0.87910  0.65617  0.28691  1.0000
  H   H25       1.0  0.39986  0.24536  0.41195  1.0000
  H   H26       1.0  0.10014  0.58805  0.75464  1.0000
  H   H27       1.0  0.60014  0.75464  0.58805  1.0000
  H   H28       1.0  0.89986  0.41195  0.24535  1.0000
  H   H29       1.0  0.54072  0.35369  0.42709  1.0000
  H   H30       1.0  0.95928  0.57291  0.64631  1.0000
  H   H31       1.0  0.45928  0.64631  0.57291  1.0000
  H   H32       1.0  0.04072  0.42709  0.35369  1.0000
  H   H33       1.0  0.65541  0.17722  0.33304  1.0000
  H   H34       1.0  0.84459  0.66696  0.82278  1.0000
  H   H35       1.0  0.34459  0.82278  0.66696  1.0000
  H   H36       1.0  0.15541  0.33304  0.17722  1.0000
  H   H37       1.0  0.53107  0.05459  0.34104  1.0000
  H   H38       1.0  0.96893  0.65896  0.94541  1.0000
  H   H39       1.0  0.46893  0.94541  0.65896  1.0000
  H   H40       1.0  0.03107  0.34104  0.05459  1.0000
  H   H41       1.0  0.82917  0.49417  0.04127  1.0000
  H   H42       1.0  0.67083  0.95873  0.50583  1.0000
  H   H43       1.0  0.17083  0.50584  0.95873  1.0000
  H   H44       1.0  0.32917  0.04127  0.49417  1.0000
  H   H45       1.0  0.75802  0.64953  0.04735  1.0000
  H   H46       1.0  0.74198  0.95265  0.35047  1.0000
  H   H47       1.0  0.24198  0.35047  0.95265  1.0000
  H   H48       1.0  0.25802  0.04735  0.64953  1.0000
  C   C1        1.0  0.74591  0.93005  0.87877  1.0000
  C   C2        1.0  0.75409  0.12123  0.06995  1.0000
  C   C3        1.0  0.25409  0.06995  0.12123  1.0000
  C   C4        1.0  0.24591  0.87877  0.93005  1.0000
  C   C5        1.0  0.62266  0.90790  0.08839  1.0000
  C   C6        1.0  0.87734  0.91161  0.09210  1.0000
  C   C7        1.0  0.37734  0.09210  0.91161  1.0000
  C   C8        1.0  0.12265  0.08839  0.90790  1.0000
  C   C9        1.0  0.58164  0.58135  0.86360  1.0000
  C   C10       1.0  0.91836  0.13640  0.41865  1.0000
  C   C11       1.0  0.41836  0.41865  0.13640  1.0000
  C   C12       1.0  0.08164  0.86360  0.58136  1.0000
  C   C13       1.0  0.47420  0.49879  0.78879  1.0000
  C   C14       1.0  0.02580  0.21121  0.50122  1.0000
  C   C15       1.0  0.52580  0.50122  0.21121  1.0000
  C   C16       1.0  0.97420  0.78879  0.49879  1.0000
  C   C17       1.0  0.42641  0.35631  0.59813  1.0000
  C   C18       1.0  0.07359  0.40187  0.64369  1.0000
  C   C19       1.0  0.57359  0.64369  0.40187  1.0000
  C   C20       1.0  0.92641  0.59813  0.35631  1.0000
  C   C21       1.0  0.48245  0.28544  0.47777  1.0000
  C   C22       1.0  0.01755  0.52223  0.71456  1.0000
  C   C23       1.0  0.51755  0.71456  0.52223  1.0000
  C   C24       1.0  0.98245  0.47777  0.28544  1.0000
  C   C25       1.0  0.61249  0.11068  0.39656  1.0000
  C   C26       1.0  0.88751  0.60344  0.88932  1.0000
  C   C27       1.0  0.38751  0.88932  0.60344  1.0000
  C   C28       1.0  0.11249  0.39656  0.11068  1.0000
  C   C29       1.0  0.78593  0.56326  0.98196  1.0000
  C   C30       1.0  0.71407  0.01804  0.43674  1.0000
  C   C31       1.0  0.21407  0.43674  0.01804  1.0000
  C   C32       1.0  0.28593  0.98196  0.56326  1.0000
  N   N1        1.0  0.74179  0.89709  0.76748  1.0000
  N   N2        1.0  0.75821  0.23252  0.10291  1.0000
  N   N3        1.0  0.25821  0.10291  0.23252  1.0000
  N   N4        1.0  0.24179  0.76748  0.89709  1.0000
  N   N5        1.0  0.53051  0.86127  0.13127  1.0000
  N   N6        1.0  0.96949  0.86873  0.13874  1.0000
  N   N7        1.0  0.46949  0.13874  0.86873  1.0000
  N   N8        1.0  0.03051  0.13127  0.86126  1.0000
  O   O1        1.0  0.67109  0.49806  0.91939  1.0000
  O   O2        1.0  0.82891  0.08061  0.50194  1.0000
  O   O3        1.0  0.32891  0.50194  0.08061  1.0000
  O   O4        1.0  0.17109  0.91939  0.49806  1.0000
  O   O5        1.0  0.52715  0.43141  0.67395  1.0000
  O   O6        1.0  0.97285  0.32605  0.56859  1.0000
  O   O7        1.0  0.47285  0.56859  0.32605  1.0000
  O   O8        1.0  0.02715  0.67395  0.43141  1.0000
  O   O9        1.0  0.56371  0.18359  0.51027  1.0000
  O   O10       1.0  0.93629  0.48973  0.81641  1.0000
  O   O11       1.0  0.43629  0.81641  0.48973  1.0000
  O   O12       1.0  0.06371  0.51027  0.18359  1.0000
