data_image0
_chemical_formula_structural       FeH20C24N10O2
_chemical_formula_sum              "Fe1 H20 C24 N10 O2"
_cell_length_a       8.31161
_cell_length_b       7.91621
_cell_length_c       9.48903
_cell_angle_alpha    100.954
_cell_angle_beta     102.203
_cell_angle_gamma    97.0947

_space_group_name_H-M_alt    "P 1"
_space_group_IT_number       1

loop_
  _space_group_symop_operation_xyz
  'x, y, z'

loop_
  _atom_site_type_symbol
  _atom_site_label
  _atom_site_symmetry_multiplicity
  _atom_site_fract_x
  _atom_site_fract_y
  _atom_site_fract_z
  _atom_site_occupancy
  Fe  Fe1       1.0  0.00045  0.99959  0.99938  1.0000
  H   H1        1.0  0.94067  0.24625  0.84139  1.0000
  H   H2        1.0  0.06036  0.75519  0.15895  1.0000
  H   H3        1.0  0.13451  0.21817  0.85500  1.0000
  H   H4        1.0  0.86589  0.78163  0.14324  1.0000
  H   H5        1.0  0.82094  0.29626  0.06338  1.0000
  H   H6        1.0  0.18107  0.70340  0.93471  1.0000
  H   H7        1.0  0.82185  0.52882  0.27460  1.0000
  H   H8        1.0  0.17922  0.47030  0.72348  1.0000
  H   H9        1.0  0.15281  0.27092  0.54930  1.0000
  H   H10       1.0  0.84557  0.72657  0.44956  1.0000
  H   H11       1.0  0.13668  0.05127  0.32411  1.0000
  H   H12       1.0  0.86253  0.94664  0.67480  1.0000
  H   H13       1.0  0.74477  0.10285  0.55172  1.0000
  H   H14       1.0  0.25607  0.90017  0.44980  1.0000
  H   H15       1.0  0.55550  0.22824  0.38357  1.0000
  H   H16       1.0  0.44481  0.77421  0.61806  1.0000
  H   H17       1.0  0.59060  0.65973  0.75307  1.0000
  H   H18       1.0  0.40759  0.34148  0.24898  1.0000
  H   H19       1.0  0.78751  0.52034  0.90421  1.0000
  H   H20       1.0  0.21185  0.48181  0.09758  1.0000
  C   C1        1.0  0.62906  0.99718  0.87411  1.0000
  C   C2        1.0  0.37139  0.00222  0.12662  1.0000
  C   C3        1.0  0.38630  0.10675  0.79296  1.0000
  C   C4        1.0  0.61328  0.89129  0.20693  1.0000
  C   C5        1.0  0.89339  0.29612  0.17303  1.0000
  C   C6        1.0  0.10770  0.70294  0.82527  1.0000
  C   C7        1.0  0.89528  0.42686  0.29369  1.0000
  C   C8        1.0  0.10521  0.57186  0.70464  1.0000
  C   C9        1.0  0.99285  0.42794  0.43461  1.0000
  C   C10       1.0  0.00672  0.57025  0.56394  1.0000
  C   C11       1.0  0.07718  0.28540  0.44474  1.0000
  C   C12       1.0  0.92187  0.71248  0.55400  1.0000
  C   C13       1.0  0.06857  0.15945  0.31884  1.0000
  C   C14       1.0  0.93104  0.83872  0.67989  1.0000
  C   C15       1.0  0.70736  0.22641  0.59373  1.0000
  C   C16       1.0  0.29288  0.77619  0.40794  1.0000
  C   C17       1.0  0.59879  0.29799  0.49855  1.0000
  C   C18       1.0  0.40109  0.70428  0.50314  1.0000
  C   C19       1.0  0.55386  0.45879  0.55105  1.0000
  C   C20       1.0  0.44531  0.54300  0.45085  1.0000
  C   C21       1.0  0.61935  0.53584  0.70189  1.0000
  C   C22       1.0  0.37941  0.46576  0.30006  1.0000
  C   C23       1.0  0.72917  0.45633  0.78893  1.0000
  C   C24       1.0  0.27014  0.54576  0.21292  1.0000
  N   N1        1.0  0.76894  0.98331  0.92025  1.0000
  N   N2        1.0  0.23191  0.01568  0.07834  1.0000
  N   N3        1.0  0.47151  0.98496  0.81696  1.0000
  N   N4        1.0  0.52819  0.01426  0.18684  1.0000
  N   N5        1.0  0.29314  0.20379  0.76384  1.0000
  N   N6        1.0  0.70601  0.79293  0.23318  1.0000
  N   N7        1.0  0.98198  0.16442  0.18231  1.0000
  N   N8        1.0  0.01865  0.83431  0.81620  1.0000
  N   N9        1.0  0.77464  0.30389  0.73640  1.0000
  N   N10       1.0  0.22534  0.69864  0.26531  1.0000
  O   O1        1.0  0.04548  0.22864  0.91132  1.0000
  O   O2        1.0  0.95578  0.77153  0.08784  1.0000
