data_image0
_chemical_formula_structural       Co3H16C30N8O8
_chemical_formula_sum              "Co3 H16 C30 N8 O8"
_cell_length_a       9.17742
_cell_length_b       10.674
_cell_length_c       11.0553
_cell_angle_alpha    63.3034
_cell_angle_beta     86.686
_cell_angle_gamma    74.0431

_space_group_name_H-M_alt    "P 1"
_space_group_IT_number       1

loop_
  _space_group_symop_operation_xyz
  'x, y, z'

loop_
  _atom_site_type_symbol
  _atom_site_label
  _atom_site_symmetry_multiplicity
  _atom_site_fract_x
  _atom_site_fract_y
  _atom_site_fract_z
  _atom_site_occupancy
  Co  Co1       1.0  0.49969  0.49917  0.50060  1.0000
  Co  Co2       1.0  0.21666  0.27046  0.47900  1.0000
  Co  Co3       1.0  0.78317  0.72950  0.52123  1.0000
  H   H1        1.0  0.59844  0.21822  0.89256  1.0000
  H   H2        1.0  0.40180  0.78169  0.10786  1.0000
  H   H3        1.0  0.67510  0.03676  0.13661  1.0000
  H   H4        1.0  0.32534  0.96295  0.86361  1.0000
  H   H5        1.0  0.63903  0.53236  0.16604  1.0000
  H   H6        1.0  0.36147  0.46723  0.83406  1.0000
  H   H7        1.0  0.70711  0.62108  0.92347  1.0000
  H   H8        1.0  0.29341  0.37847  0.07663  1.0000
  H   H9        1.0  0.89420  0.22470  0.30126  1.0000
  H   H10       1.0  0.10555  0.77536  0.69861  1.0000
  H   H11       1.0  0.85899  0.99372  0.31641  1.0000
  H   H12       1.0  0.14092  0.00622  0.68364  1.0000
  H   H13       1.0  0.69087  0.88458  0.69511  1.0000
  H   H14       1.0  0.30879  0.11562  0.30480  1.0000
  H   H15       1.0  0.71780  0.11245  0.69576  1.0000
  H   H16       1.0  0.28204  0.88762  0.30418  1.0000
  C   C1        1.0  0.41206  0.20963  0.71804  1.0000
  C   C2        1.0  0.58870  0.78992  0.28208  1.0000
  C   C3        1.0  0.45695  0.10146  0.86400  1.0000
  C   C4        1.0  0.54327  0.89846  0.13623  1.0000
  C   C5        1.0  0.55655  0.12203  0.94057  1.0000
  C   C6        1.0  0.44357  0.87795  0.05973  1.0000
  C   C7        1.0  0.59904  0.02134  0.07568  1.0000
  C   C8        1.0  0.40118  0.97856  0.92457  1.0000
  C   C9        1.0  0.42313  0.39795  0.28035  1.0000
  C   C10       1.0  0.57685  0.60235  0.71962  1.0000
  C   C11       1.0  0.46281  0.44987  0.13560  1.0000
  C   C12       1.0  0.53745  0.55001  0.86446  1.0000
  C   C13       1.0  0.57979  0.51808  0.09246  1.0000
  C   C14       1.0  0.42058  0.48167  0.90761  1.0000
  C   C15       1.0  0.61666  0.56772  0.95805  1.0000
  C   C16       1.0  0.38373  0.43199  0.04204  1.0000
  C   C17       1.0  0.94538  0.46343  0.50277  1.0000
  C   C18       1.0  0.05391  0.53711  0.49655  1.0000
  C   C19       1.0  0.83889  0.31277  0.50168  1.0000
  C   C20       1.0  0.16068  0.68745  0.49817  1.0000
  C   C21       1.0  0.81083  0.18544  0.49931  1.0000
  C   C22       1.0  0.18880  0.81478  0.50053  1.0000
  C   C23       1.0  0.84930  0.15203  0.39052  1.0000
  C   C24       1.0  0.15037  0.84811  0.60935  1.0000
  C   C25       1.0  0.82969  0.02439  0.39832  1.0000
  C   C26       1.0  0.17000  0.97572  0.60160  1.0000
  C   C27       1.0  0.73494  0.96366  0.61018  1.0000
  C   C28       1.0  0.26466  0.03656  0.38970  1.0000
  C   C29       1.0  0.74988  0.08971  0.60984  1.0000
  C   C30       1.0  0.24980  0.91048  0.39002  1.0000
  N   N1        1.0  0.97729  0.34182  0.48487  1.0000
  N   N2        1.0  0.02206  0.65888  0.51420  1.0000
  N   N3        1.0  0.80364  0.50956  0.52764  1.0000
  N   N4        1.0  0.19586  0.49040  0.47251  1.0000
  N   N5        1.0  0.73311  0.41300  0.52680  1.0000
  N   N6        1.0  0.26648  0.58686  0.47363  1.0000
  N   N7        1.0  0.77646  0.92949  0.50726  1.0000
  N   N8        1.0  0.22311  0.07071  0.49263  1.0000
  O   O1        1.0  0.47009  0.31500  0.66665  1.0000
  O   O2        1.0  0.52895  0.68584  0.33412  1.0000
  O   O3        1.0  0.31948  0.18104  0.65743  1.0000
  O   O4        1.0  0.68374  0.81721  0.34156  1.0000
  O   O5        1.0  0.49791  0.41469  0.36140  1.0000
  O   O6        1.0  0.50190  0.58648  0.63810  1.0000
  O   O7        1.0  0.31525  0.33499  0.31109  1.0000
  O   O8        1.0  0.68481  0.66526  0.68903  1.0000
