data_image0
_chemical_formula_structural       FeH8PtC14N6Cl2
_chemical_formula_sum              "Fe1 H8 Pt1 C14 N6 Cl2"
_cell_length_a       6.89524
_cell_length_b       7.3842
_cell_length_c       8.77582
_cell_angle_alpha    98.6216
_cell_angle_beta     113.171
_cell_angle_gamma    90.0023

_space_group_name_H-M_alt    "P 1"
_space_group_IT_number       1

loop_
  _space_group_symop_operation_xyz
  'x, y, z'

loop_
  _atom_site_type_symbol
  _atom_site_label
  _atom_site_symmetry_multiplicity
  _atom_site_fract_x
  _atom_site_fract_y
  _atom_site_fract_z
  _atom_site_occupancy
  Fe  Fe1       1.0  0.50988  0.49868  0.02019  1.0000
  H   H1        1.0  0.62123  0.21924  0.24211  1.0000
  H   H2        1.0  0.37720  0.77823  0.75484  1.0000
  H   H3        1.0  0.87804  0.50231  0.75481  1.0000
  H   H4        1.0  0.11921  0.50562  0.23796  1.0000
  H   H5        1.0  0.82074  0.79746  0.64073  1.0000
  H   H6        1.0  0.17234  0.20683  0.34482  1.0000
  H   H7        1.0  0.66366  0.78943  0.32733  1.0000
  H   H8        1.0  0.32969  0.20981  0.65980  1.0000
  Pt  Pt1       1.0  0.00086  0.99618  0.00228  1.0000
  C   C1        1.0  0.66682  0.34499  0.33321  1.0000
  C   C2        1.0  0.33013  0.65434  0.66082  1.0000
  C   C3        1.0  0.75295  0.34114  0.50498  1.0000
  C   C4        1.0  0.24461  0.66269  0.48938  1.0000
  C   C5        1.0  0.81052  0.50385  0.62007  1.0000
  C   C6        1.0  0.18615  0.50135  0.37227  1.0000
  C   C7        1.0  0.77784  0.66725  0.55494  1.0000
  C   C8        1.0  0.21653  0.33534  0.43323  1.0000
  C   C9        1.0  0.69123  0.66437  0.38214  1.0000
  C   C10       1.0  0.30281  0.33587  0.60614  1.0000
  C   C11       1.0  0.19379  0.18838  0.99293  1.0000
  C   C12       1.0  0.20624  0.80521  0.01840  1.0000
  C   C13       1.0  0.81126  0.80555  0.01831  1.0000
  C   C14       1.0  0.79901  0.18879  0.99300  1.0000
  N   N1        1.0  0.63636  0.50487  0.27255  1.0000
  N   N2        1.0  0.35752  0.49316  0.71561  1.0000
  N   N3        1.0  0.30530  0.31011  0.99612  1.0000
  N   N4        1.0  0.32101  0.68615  0.02832  1.0000
  N   N5        1.0  0.70648  0.68641  0.02826  1.0000
  N   N6        1.0  0.69068  0.31050  0.99612  1.0000
  Cl  Cl1       1.0  0.78651  0.13160  0.57179  1.0000
  Cl  Cl2       1.0  0.21338  0.87428  0.42655  1.0000
