data_image0
_chemical_formula_structural       FeH8PdC14N6F2
_chemical_formula_sum              "Fe1 H8 Pd1 C14 N6 F2"
_cell_length_a       7.04905
_cell_length_b       7.16075
_cell_length_c       8.58052
_cell_angle_alpha    114.526
_cell_angle_beta     98.2127
_cell_angle_gamma    90.0002

_space_group_name_H-M_alt    "P 1"
_space_group_IT_number       1

loop_
  _space_group_symop_operation_xyz
  'x, y, z'

loop_
  _atom_site_type_symbol
  _atom_site_label
  _atom_site_symmetry_multiplicity
  _atom_site_fract_x
  _atom_site_fract_y
  _atom_site_fract_z
  _atom_site_occupancy
  Fe  Fe1       1.0  0.99963  0.01064  0.02121  1.0000
  H   H1        1.0  0.31171  0.87806  0.75466  1.0000
  H   H2        1.0  0.68823  0.11876  0.23958  1.0000
  H   H3        1.0  0.04153  0.60869  0.21777  1.0000
  H   H4        1.0  0.95977  0.38793  0.77532  1.0000
  H   H5        1.0  0.72098  0.66104  0.32363  1.0000
  H   H6        1.0  0.27999  0.33451  0.66745  1.0000
  H   H7        1.0  0.71558  0.82189  0.64488  1.0000
  H   H8        1.0  0.28585  0.17469  0.34821  1.0000
  Pd  Pd1       1.0  0.49695  0.49958  0.99891  1.0000
  C   C1        1.0  0.18361  0.82841  0.65616  1.0000
  C   C2        1.0  0.81698  0.16775  0.33664  1.0000
  C   C3        1.0  0.19494  0.74022  0.48009  1.0000
  C   C4        1.0  0.80663  0.25583  0.51254  1.0000
  C   C5        1.0  0.03115  0.67745  0.35539  1.0000
  C   C6        1.0  0.96988  0.31889  0.63761  1.0000
  C   C7        1.0  0.85479  0.70708  0.41518  1.0000
  C   C8        1.0  0.14556  0.28866  0.57651  1.0000
  C   C9        1.0  0.85034  0.79624  0.59301  1.0000
  C   C10       1.0  0.15090  0.19977  0.39917  1.0000
  C   C11       1.0  0.68997  0.68636  0.98144  1.0000
  C   C12       1.0  0.30706  0.70885  0.02590  1.0000
  C   C13       1.0  0.30653  0.31763  0.02573  1.0000
  C   C14       1.0  0.68958  0.29486  0.98121  1.0000
  N   N1        1.0  0.01202  0.85466  0.70901  1.0000
  N   N2        1.0  0.98886  0.14013  0.28069  1.0000
  N   N3        1.0  0.80776  0.80604  0.98815  1.0000
  N   N4        1.0  0.19264  0.83065  0.03737  1.0000
  N   N5        1.0  0.19209  0.20713  0.03702  1.0000
  N   N6        1.0  0.80731  0.18177  0.98782  1.0000
  F   F1        1.0  0.37232  0.71639  0.43178  1.0000
  F   F2        1.0  0.62884  0.27945  0.55998  1.0000
