data_image0
_chemical_formula_structural       FeH8PdC14I2N6
_chemical_formula_sum              "Fe1 H8 Pd1 C14 I2 N6"
_cell_length_a       6.78848
_cell_length_b       7.33848
_cell_length_c       9.56745
_cell_angle_alpha    112.411
_cell_angle_beta     89.4952
_cell_angle_gamma    89.9998

_space_group_name_H-M_alt    "P 1"
_space_group_IT_number       1

loop_
  _space_group_symop_operation_xyz
  'x, y, z'

loop_
  _atom_site_type_symbol
  _atom_site_label
  _atom_site_symmetry_multiplicity
  _atom_site_fract_x
  _atom_site_fract_y
  _atom_site_fract_z
  _atom_site_occupancy
  Fe  Fe1       1.0  0.49110  0.50827  0.01688  1.0000
  H   H1        1.0  0.33711  0.33539  0.67110  1.0000
  H   H2        1.0  0.66922  0.66073  0.32182  1.0000
  H   H3        1.0  0.81859  0.17297  0.34525  1.0000
  H   H4        1.0  0.18781  0.82381  0.64765  1.0000
  H   H5        1.0  0.04895  0.28246  0.56300  1.0000
  H   H6        1.0  0.95804  0.71413  0.42903  1.0000
  H   H7        1.0  0.90910  0.41508  0.82851  1.0000
  H   H8        1.0  0.09524  0.58201  0.16526  1.0000
  Pd  Pd1       1.0  0.99301  0.00102  0.00231  1.0000
  C   C1        1.0  0.49319  0.32078  0.64129  1.0000
  C   C2        1.0  0.51337  0.67552  0.35142  1.0000
  C   C3        1.0  0.55945  0.24577  0.49118  1.0000
  C   C4        1.0  0.44656  0.75046  0.50106  1.0000
  C   C5        1.0  0.76200  0.23098  0.46113  1.0000
  C   C6        1.0  0.24425  0.76584  0.53182  1.0000
  C   C7        1.0  0.89033  0.29234  0.58320  1.0000
  C   C8        1.0  0.11665  0.70448  0.40953  1.0000
  C   C9        1.0  0.81411  0.36565  0.72988  1.0000
  C   C10       1.0  0.19127  0.63100  0.26284  1.0000
  C   C11       1.0  0.79710  0.82664  0.04233  1.0000
  C   C12       1.0  0.19020  0.78920  0.96759  1.0000
  C   C13       1.0  0.19030  0.17830  0.96764  1.0000
  C   C14       1.0  0.79711  0.21506  0.04214  1.0000
  I   I1        1.0  0.35583  0.15674  0.31429  1.0000
  I   I2        1.0  0.64841  0.84003  0.67962  1.0000
  N   N1        1.0  0.61948  0.37848  0.75623  1.0000
  N   N2        1.0  0.38726  0.61679  0.23428  1.0000
  N   N3        1.0  0.68293  0.71111  0.05035  1.0000
  N   N4        1.0  0.30451  0.67096  0.97033  1.0000
  N   N5        1.0  0.30454  0.29941  0.97053  1.0000
  N   N6        1.0  0.68299  0.33865  0.05036  1.0000
