data_image0
_chemical_formula_structural       FeH8PtC14N6F2
_chemical_formula_sum              "Fe1 H8 Pt1 C14 N6 F2"
_cell_length_a       7.05391
_cell_length_b       7.15683
_cell_length_c       8.61481
_cell_angle_alpha    114.437
_cell_angle_beta     98.5702
_cell_angle_gamma    90.0005

_space_group_name_H-M_alt    "P 1"
_space_group_IT_number       1

loop_
  _space_group_symop_operation_xyz
  'x, y, z'

loop_
  _atom_site_type_symbol
  _atom_site_label
  _atom_site_symmetry_multiplicity
  _atom_site_fract_x
  _atom_site_fract_y
  _atom_site_fract_z
  _atom_site_occupancy
  Fe  Fe1       1.0  0.50039  0.98947  0.97914  1.0000
  H   H1        1.0  0.81051  0.88133  0.76179  1.0000
  H   H2        1.0  0.18978  0.12103  0.24382  1.0000
  H   H3        1.0  0.53546  0.61376  0.22779  1.0000
  H   H4        1.0  0.46278  0.38994  0.77905  1.0000
  H   H5        1.0  0.21611  0.66713  0.33477  1.0000
  H   H6        1.0  0.78289  0.33791  0.67446  1.0000
  H   H7        1.0  0.21262  0.82654  0.65319  1.0000
  H   H8        1.0  0.78595  0.17730  0.35402  1.0000
  Pt  Pt1       1.0  0.00313  0.50021  0.00064  1.0000
  C   C1        1.0  0.68120  0.83283  0.66492  1.0000
  C   C2        1.0  0.31830  0.17058  0.34219  1.0000
  C   C3        1.0  0.69032  0.74515  0.48967  1.0000
  C   C4        1.0  0.30787  0.25865  0.51753  1.0000
  C   C5        1.0  0.52625  0.68255  0.36500  1.0000
  C   C6        1.0  0.47237  0.32129  0.64199  1.0000
  C   C7        1.0  0.35104  0.71277  0.42565  1.0000
  C   C8        1.0  0.64847  0.29184  0.58291  1.0000
  C   C9        1.0  0.34699  0.80120  0.60232  1.0000
  C   C10       1.0  0.65180  0.20297  0.40574  1.0000
  C   C11       1.0  0.81042  0.70461  0.01803  1.0000
  C   C12       1.0  0.19364  0.68239  0.97460  1.0000
  C   C13       1.0  0.19327  0.29148  0.97445  1.0000
  C   C14       1.0  0.81015  0.31339  0.01792  1.0000
  N   N1        1.0  0.50975  0.86034  0.72033  1.0000
  N   N2        1.0  0.48957  0.14472  0.28999  1.0000
  N   N3        1.0  0.69269  0.81839  0.01278  1.0000
  N   N4        1.0  0.30785  0.79255  0.96254  1.0000
  N   N5        1.0  0.30755  0.16937  0.96232  1.0000
  N   N6        1.0  0.69247  0.19428  0.01255  1.0000
  F   F1        1.0  0.86754  0.72158  0.44238  1.0000
  F   F2        1.0  0.13089  0.28243  0.56554  1.0000
