data_image0
_chemical_formula_structural       P2H12Pb2C6N2O10
_chemical_formula_sum              "P2 H12 Pb2 C6 N2 O10"
_cell_length_a       4.61231
_cell_length_b       7.84497
_cell_length_c       9.91078
_cell_angle_alpha    104.76
_cell_angle_beta     100.686
_cell_angle_gamma    90.1912

_space_group_name_H-M_alt    "P 1"
_space_group_IT_number       1

loop_
  _space_group_symop_operation_xyz
  'x, y, z'

loop_
  _atom_site_type_symbol
  _atom_site_label
  _atom_site_symmetry_multiplicity
  _atom_site_fract_x
  _atom_site_fract_y
  _atom_site_fract_z
  _atom_site_occupancy
  P   P1        1.0  0.96530  0.17343  0.38316  1.0000
  P   P2        1.0  0.03472  0.82658  0.61684  1.0000
  H   H1        1.0  0.94761  0.39534  0.24541  1.0000
  H   H2        1.0  0.05238  0.60466  0.75460  1.0000
  H   H3        1.0  0.28960  0.40626  0.36410  1.0000
  H   H4        1.0  0.71040  0.59375  0.63591  1.0000
  H   H5        1.0  0.44181  0.14716  0.21657  1.0000
  H   H6        1.0  0.55817  0.85284  0.78343  1.0000
  H   H7        1.0  0.10439  0.09883  0.11510  1.0000
  H   H8        1.0  0.89558  0.90117  0.88489  1.0000
  H   H9        1.0  0.38241  0.43651  0.11896  1.0000
  H   H10       1.0  0.61756  0.56348  0.88104  1.0000
  H   H11       1.0  0.52555  0.23809  0.03199  1.0000
  H   H12       1.0  0.47445  0.76190  0.96801  1.0000
  Pb  Pb1       1.0  0.43218  0.79824  0.32978  1.0000
  Pb  Pb2       1.0  0.56795  0.20180  0.67022  1.0000
  C   C1        1.0  0.11670  0.31562  0.28895  1.0000
  C   C2        1.0  0.88328  0.68438  0.71106  1.0000
  C   C3        1.0  0.32742  0.29611  0.06813  1.0000
  C   C4        1.0  0.67256  0.70389  0.93186  1.0000
  C   C5        1.0  0.08386  0.27221  0.93724  1.0000
  C   C6        1.0  0.91615  0.72777  0.06276  1.0000
  N   N1        1.0  0.24916  0.20539  0.17206  1.0000
  N   N2        1.0  0.75080  0.79462  0.82794  1.0000
  O   O1        1.0  0.23225  0.06700  0.43139  1.0000
  O   O2        1.0  0.76775  0.93300  0.56862  1.0000
  O   O3        1.0  0.72699  0.05037  0.27067  1.0000
  O   O4        1.0  0.27301  0.94962  0.72932  1.0000
  O   O5        1.0  0.85991  0.29588  0.50802  1.0000
  O   O6        1.0  0.14006  0.70413  0.49196  1.0000
  O   O7        1.0  0.86609  0.16434  0.92378  1.0000
  O   O8        1.0  0.13392  0.83566  0.07621  1.0000
  O   O9        1.0  0.11767  0.35668  0.84788  1.0000
  O   O10       1.0  0.88234  0.64330  0.15213  1.0000
