data_image0
_chemical_formula_structural       Cu4H32C24N8Cl4
_chemical_formula_sum              "Cu4 H32 C24 N8 Cl4"
_cell_length_a       6.56964
_cell_length_b       9.59789
_cell_length_c       12.9524
_cell_angle_alpha    84.9934
_cell_angle_beta     75.2185
_cell_angle_gamma    69.9784

_space_group_name_H-M_alt    "P 1"
_space_group_IT_number       1

loop_
  _space_group_symop_operation_xyz
  'x, y, z'

loop_
  _atom_site_type_symbol
  _atom_site_label
  _atom_site_symmetry_multiplicity
  _atom_site_fract_x
  _atom_site_fract_y
  _atom_site_fract_z
  _atom_site_occupancy
  Cu  Cu1       1.0  0.28867  0.92233  0.24996  1.0000
  Cu  Cu2       1.0  0.96128  0.57707  0.25002  1.0000
  Cu  Cu3       1.0  0.03871  0.42294  0.74997  1.0000
  Cu  Cu4       1.0  0.71133  0.07767  0.75005  1.0000
  H   H1        1.0  0.73840  0.87404  0.11916  1.0000
  H   H2        1.0  0.23052  0.62689  0.38049  1.0000
  H   H3        1.0  0.88762  0.87380  0.38099  1.0000
  H   H4        1.0  0.64235  0.62707  0.11939  1.0000
  H   H5        1.0  0.35765  0.37293  0.88061  1.0000
  H   H6        1.0  0.11239  0.12618  0.61902  1.0000
  H   H7        1.0  0.76948  0.37312  0.61950  1.0000
  H   H8        1.0  0.26161  0.12597  0.88084  1.0000
  H   H9        1.0  0.96407  0.03593  0.12777  1.0000
  H   H10       1.0  0.62795  0.46398  0.37268  1.0000
  H   H11       1.0  0.50005  0.03575  0.37217  1.0000
  H   H12       1.0  0.40772  0.46449  0.12741  1.0000
  H   H13       1.0  0.59227  0.53551  0.87259  1.0000
  H   H14       1.0  0.49996  0.96424  0.62783  1.0000
  H   H15       1.0  0.37204  0.53603  0.62730  1.0000
  H   H16       1.0  0.03593  0.96406  0.87224  1.0000
  H   H17       1.0  0.94313  0.17983  0.02872  1.0000
  H   H18       1.0  0.65150  0.32002  0.47178  1.0000
  H   H19       1.0  0.37721  0.17972  0.47118  1.0000
  H   H20       1.0  0.52851  0.32039  0.02839  1.0000
  H   H21       1.0  0.47149  0.67961  0.97161  1.0000
  H   H22       1.0  0.62279  0.82028  0.52882  1.0000
  H   H23       1.0  0.34851  0.67998  0.52822  1.0000
  H   H24       1.0  0.05687  0.82016  0.97128  1.0000
  H   H25       1.0  0.99952  0.20358  0.15315  1.0000
  H   H26       1.0  0.85651  0.29630  0.34729  1.0000
  H   H27       1.0  0.29705  0.20341  0.34675  1.0000
  H   H28       1.0  0.34719  0.29672  0.15286  1.0000
  H   H29       1.0  0.65279  0.70329  0.84715  1.0000
  H   H30       1.0  0.70293  0.79659  0.65325  1.0000
  H   H31       1.0  0.14350  0.70370  0.65270  1.0000
  H   H32       1.0  0.00047  0.79643  0.84685  1.0000
  C   C1        1.0  0.27558  0.05788  0.04320  1.0000
  C   C2        1.0  0.87663  0.44201  0.45708  1.0000
  C   C3        1.0  0.16652  0.05785  0.45673  1.0000
  C   C4        1.0  0.18132  0.44218  0.04298  1.0000
  C   C5        1.0  0.81868  0.55782  0.95703  1.0000
  C   C6        1.0  0.83348  0.94213  0.54328  1.0000
  C   C7        1.0  0.12337  0.55799  0.54291  1.0000
  C   C8        1.0  0.72442  0.94211  0.95680  1.0000
  C   C9        1.0  0.63244  0.93135  0.06524  1.0000
  C   C10       1.0  0.12819  0.56941  0.43463  1.0000
  C   C11       1.0  0.93628  0.93119  0.43485  1.0000
  C   C12       1.0  0.80222  0.56944  0.06530  1.0000
  C   C13       1.0  0.19778  0.43056  0.93470  1.0000
  C   C14       1.0  0.06375  0.06880  0.56516  1.0000
  C   C15       1.0  0.87182  0.43059  0.56536  1.0000
  C   C16       1.0  0.36755  0.06866  0.93477  1.0000
  C   C17       1.0  0.03092  0.12354  0.09019  1.0000
  C   C18       1.0  0.74465  0.37633  0.41026  1.0000
  C   C19       1.0  0.34563  0.12344  0.40974  1.0000
  C   C20       1.0  0.37892  0.37673  0.08987  1.0000
  C   C21       1.0  0.62107  0.62328  0.91013  1.0000
  C   C22       1.0  0.65437  0.87655  0.59026  1.0000
  C   C23       1.0  0.25535  0.62367  0.58973  1.0000
  C   C24       1.0  0.96908  0.87645  0.90982  1.0000
  N   N1        1.0  0.41086  0.98676  0.10924  1.0000
  N   N2        1.0  0.00584  0.51393  0.39104  1.0000
  N   N3        1.0  0.10239  0.98661  0.39078  1.0000
  N   N4        1.0  0.98002  0.51411  0.10894  1.0000
  N   N5        1.0  0.01997  0.48590  0.89106  1.0000
  N   N6        1.0  0.89763  0.01338  0.60923  1.0000
  N   N7        1.0  0.99415  0.48608  0.60895  1.0000
  N   N8        1.0  0.58912  0.01324  0.89076  1.0000
  Cl  Cl1       1.0  0.59165  0.75006  0.31544  1.0000
  Cl  Cl2       1.0  0.15809  0.75011  0.18457  1.0000
  Cl  Cl3       1.0  0.40836  0.24994  0.68456  1.0000
  Cl  Cl4       1.0  0.84191  0.24990  0.81543  1.0000
