data_image0
_chemical_formula_structural       Cu4P4H52C58I4N2
_chemical_formula_sum              "Cu4 P4 H52 C58 I4 N2"
_cell_length_a       10.151
_cell_length_b       12.1669
_cell_length_c       13.1644
_cell_angle_alpha    108.477
_cell_angle_beta     105.451
_cell_angle_gamma    91.4386

_space_group_name_H-M_alt    "P 1"
_space_group_IT_number       1

loop_
  _space_group_symop_operation_xyz
  'x, y, z'

loop_
  _atom_site_type_symbol
  _atom_site_label
  _atom_site_symmetry_multiplicity
  _atom_site_fract_x
  _atom_site_fract_y
  _atom_site_fract_z
  _atom_site_occupancy
  Cu  Cu1       1.0  0.93562  0.51377  0.60578  1.0000
  Cu  Cu2       1.0  0.06438  0.48623  0.39422  1.0000
  Cu  Cu3       1.0  0.70773  0.30286  0.43010  1.0000
  Cu  Cu4       1.0  0.29226  0.69714  0.56990  1.0000
  P   P1        1.0  0.45214  0.84277  0.67815  1.0000
  P   P2        1.0  0.54786  0.15723  0.32184  1.0000
  P   P3        1.0  0.92268  0.66722  0.74561  1.0000
  P   P4        1.0  0.07732  0.33278  0.25439  1.0000
  H   H1        1.0  0.65757  0.48206  0.67251  1.0000
  H   H2        1.0  0.34243  0.51794  0.32749  1.0000
  H   H3        1.0  0.48286  0.68844  0.46693  1.0000
  H   H4        1.0  0.51714  0.31156  0.53307  1.0000
  H   H5        1.0  0.62582  0.03486  0.87646  1.0000
  H   H6        1.0  0.37418  0.96513  0.12354  1.0000
  H   H7        1.0  0.94783  0.74220  0.56234  1.0000
  H   H8        1.0  0.05218  0.25780  0.43767  1.0000
  H   H9        1.0  0.70802  0.63039  0.79355  1.0000
  H   H10       1.0  0.29198  0.36962  0.20645  1.0000
  H   H11       1.0  0.76273  0.78065  0.83442  1.0000
  H   H12       1.0  0.23727  0.21935  0.16558  1.0000
  H   H13       1.0  0.21835  0.96972  0.66373  1.0000
  H   H14       1.0  0.78165  0.03029  0.33626  1.0000
  H   H15       1.0  0.21221  0.74756  0.87143  1.0000
  H   H16       1.0  0.78778  0.25244  0.12857  1.0000
  H   H17       1.0  0.41420  0.69449  0.80318  1.0000
  H   H18       1.0  0.58580  0.30551  0.19681  1.0000
  H   H19       1.0  0.98741  0.10087  0.88992  1.0000
  H   H20       1.0  0.01258  0.89914  0.11008  1.0000
  H   H21       1.0  0.36871  0.29440  0.64409  1.0000
  H   H22       1.0  0.63129  0.70561  0.35592  1.0000
  H   H23       1.0  0.74587  0.03832  0.06808  1.0000
  H   H24       1.0  0.25412  0.96167  0.93192  1.0000
  H   H25       1.0  0.53754  0.69728  0.99541  1.0000
  H   H26       1.0  0.46245  0.30271  0.00457  1.0000
  H   H27       1.0  0.98472  0.90541  0.91291  1.0000
  H   H28       1.0  0.01528  0.09460  0.08709  1.0000
  H   H29       1.0  0.63896  0.02965  0.66082  1.0000
  H   H30       1.0  0.36104  0.97035  0.33918  1.0000
  H   H31       1.0  0.94908  0.93749  0.53949  1.0000
  H   H32       1.0  0.05093  0.06250  0.46051  1.0000
  H   H33       1.0  0.23870  0.70046  0.18724  1.0000
  H   H34       1.0  0.76131  0.29953  0.81276  1.0000
  H   H35       1.0  0.17988  0.16779  0.65345  1.0000
  H   H36       1.0  0.82012  0.83222  0.34655  1.0000
  H   H37       1.0  0.70534  0.86844  0.12694  1.0000
  H   H38       1.0  0.29465  0.13155  0.87305  1.0000
  H   H39       1.0  0.59851  0.22141  0.64483  1.0000
  H   H40       1.0  0.40150  0.77859  0.35517  1.0000
  H   H41       1.0  0.34970  0.76194  0.06251  1.0000
  H   H42       1.0  0.65029  0.23805  0.93749  1.0000
  H   H43       1.0  0.85396  0.60585  0.92819  1.0000
  H   H44       1.0  0.14604  0.39415  0.07182  1.0000
  H   H45       1.0  0.99194  0.62194  0.11848  1.0000
  H   H46       1.0  0.00806  0.37806  0.88152  1.0000
  H   H47       1.0  0.96361  0.11622  0.70202  1.0000
  H   H48       1.0  0.03639  0.88378  0.29798  1.0000
  H   H49       1.0  0.62555  0.81810  0.57208  1.0000
  H   H50       1.0  0.37445  0.18190  0.42792  1.0000
  H   H51       1.0  0.70371  0.88270  0.71795  1.0000
  H   H52       1.0  0.29629  0.11730  0.28204  1.0000
  C   C1        1.0  0.57988  0.60216  0.58434  1.0000
  C   C2        1.0  0.42012  0.39783  0.41566  1.0000
  C   C3        1.0  0.58861  0.49278  0.59840  1.0000
  C   C4        1.0  0.41139  0.50721  0.40159  1.0000
  C   C5        1.0  0.48856  0.60700  0.48433  1.0000
  C   C6        1.0  0.51144  0.39300  0.51567  1.0000
  C   C7        1.0  0.51181  0.86439  0.82774  1.0000
  C   C8        1.0  0.48819  0.13561  0.17226  1.0000
  C   C9        1.0  0.02267  0.67755  0.88640  1.0000
  C   C10       1.0  0.97733  0.32246  0.11361  1.0000
  C   C11       1.0  0.43169  0.98670  0.66620  1.0000
  C   C12       1.0  0.56831  0.01330  0.33380  1.0000
  C   C13       1.0  0.60492  0.96145  0.90285  1.0000
  C   C14       1.0  0.39508  0.03855  0.09715  1.0000
  C   C15       1.0  0.96518  0.81120  0.73872  1.0000
  C   C16       1.0  0.03482  0.18880  0.26129  1.0000
  C   C17       1.0  0.95717  0.82089  0.63409  1.0000
  C   C18       1.0  0.04283  0.17911  0.36591  1.0000
  C   C19       1.0  0.74919  0.69710  0.76658  1.0000
  C   C20       1.0  0.25081  0.30290  0.23342  1.0000
  C   C21       1.0  0.30213  0.02633  0.66185  1.0000
  C   C22       1.0  0.69787  0.97367  0.33814  1.0000
  C   C23       1.0  0.16348  0.72017  0.92547  1.0000
  C   C24       1.0  0.83651  0.27983  0.07454  1.0000
  C   C25       1.0  0.48577  0.77036  0.86224  1.0000
  C   C26       1.0  0.51423  0.22964  0.13776  1.0000
  C   C27       1.0  0.97895  0.02215  0.81848  1.0000
  C   C28       1.0  0.02105  0.97785  0.18152  1.0000
  C   C29       1.0  0.38672  0.20825  0.64997  1.0000
  C   C30       1.0  0.61328  0.79175  0.35004  1.0000
  C   C31       1.0  0.67328  0.96303  0.01022  1.0000
  C   C32       1.0  0.32671  0.03696  0.98978  1.0000
  C   C33       1.0  0.55579  0.77185  0.96977  1.0000
  C   C34       1.0  0.44421  0.22815  0.03022  1.0000
  C   C35       1.0  0.97815  0.91275  0.83121  1.0000
  C   C36       1.0  0.02185  0.08726  0.16879  1.0000
  C   C37       1.0  0.53776  0.05817  0.65955  1.0000
  C   C38       1.0  0.46224  0.94183  0.34045  1.0000
  C   C39       1.0  0.95737  0.93073  0.62149  1.0000
  C   C40       1.0  0.04263  0.06927  0.37850  1.0000
  C   C41       1.0  0.17920  0.69325  0.10274  1.0000
  C   C42       1.0  0.82080  0.30674  0.89726  1.0000
  C   C43       1.0  0.28027  0.13687  0.65518  1.0000
  C   C44       1.0  0.71974  0.86314  0.34482  1.0000
  C   C45       1.0  0.65031  0.86749  0.04336  1.0000
  C   C46       1.0  0.34969  0.13251  0.95663  1.0000
  C   C47       1.0  0.51465  0.16796  0.65084  1.0000
  C   C48       1.0  0.48536  0.83205  0.34917  1.0000
  C   C49       1.0  0.24083  0.72804  0.03296  1.0000
  C   C50       1.0  0.75917  0.27195  0.96704  1.0000
  C   C51       1.0  0.96219  0.64134  0.95670  1.0000
  C   C52       1.0  0.03781  0.35866  0.04330  1.0000
  C   C53       1.0  0.03996  0.64967  0.06429  1.0000
  C   C54       1.0  0.96004  0.35033  0.93571  1.0000
  C   C55       1.0  0.96656  0.03098  0.71294  1.0000
  C   C56       1.0  0.03344  0.96902  0.28706  1.0000
  C   C57       1.0  0.62524  0.81421  0.65431  1.0000
  C   C58       1.0  0.37476  0.18579  0.34570  1.0000
  I   I1        1.0  0.79591  0.48356  0.39056  1.0000
  I   I2        1.0  0.20409  0.51645  0.60944  1.0000
  I   I3        1.0  0.88411  0.30092  0.61284  1.0000
  I   I4        1.0  0.11588  0.69908  0.38716  1.0000
  N   N1        1.0  0.65618  0.70295  0.66513  1.0000
  N   N2        1.0  0.34382  0.29705  0.33487  1.0000
