data_image0
_chemical_formula_structural       Cu2H16C12Br2N4
_chemical_formula_sum              "Cu2 H16 C12 Br2 N4"
_cell_length_a       6.59988
_cell_length_b       8.51217
_cell_length_c       8.19972
_cell_angle_alpha    69.974
_cell_angle_beta     73.2909
_cell_angle_gamma    70.1005

_space_group_name_H-M_alt    "P 1"
_space_group_IT_number       1

loop_
  _space_group_symop_operation_xyz
  'x, y, z'

loop_
  _atom_site_type_symbol
  _atom_site_label
  _atom_site_symmetry_multiplicity
  _atom_site_fract_x
  _atom_site_fract_y
  _atom_site_fract_z
  _atom_site_occupancy
  Cu  Cu1       1.0  0.66383  0.34137  0.64572  1.0000
  Cu  Cu2       1.0  0.33617  0.65865  0.35430  1.0000
  H   H1        1.0  0.07603  0.28131  0.39637  1.0000
  H   H2        1.0  0.92396  0.71871  0.60362  1.0000
  H   H3        1.0  0.30891  0.60840  0.75518  1.0000
  H   H4        1.0  0.69111  0.39160  0.24483  1.0000
  H   H5        1.0  0.86630  0.12598  0.93099  1.0000
  H   H6        1.0  0.13372  0.87404  0.06896  1.0000
  H   H7        1.0  0.92212  0.15012  0.12155  1.0000
  H   H8        1.0  0.07786  0.84980  0.87846  1.0000
  H   H9        1.0  0.02841  0.26424  0.90230  1.0000
  H   H10       1.0  0.97161  0.73574  0.09777  1.0000
  H   H11       1.0  0.60452  0.01744  0.86916  1.0000
  H   H12       1.0  0.39551  0.98250  0.13086  1.0000
  H   H13       1.0  0.62030  0.82234  0.82196  1.0000
  H   H14       1.0  0.37962  0.17770  0.17794  1.0000
  H   H15       1.0  0.46759  0.03031  0.70813  1.0000
  H   H16       1.0  0.53239  0.96979  0.29187  1.0000
  C   C1        1.0  0.81651  0.98160  0.62621  1.0000
  C   C2        1.0  0.18343  0.01840  0.37380  1.0000
  C   C3        1.0  0.04229  0.15478  0.44196  1.0000
  C   C4        1.0  0.95771  0.84524  0.55800  1.0000
  C   C5        1.0  0.39361  0.56055  0.86607  1.0000
  C   C6        1.0  0.60642  0.43944  0.13395  1.0000
  C   C7        1.0  0.68446  0.36454  0.99332  1.0000
  C   C8        1.0  0.31557  0.63543  0.00671  1.0000
  C   C9        1.0  0.88633  0.21744  0.98852  1.0000
  C   C10       1.0  0.11368  0.78254  0.01152  1.0000
  C   C11       1.0  0.61682  0.95963  0.76436  1.0000
  C   C12       1.0  0.38314  0.04040  0.23561  1.0000
  Br  Br1       1.0  0.72550  0.61371  0.40765  1.0000
  Br  Br2       1.0  0.27454  0.38627  0.59234  1.0000
  N   N1        1.0  0.85932  0.13985  0.56727  1.0000
  N   N2        1.0  0.14067  0.86018  0.43270  1.0000
  N   N3        1.0  0.57472  0.42625  0.85743  1.0000
  N   N4        1.0  0.42531  0.57373  0.14261  1.0000
