data_image0
_chemical_formula_structural       V8H32C48N8O20
_chemical_formula_sum              "V8 H32 C48 N8 O20"
_cell_length_a       6.48852
_cell_length_b       9.7565
_cell_length_c       19.8146
_cell_angle_alpha    100.148
_cell_angle_beta     89.9843
_cell_angle_gamma    89.9503

_space_group_name_H-M_alt    "P 1"
_space_group_IT_number       1

loop_
  _space_group_symop_operation_xyz
  'x, y, z'

loop_
  _atom_site_type_symbol
  _atom_site_label
  _atom_site_symmetry_multiplicity
  _atom_site_fract_x
  _atom_site_fract_y
  _atom_site_fract_z
  _atom_site_occupancy
  V   V1        1.0  0.24959  0.56147  0.84365  1.0000
  V   V2        1.0  0.75041  0.43853  0.15635  1.0000
  V   V3        1.0  0.75027  0.45609  0.62950  1.0000
  V   V4        1.0  0.24973  0.54391  0.37050  1.0000
  V   V5        1.0  0.74967  0.63094  0.80214  1.0000
  V   V6        1.0  0.25033  0.36906  0.19786  1.0000
  V   V7        1.0  0.25011  0.39610  0.67563  1.0000
  V   V8        1.0  0.74989  0.60390  0.32437  1.0000
  H   H1        1.0  0.24940  0.47555  0.98814  1.0000
  H   H2        1.0  0.75060  0.52445  0.01186  1.0000
  H   H3        1.0  0.24941  0.58684  0.11176  1.0000
  H   H4        1.0  0.75059  0.41316  0.88824  1.0000
  H   H5        1.0  0.24987  0.84931  0.14218  1.0000
  H   H6        1.0  0.75013  0.15069  0.85782  1.0000
  H   H7        1.0  0.25063  0.20650  0.87483  1.0000
  H   H8        1.0  0.74937  0.79350  0.12517  1.0000
  H   H9        1.0  0.25029  0.06617  0.75777  1.0000
  H   H10       1.0  0.74972  0.93383  0.24223  1.0000
  H   H11       1.0  0.24954  0.80216  0.74387  1.0000
  H   H12       1.0  0.75046  0.19784  0.25613  1.0000
  H   H13       1.0  0.25021  0.08030  0.10115  1.0000
  H   H14       1.0  0.74979  0.91970  0.89885  1.0000
  H   H15       1.0  0.25056  0.20995  0.00440  1.0000
  H   H16       1.0  0.74944  0.79005  0.99560  1.0000
  H   H17       1.0  0.75074  0.26344  0.75307  1.0000
  H   H18       1.0  0.24926  0.73656  0.24693  1.0000
  H   H19       1.0  0.75084  0.00581  0.76171  1.0000
  H   H20       1.0  0.24916  0.99419  0.23829  1.0000
  H   H21       1.0  0.75051  0.83002  0.65530  1.0000
  H   H22       1.0  0.24948  0.16999  0.34470  1.0000
  H   H23       1.0  0.74918  0.06963  0.35298  1.0000
  H   H24       1.0  0.25082  0.93037  0.64702  1.0000
  H   H25       1.0  0.74887  0.33079  0.35971  1.0000
  H   H26       1.0  0.25112  0.66921  0.64029  1.0000
  H   H27       1.0  0.74956  0.48428  0.47413  1.0000
  H   H28       1.0  0.25044  0.51572  0.52587  1.0000
  H   H29       1.0  0.75032  0.77918  0.52555  1.0000
  H   H30       1.0  0.24968  0.22083  0.47445  1.0000
  H   H31       1.0  0.74987  0.86912  0.41491  1.0000
  H   H32       1.0  0.25013  0.13088  0.58509  1.0000
  C   C1        1.0  0.24952  0.58844  0.00357  1.0000
  C   C2        1.0  0.75048  0.41155  0.99643  1.0000
  C   C3        1.0  0.24957  0.65244  0.07276  1.0000
  C   C4        1.0  0.75044  0.34756  0.92724  1.0000
  C   C5        1.0  0.24979  0.79620  0.08900  1.0000
  C   C6        1.0  0.75021  0.20379  0.91100  1.0000
  C   C7        1.0  0.24992  0.87592  0.03609  1.0000
  C   C8        1.0  0.75008  0.12408  0.96391  1.0000
  C   C9        1.0  0.24986  0.80238  0.96765  1.0000
  C   C10       1.0  0.75013  0.19762  0.03235  1.0000
  C   C11       1.0  0.24992  0.87731  0.91159  1.0000
  C   C12       1.0  0.75007  0.12269  0.08841  1.0000
  C   C13       1.0  0.25022  0.02486  0.92493  1.0000
  C   C14       1.0  0.74978  0.97513  0.07507  1.0000
  C   C15       1.0  0.25036  0.09289  0.86765  1.0000
  C   C16       1.0  0.74964  0.90711  0.13235  1.0000
  C   C17       1.0  0.25019  0.01433  0.80230  1.0000
  C   C18       1.0  0.74982  0.98567  0.19770  1.0000
  C   C19       1.0  0.24979  0.86809  0.79435  1.0000
  C   C20       1.0  0.75021  0.13191  0.20565  1.0000
  C   C21       1.0  0.25016  0.02504  0.04819  1.0000
  C   C22       1.0  0.74985  0.97495  0.95181  1.0000
  C   C23       1.0  0.25035  0.09631  0.99466  1.0000
  C   C24       1.0  0.74965  0.90369  0.00535  1.0000
  C   C25       1.0  0.75056  0.18211  0.70754  1.0000
  C   C26       1.0  0.24943  0.81789  0.29246  1.0000
  C   C27       1.0  0.75063  0.03993  0.71230  1.0000
  C   C28       1.0  0.24936  0.96007  0.28770  1.0000
  C   C29       1.0  0.75044  0.94096  0.65304  1.0000
  C   C30       1.0  0.24955  0.05904  0.34696  1.0000
  C   C31       1.0  0.75019  0.98474  0.58880  1.0000
  C   C32       1.0  0.24981  0.01526  0.41120  1.0000
  C   C33       1.0  0.75011  0.13037  0.58927  1.0000
  C   C34       1.0  0.24988  0.86963  0.41073  1.0000
  C   C35       1.0  0.74988  0.18143  0.52580  1.0000
  C   C36       1.0  0.25012  0.81857  0.47420  1.0000
  C   C37       1.0  0.74971  0.08588  0.46307  1.0000
  C   C38       1.0  0.25028  0.91412  0.53693  1.0000
  C   C39       1.0  0.74935  0.14118  0.40189  1.0000
  C   C40       1.0  0.25065  0.85883  0.59811  1.0000
  C   C41       1.0  0.74925  0.28370  0.40548  1.0000
  C   C42       1.0  0.25075  0.71630  0.59452  1.0000
  C   C43       1.0  0.74958  0.37150  0.46981  1.0000
  C   C44       1.0  0.25042  0.62850  0.53019  1.0000
  C   C45       1.0  0.75014  0.89068  0.52460  1.0000
  C   C46       1.0  0.24987  0.10933  0.47540  1.0000
  C   C47       1.0  0.74990  0.93970  0.46411  1.0000
  C   C48       1.0  0.25010  0.06030  0.53589  1.0000
  N   N1        1.0  0.24967  0.66127  0.95255  1.0000
  N   N2        1.0  0.75033  0.33872  0.04745  1.0000
  N   N3        1.0  0.24970  0.80157  0.84745  1.0000
  N   N4        1.0  0.75030  0.19843  0.15255  1.0000
  N   N5        1.0  0.75030  0.22595  0.64774  1.0000
  N   N6        1.0  0.24970  0.77405  0.35225  1.0000
  N   N7        1.0  0.74989  0.32155  0.52828  1.0000
  N   N8        1.0  0.25011  0.67846  0.47172  1.0000
  O   O1        1.0  0.53362  0.59642  0.84924  1.0000
  O   O2        1.0  0.46638  0.40358  0.15076  1.0000
  O   O3        1.0  0.24962  0.52746  0.75046  1.0000
  O   O4        1.0  0.75038  0.47254  0.24954  1.0000
  O   O5        1.0  0.75020  0.51729  0.72196  1.0000
  O   O6        1.0  0.24979  0.48271  0.27804  1.0000
  O   O7        1.0  0.46660  0.41992  0.62660  1.0000
  O   O8        1.0  0.53340  0.58008  0.37340  1.0000
  O   O9        1.0  0.24982  0.41262  0.86865  1.0000
  O   O10       1.0  0.75017  0.58738  0.13135  1.0000
  O   O11       1.0  0.74937  0.79282  0.79152  1.0000
  O   O12       1.0  0.25063  0.20718  0.20848  1.0000
  O   O13       1.0  0.96566  0.59663  0.84937  1.0000
  O   O14       1.0  0.03434  0.40337  0.15063  1.0000
  O   O15       1.0  0.25046  0.24200  0.69664  1.0000
  O   O16       1.0  0.74954  0.75800  0.30336  1.0000
  O   O17       1.0  0.75009  0.59230  0.59341  1.0000
  O   O18       1.0  0.24991  0.40770  0.40659  1.0000
  O   O19       1.0  0.03380  0.41965  0.62644  1.0000
  O   O20       1.0  0.96620  0.58035  0.37356  1.0000
