data_image0
_chemical_formula_structural       Cd4H8C32Cl8O16
_chemical_formula_sum              "Cd4 H8 C32 Cl8 O16"
_cell_length_a       7.10402
_cell_length_b       7.85514
_cell_length_c       16.7757
_cell_angle_alpha    96.7088
_cell_angle_beta     90.0002
_cell_angle_gamma    90.0001

_space_group_name_H-M_alt    "P 1"
_space_group_IT_number       1

loop_
  _space_group_symop_operation_xyz
  'x, y, z'

loop_
  _atom_site_type_symbol
  _atom_site_label
  _atom_site_symmetry_multiplicity
  _atom_site_fract_x
  _atom_site_fract_y
  _atom_site_fract_z
  _atom_site_occupancy
  Cd  Cd1       1.0  0.88466  0.79901  0.43837  1.0000
  Cd  Cd2       1.0  0.38466  0.70098  0.56163  1.0000
  Cd  Cd3       1.0  0.11534  0.20099  0.56163  1.0000
  Cd  Cd4       1.0  0.61534  0.29902  0.43837  1.0000
  H   H1        1.0  0.52251  0.55638  0.28110  1.0000
  H   H2        1.0  0.02251  0.94361  0.71890  1.0000
  H   H3        1.0  0.47749  0.44362  0.71890  1.0000
  H   H4        1.0  0.97749  0.05639  0.28110  1.0000
  H   H5        1.0  0.89097  0.35750  0.18855  1.0000
  H   H6        1.0  0.39097  0.14250  0.81145  1.0000
  H   H7        1.0  0.10903  0.64250  0.81145  1.0000
  H   H8        1.0  0.60903  0.85750  0.18855  1.0000
  C   C1        1.0  0.89487  0.42349  0.34440  1.0000
  C   C2        1.0  0.39487  0.07651  0.65560  1.0000
  C   C3        1.0  0.10513  0.57651  0.65560  1.0000
  C   C4        1.0  0.60513  0.92349  0.34440  1.0000
  C   C5        1.0  0.05458  0.46123  0.29032  1.0000
  C   C6        1.0  0.55457  0.03877  0.70968  1.0000
  C   C7        1.0  0.94543  0.53877  0.70968  1.0000
  C   C8        1.0  0.44542  0.96123  0.29032  1.0000
  C   C9        1.0  0.17362  0.40852  0.15286  1.0000
  C   C10       1.0  0.67362  0.09148  0.84714  1.0000
  C   C11       1.0  0.82638  0.59149  0.84714  1.0000
  C   C12       1.0  0.32638  0.90852  0.15286  1.0000
  C   C13       1.0  0.38263  0.51453  0.26091  1.0000
  C   C14       1.0  0.88263  0.98546  0.73909  1.0000
  C   C15       1.0  0.61737  0.48547  0.73909  1.0000
  C   C16       1.0  0.11737  0.01454  0.26091  1.0000
  C   C17       1.0  0.28978  0.59912  0.39932  1.0000
  C   C18       1.0  0.78978  0.90088  0.60068  1.0000
  C   C19       1.0  0.71022  0.40088  0.60068  1.0000
  C   C20       1.0  0.21021  0.09912  0.39932  1.0000
  C   C21       1.0  0.02834  0.40666  0.20854  1.0000
  C   C22       1.0  0.52833  0.09333  0.79146  1.0000
  C   C23       1.0  0.97166  0.59334  0.79146  1.0000
  C   C24       1.0  0.47166  0.90666  0.20854  1.0000
  C   C25       1.0  0.23426  0.52355  0.31641  1.0000
  C   C26       1.0  0.73427  0.97644  0.68359  1.0000
  C   C27       1.0  0.76574  0.47645  0.68359  1.0000
  C   C28       1.0  0.26574  0.02356  0.31641  1.0000
  C   C29       1.0  0.35509  0.45719  0.18009  1.0000
  C   C30       1.0  0.85509  0.04280  0.81991  1.0000
  C   C31       1.0  0.64491  0.54281  0.81991  1.0000
  C   C32       1.0  0.14491  0.95719  0.18009  1.0000
  Cl  Cl1       1.0  0.13024  0.34462  0.05329  1.0000
  Cl  Cl2       1.0  0.63024  0.15538  0.94671  1.0000
  Cl  Cl3       1.0  0.86976  0.65539  0.94671  1.0000
  Cl  Cl4       1.0  0.36976  0.84461  0.05329  1.0000
  Cl  Cl5       1.0  0.54386  0.44660  0.11567  1.0000
  Cl  Cl6       1.0  0.04386  0.05339  0.88434  1.0000
  Cl  Cl7       1.0  0.45614  0.55340  0.88433  1.0000
  Cl  Cl8       1.0  0.95614  0.94661  0.11566  1.0000
  O   O1        1.0  0.87414  0.50369  0.41490  1.0000
  O   O2        1.0  0.37414  0.99631  0.58510  1.0000
  O   O3        1.0  0.12585  0.49631  0.58510  1.0000
  O   O4        1.0  0.62585  0.00369  0.41490  1.0000
  O   O5        1.0  0.44865  0.55807  0.42674  1.0000
  O   O6        1.0  0.94865  0.94192  0.57326  1.0000
  O   O7        1.0  0.55135  0.44193  0.57326  1.0000
  O   O8        1.0  0.05135  0.05807  0.42674  1.0000
  O   O9        1.0  0.19142  0.71297  0.44099  1.0000
  O   O10       1.0  0.69143  0.78702  0.55901  1.0000
  O   O11       1.0  0.80857  0.28703  0.55901  1.0000
  O   O12       1.0  0.30857  0.21297  0.44099  1.0000
  O   O13       1.0  0.78448  0.30134  0.31891  1.0000
  O   O14       1.0  0.28448  0.19866  0.68109  1.0000
  O   O15       1.0  0.21552  0.69866  0.68109  1.0000
  O   O16       1.0  0.71552  0.80134  0.31891  1.0000
