data_image0
_chemical_formula_structural       Zn4H8C32Cl8O16
_chemical_formula_sum              "Zn4 H8 C32 Cl8 O16"
_cell_length_a       7.17118
_cell_length_b       7.50866
_cell_length_c       16.9692
_cell_angle_alpha    98.7219
_cell_angle_beta     90.0004
_cell_angle_gamma    89.9996

_space_group_name_H-M_alt    "P 1"
_space_group_IT_number       1

loop_
  _space_group_symop_operation_xyz
  'x, y, z'

loop_
  _atom_site_type_symbol
  _atom_site_label
  _atom_site_symmetry_multiplicity
  _atom_site_fract_x
  _atom_site_fract_y
  _atom_site_fract_z
  _atom_site_occupancy
  Zn  Zn1       1.0  0.72714  0.35097  0.43385  1.0000
  Zn  Zn2       1.0  0.22714  0.14902  0.56615  1.0000
  Zn  Zn3       1.0  0.27286  0.64902  0.56615  1.0000
  Zn  Zn4       1.0  0.77285  0.85098  0.43385  1.0000
  H   H1        1.0  0.98700  0.45440  0.19111  1.0000
  H   H2        1.0  0.48700  0.04559  0.80889  1.0000
  H   H3        1.0  0.01300  0.54560  0.80889  1.0000
  H   H4        1.0  0.51299  0.95441  0.19112  1.0000
  H   H5        1.0  0.64170  0.54012  0.28348  1.0000
  H   H6        1.0  0.14170  0.95988  0.71652  1.0000
  H   H7        1.0  0.35830  0.45988  0.71652  1.0000
  H   H8        1.0  0.85830  0.04013  0.28348  1.0000
  C   C1        1.0  0.16844  0.52502  0.29297  1.0000
  C   C2        1.0  0.66845  0.97498  0.70703  1.0000
  C   C3        1.0  0.83156  0.47498  0.70703  1.0000
  C   C4        1.0  0.33155  0.02502  0.29297  1.0000
  C   C5        1.0  0.35423  0.54643  0.31918  1.0000
  C   C6        1.0  0.85423  0.95356  0.68082  1.0000
  C   C7        1.0  0.64577  0.45356  0.68082  1.0000
  C   C8        1.0  0.14576  0.04643  0.31918  1.0000
  C   C9        1.0  0.49840  0.51919  0.26321  1.0000
  C   C10       1.0  0.99840  0.98082  0.73679  1.0000
  C   C11       1.0  0.50160  0.48082  0.73678  1.0000
  C   C12       1.0  0.00160  0.01919  0.26321  1.0000
  C   C13       1.0  0.46112  0.46633  0.18270  1.0000
  C   C14       1.0  0.96112  0.03367  0.81730  1.0000
  C   C15       1.0  0.53888  0.53367  0.81730  1.0000
  C   C16       1.0  0.03888  0.96634  0.18270  1.0000
  C   C17       1.0  0.27522  0.44039  0.15686  1.0000
  C   C18       1.0  0.77522  0.05961  0.84314  1.0000
  C   C19       1.0  0.72478  0.55962  0.84314  1.0000
  C   C20       1.0  0.22478  0.94039  0.15686  1.0000
  C   C21       1.0  0.13035  0.47261  0.21217  1.0000
  C   C22       1.0  0.63035  0.02739  0.78783  1.0000
  C   C23       1.0  0.86965  0.52740  0.78783  1.0000
  C   C24       1.0  0.36964  0.97262  0.21217  1.0000
  C   C25       1.0  0.40077  0.59433  0.40524  1.0000
  C   C26       1.0  0.90077  0.90566  0.59476  1.0000
  C   C27       1.0  0.59924  0.40566  0.59476  1.0000
  C   C28       1.0  0.09923  0.09434  0.40524  1.0000
  C   C29       1.0  0.00454  0.55379  0.34884  1.0000
  C   C30       1.0  0.50454  0.94621  0.65116  1.0000
  C   C31       1.0  0.99546  0.44621  0.65116  1.0000
  C   C32       1.0  0.49546  0.05379  0.34885  1.0000
  Cl  Cl1       1.0  0.22215  0.36816  0.05868  1.0000
  Cl  Cl2       1.0  0.72215  0.13185  0.94132  1.0000
  Cl  Cl3       1.0  0.77785  0.63185  0.94132  1.0000
  Cl  Cl4       1.0  0.27785  0.86817  0.05868  1.0000
  Cl  Cl5       1.0  0.64300  0.43073  0.11590  1.0000
  Cl  Cl6       1.0  0.14300  0.06927  0.88410  1.0000
  Cl  Cl7       1.0  0.35701  0.56927  0.88410  1.0000
  Cl  Cl8       1.0  0.85700  0.93075  0.11590  1.0000
  O   O1        1.0  0.56837  0.58177  0.42960  1.0000
  O   O2        1.0  0.06837  0.91822  0.57040  1.0000
  O   O3        1.0  0.43164  0.41822  0.57040  1.0000
  O   O4        1.0  0.93162  0.08178  0.42960  1.0000
  O   O5        1.0  0.26475  0.64757  0.45162  1.0000
  O   O6        1.0  0.76476  0.85242  0.54838  1.0000
  O   O7        1.0  0.73525  0.35242  0.54838  1.0000
  O   O8        1.0  0.23525  0.14758  0.45163  1.0000
  O   O9        1.0  0.91987  0.70310  0.35114  1.0000
  O   O10       1.0  0.41988  0.79690  0.64886  1.0000
  O   O11       1.0  0.08012  0.29690  0.64886  1.0000
  O   O12       1.0  0.58011  0.20309  0.35114  1.0000
  O   O13       1.0  0.95765  0.42240  0.38338  1.0000
  O   O14       1.0  0.45765  0.07760  0.61662  1.0000
  O   O15       1.0  0.04235  0.57760  0.61662  1.0000
  O   O16       1.0  0.54235  0.92239  0.38339  1.0000
