data_image0
_chemical_formula_structural       Cd2H48C48N8O12
_chemical_formula_sum              "Cd2 H48 C48 N8 O12"
_cell_length_a       10.1278
_cell_length_b       10.0971
_cell_length_c       13.6567
_cell_angle_alpha    104.785
_cell_angle_beta     109.505
_cell_angle_gamma    94.7104

_space_group_name_H-M_alt    "P 1"
_space_group_IT_number       1

loop_
  _space_group_symop_operation_xyz
  'x, y, z'

loop_
  _atom_site_type_symbol
  _atom_site_label
  _atom_site_symmetry_multiplicity
  _atom_site_fract_x
  _atom_site_fract_y
  _atom_site_fract_z
  _atom_site_occupancy
  Cd  Cd1       1.0  0.85096  0.58217  0.39889  1.0000
  Cd  Cd2       1.0  0.14904  0.41783  0.60111  1.0000
  H   H1        1.0  0.23475  0.87651  0.38584  1.0000
  H   H2        1.0  0.76525  0.12349  0.61416  1.0000
  H   H3        1.0  0.16048  0.00372  0.45968  1.0000
  H   H4        1.0  0.83952  0.99628  0.54032  1.0000
  H   H5        1.0  0.08892  0.94797  0.31563  1.0000
  H   H6        1.0  0.91108  0.05203  0.68436  1.0000
  H   H7        1.0  0.73405  0.09271  0.33220  1.0000
  H   H8        1.0  0.26595  0.90729  0.66780  1.0000
  H   H9        1.0  0.91902  0.09113  0.40177  1.0000
  H   H10       1.0  0.08098  0.90887  0.59823  1.0000
  H   H11       1.0  0.85434  0.09184  0.26479  1.0000
  H   H12       1.0  0.14567  0.90817  0.73521  1.0000
  H   H13       1.0  0.19403  0.59574  0.36416  1.0000
  H   H14       1.0  0.80597  0.40427  0.63584  1.0000
  H   H15       1.0  0.52063  0.50099  0.31015  1.0000
  H   H16       1.0  0.47937  0.49902  0.68985  1.0000
  H   H17       1.0  0.79862  0.77689  0.60206  1.0000
  H   H18       1.0  0.20138  0.22311  0.39794  1.0000
  H   H19       1.0  0.59437  0.84386  0.66080  1.0000
  H   H20       1.0  0.40563  0.15615  0.33920  1.0000
  H   H21       1.0  0.34583  0.72844  0.53641  1.0000
  H   H22       1.0  0.65417  0.27156  0.46359  1.0000
  H   H23       1.0  0.03366  0.28832  0.16672  1.0000
  H   H24       1.0  0.96634  0.71168  0.83329  1.0000
  H   H25       1.0  0.01195  0.44940  0.24527  1.0000
  H   H26       1.0  0.98806  0.55060  0.75474  1.0000
  H   H27       1.0  0.97285  0.24631  0.97755  1.0000
  H   H28       1.0  0.02715  0.75369  0.02245  1.0000
  H   H29       1.0  0.07878  0.67009  0.18463  1.0000
  H   H30       1.0  0.92122  0.32992  0.81538  1.0000
  H   H31       1.0  0.70177  0.69016  0.92051  1.0000
  H   H32       1.0  0.29823  0.30983  0.07949  1.0000
  H   H33       1.0  0.75208  0.74111  0.21089  1.0000
  H   H34       1.0  0.24792  0.25889  0.78911  1.0000
  H   H35       1.0  0.69467  0.31885  0.17751  1.0000
  H   H36       1.0  0.30533  0.68115  0.82249  1.0000
  H   H37       1.0  0.62967  0.25654  0.97397  1.0000
  H   H38       1.0  0.37034  0.74345  0.02603  1.0000
  H   H39       1.0  0.62874  0.44888  0.88925  1.0000
  H   H40       1.0  0.37126  0.55112  0.11075  1.0000
  H   H41       1.0  0.63285  0.89561  0.88076  1.0000
  H   H42       1.0  0.36714  0.10439  0.11924  1.0000
  H   H43       1.0  0.65867  0.04048  0.99506  1.0000
  H   H44       1.0  0.34132  0.95951  0.00494  1.0000
  H   H45       1.0  0.81597  0.94563  0.81464  1.0000
  H   H46       1.0  0.18402  0.05438  0.18536  1.0000
  H   H47       1.0  0.92918  0.00500  0.15755  1.0000
  H   H48       1.0  0.07081  0.99501  0.84246  1.0000
  C   C1        1.0  0.02872  0.80177  0.38903  1.0000
  C   C2        1.0  0.97128  0.19823  0.61097  1.0000
  C   C3        1.0  0.13652  0.91334  0.38759  1.0000
  C   C4        1.0  0.86348  0.08666  0.61241  1.0000
  C   C5        1.0  0.87583  0.28925  0.37631  1.0000
  C   C6        1.0  0.12417  0.71075  0.62368  1.0000
  C   C7        1.0  0.84381  0.13245  0.34393  1.0000
  C   C8        1.0  0.15620  0.86755  0.65607  1.0000
  C   C9        1.0  0.41284  0.60851  0.41161  1.0000
  C   C10       1.0  0.58716  0.39149  0.58839  1.0000
  C   C11       1.0  0.53221  0.57807  0.38573  1.0000
  C   C12       1.0  0.46779  0.42194  0.61427  1.0000
  C   C13       1.0  0.68739  0.73400  0.55026  1.0000
  C   C14       1.0  0.31261  0.26600  0.44974  1.0000
  C   C15       1.0  0.57435  0.76973  0.58160  1.0000
  C   C16       1.0  0.42565  0.23028  0.41840  1.0000
  C   C17       1.0  0.43585  0.70690  0.51197  1.0000
  C   C18       1.0  0.56415  0.29311  0.48803  1.0000
  C   C19       1.0  0.22620  0.43657  0.25181  1.0000
  C   C20       1.0  0.77380  0.56344  0.74820  1.0000
  C   C21       1.0  0.06597  0.40187  0.19150  1.0000
  C   C22       1.0  0.93403  0.59814  0.80851  1.0000
  C   C23       1.0  0.02943  0.45224  0.09220  1.0000
  C   C24       1.0  0.97057  0.54776  0.90781  1.0000
  C   C25       1.0  0.98476  0.35778  0.98759  1.0000
  C   C26       1.0  0.01524  0.64222  0.01242  1.0000
  C   C27       1.0  0.04453  0.59520  0.10356  1.0000
  C   C28       1.0  0.95547  0.40480  0.89645  1.0000
  C   C29       1.0  0.68840  0.61015  0.04297  1.0000
  C   C30       1.0  0.31160  0.38984  0.95702  1.0000
  C   C31       1.0  0.72409  0.63548  0.15566  1.0000
  C   C32       1.0  0.27591  0.36452  0.84435  1.0000
  C   C33       1.0  0.69286  0.39840  0.13630  1.0000
  C   C34       1.0  0.30714  0.60159  0.86370  1.0000
  C   C35       1.0  0.65795  0.36500  0.02421  1.0000
  C   C36       1.0  0.34205  0.63499  0.97579  1.0000
  C   C37       1.0  0.65626  0.47160  0.97685  1.0000
  C   C38       1.0  0.34374  0.52840  0.02315  1.0000
  C   C39       1.0  0.67003  0.84993  0.03327  1.0000
  C   C40       1.0  0.32997  0.15007  0.96673  1.0000
  C   C41       1.0  0.69678  0.94423  0.96782  1.0000
  C   C42       1.0  0.30321  0.05576  0.03217  1.0000
  C   C43       1.0  0.85303  0.97350  0.98421  1.0000
  C   C44       1.0  0.14696  0.02649  0.01579  1.0000
  C   C45       1.0  0.89633  0.96996  0.89646  1.0000
  C   C46       1.0  0.10366  0.03004  0.10354  1.0000
  C   C47       1.0  0.95952  0.00358  0.08787  1.0000
  C   C48       1.0  0.04047  0.99642  0.91213  1.0000
  N   N1        1.0  0.66507  0.64061  0.45400  1.0000
  N   N2        1.0  0.33493  0.35939  0.54600  1.0000
  N   N3        1.0  0.27220  0.54744  0.34333  1.0000
  N   N4        1.0  0.72780  0.45256  0.65667  1.0000
  N   N5        1.0  0.72712  0.53151  0.20073  1.0000
  N   N6        1.0  0.27288  0.46849  0.79927  1.0000
  N   N7        1.0  0.68996  0.71690  0.99516  1.0000
  N   N8        1.0  0.31004  0.28310  0.00484  1.0000
  O   O1        1.0  0.91356  0.83071  0.39769  1.0000
  O   O2        1.0  0.08644  0.16929  0.60231  1.0000
  O   O3        1.0  0.05820  0.67829  0.38243  1.0000
  O   O4        1.0  0.94180  0.32171  0.61757  1.0000
  O   O5        1.0  0.00421  0.35329  0.41066  1.0000
  O   O6        1.0  0.99580  0.64670  0.58934  1.0000
  O   O7        1.0  0.76946  0.35223  0.36311  1.0000
  O   O8        1.0  0.23055  0.64778  0.63689  1.0000
  O   O9        1.0  0.30794  0.36978  0.21668  1.0000
  O   O10       1.0  0.69206  0.63022  0.78332  1.0000
  O   O11       1.0  0.63762  0.89269  0.11399  1.0000
  O   O12       1.0  0.36237  0.10731  0.88601  1.0000
