data_image0
_chemical_formula_structural       Zn2Cu4H24C24N16
_chemical_formula_sum              "Zn2 Cu4 H24 C24 N16"
_cell_length_a       6.06137
_cell_length_b       10.9864
_cell_length_c       10.9866
_cell_angle_alpha    90.0001
_cell_angle_beta     90
_cell_angle_gamma    90.0001

_space_group_name_H-M_alt    "P 1"
_space_group_IT_number       1

loop_
  _space_group_symop_operation_xyz
  'x, y, z'

loop_
  _atom_site_type_symbol
  _atom_site_label
  _atom_site_symmetry_multiplicity
  _atom_site_fract_x
  _atom_site_fract_y
  _atom_site_fract_z
  _atom_site_occupancy
  Zn  Zn1       1.0  0.50001  0.00000  1.00000  1.0000
  Zn  Zn2       1.0  0.99999  0.50000  0.50000  1.0000
  Cu  Cu1       1.0  0.14988  0.50000  0.00000  1.0000
  Cu  Cu2       1.0  0.85010  0.00000  0.50000  1.0000
  Cu  Cu3       1.0  0.35013  0.00000  0.50000  1.0000
  Cu  Cu4       1.0  0.64988  0.50000  0.00000  1.0000
  H   H1        1.0  0.42040  0.72252  0.09979  1.0000
  H   H2        1.0  0.42039  0.27749  0.90021  1.0000
  H   H3        1.0  0.57961  0.09979  0.27749  1.0000
  H   H4        1.0  0.57960  0.90021  0.72251  1.0000
  H   H5        1.0  0.07962  0.77750  0.59979  1.0000
  H   H6        1.0  0.07962  0.22251  0.40021  1.0000
  H   H7        1.0  0.92038  0.40019  0.77749  1.0000
  H   H8        1.0  0.92038  0.59980  0.22251  1.0000
  H   H9        1.0  0.11937  0.92296  0.81806  1.0000
  H   H10       1.0  0.11937  0.07704  0.18193  1.0000
  H   H11       1.0  0.88064  0.81806  0.07704  1.0000
  H   H12       1.0  0.88064  0.18194  0.92296  1.0000
  H   H13       1.0  0.38061  0.57703  0.31807  1.0000
  H   H14       1.0  0.38061  0.42297  0.68193  1.0000
  H   H15       1.0  0.61938  0.68193  0.57704  1.0000
  H   H16       1.0  0.61938  0.31807  0.42297  1.0000
  H   H17       1.0  0.93537  0.69245  0.82497  1.0000
  H   H18       1.0  0.93537  0.30755  0.17503  1.0000
  H   H19       1.0  0.06464  0.82497  0.30755  1.0000
  H   H20       1.0  0.06464  0.17503  0.69245  1.0000
  H   H21       1.0  0.56463  0.80754  0.32497  1.0000
  H   H22       1.0  0.56463  0.19246  0.67503  1.0000
  H   H23       1.0  0.43537  0.67502  0.80755  1.0000
  H   H24       1.0  0.43537  0.32497  0.19246  1.0000
  C   C1        1.0  0.31379  0.74512  0.02373  1.0000
  C   C2        1.0  0.31379  0.25488  0.97627  1.0000
  C   C3        1.0  0.68621  0.02373  0.25488  1.0000
  C   C4        1.0  0.68621  0.97627  0.74512  1.0000
  C   C5        1.0  0.18622  0.75489  0.52374  1.0000
  C   C6        1.0  0.18622  0.24511  0.47626  1.0000
  C   C7        1.0  0.81379  0.47626  0.75489  1.0000
  C   C8        1.0  0.81378  0.52374  0.24511  1.0000
  C   C9        1.0  0.15612  0.84634  0.87690  1.0000
  C   C10       1.0  0.15612  0.15367  0.12310  1.0000
  C   C11       1.0  0.84389  0.87690  0.15367  1.0000
  C   C12       1.0  0.84389  0.12310  0.84633  1.0000
  C   C13       1.0  0.34387  0.65366  0.37690  1.0000
  C   C14       1.0  0.34387  0.34634  0.62310  1.0000
  C   C15       1.0  0.65613  0.62309  0.65367  1.0000
  C   C16       1.0  0.65612  0.37690  0.34634  1.0000
  C   C17       1.0  0.06402  0.73183  0.88077  1.0000
  C   C18       1.0  0.06402  0.26817  0.11923  1.0000
  C   C19       1.0  0.93598  0.88077  0.26817  1.0000
  C   C20       1.0  0.93598  0.11923  0.73183  1.0000
  C   C21       1.0  0.43597  0.76816  0.38077  1.0000
  C   C22       1.0  0.43597  0.23184  0.61923  1.0000
  C   C23       1.0  0.56402  0.61922  0.76817  1.0000
  C   C24       1.0  0.56402  0.38077  0.23184  1.0000
  N   N1        1.0  0.31364  0.85391  0.96739  1.0000
  N   N2        1.0  0.31364  0.14609  0.03261  1.0000
  N   N3        1.0  0.68637  0.96739  0.14609  1.0000
  N   N4        1.0  0.68637  0.03261  0.85391  1.0000
  N   N5        1.0  0.18636  0.64609  0.46740  1.0000
  N   N6        1.0  0.18636  0.35391  0.53260  1.0000
  N   N7        1.0  0.81363  0.53259  0.64610  1.0000
  N   N8        1.0  0.81363  0.46740  0.35391  1.0000
  N   N9        1.0  0.16488  0.66747  0.97416  1.0000
  N   N10       1.0  0.16488  0.33253  0.02584  1.0000
  N   N11       1.0  0.83512  0.97416  0.33253  1.0000
  N   N12       1.0  0.83511  0.02584  0.66747  1.0000
  N   N13       1.0  0.33512  0.83253  0.47416  1.0000
  N   N14       1.0  0.33512  0.16747  0.52584  1.0000
  N   N15       1.0  0.66488  0.52583  0.83253  1.0000
  N   N16       1.0  0.66488  0.47416  0.16747  1.0000
