data_image0
_chemical_formula_structural       V4Cu3H4C4N6O12
_chemical_formula_sum              "V4 Cu3 H4 C4 N6 O12"
_cell_length_a       7.59035
_cell_length_b       7.84305
_cell_length_c       8.43588
_cell_angle_alpha    63.1484
_cell_angle_beta     64.6949
_cell_angle_gamma    66.8166

_space_group_name_H-M_alt    "P 1"
_space_group_IT_number       1

loop_
  _space_group_symop_operation_xyz
  'x, y, z'

loop_
  _atom_site_type_symbol
  _atom_site_label
  _atom_site_symmetry_multiplicity
  _atom_site_fract_x
  _atom_site_fract_y
  _atom_site_fract_z
  _atom_site_occupancy
  V   V1        1.0  0.39343  0.97841  0.77152  1.0000
  V   V2        1.0  0.60686  0.02284  0.22796  1.0000
  V   V3        1.0  0.18426  0.17561  0.12054  1.0000
  V   V4        1.0  0.81510  0.82531  0.87923  1.0000
  Cu  Cu1       1.0  0.50025  0.49947  0.99976  1.0000
  Cu  Cu2       1.0  0.31688  0.63937  0.67711  1.0000
  Cu  Cu3       1.0  0.68274  0.35740  0.32531  1.0000
  H   H1        1.0  0.04064  0.72525  0.17946  1.0000
  H   H2        1.0  0.95936  0.27373  0.82081  1.0000
  H   H3        1.0  0.96172  0.77212  0.51438  1.0000
  H   H4        1.0  0.03910  0.22944  0.48453  1.0000
  C   C1        1.0  0.13546  0.67512  0.26585  1.0000
  C   C2        1.0  0.86469  0.32390  0.73432  1.0000
  C   C3        1.0  0.09690  0.69671  0.43259  1.0000
  C   C4        1.0  0.90355  0.30356  0.56705  1.0000
  N   N1        1.0  0.32956  0.57529  0.21855  1.0000
  N   N2        1.0  0.66993  0.42196  0.78278  1.0000
  N   N3        1.0  0.40870  0.53547  0.34836  1.0000
  N   N4        1.0  0.59046  0.46229  0.65232  1.0000
  N   N5        1.0  0.26937  0.60780  0.47991  1.0000
  N   N6        1.0  0.73063  0.39155  0.52027  1.0000
  O   O1        1.0  0.37828  0.74205  0.82050  1.0000
  O   O2        1.0  0.62397  0.25972  0.17820  1.0000
  O   O3        1.0  0.64242  0.97361  0.74390  1.0000
  O   O4        1.0  0.35793  0.02871  0.25503  1.0000
  O   O5        1.0  0.33007  0.13410  0.58690  1.0000
  O   O6        1.0  0.67064  0.86780  0.41230  1.0000
  O   O7        1.0  0.22342  0.06037  0.96296  1.0000
  O   O8        1.0  0.77612  0.94033  0.03731  1.0000
  O   O9        1.0  0.05180  0.80657  0.73353  1.0000
  O   O10       1.0  0.94801  0.19247  0.26772  1.0000
  O   O11       1.0  0.23338  0.39362  0.99942  1.0000
  O   O12       1.0  0.76437  0.60804  0.99965  1.0000
