data_image0
_chemical_formula_structural       V4Cu2H4C4N2O12
_chemical_formula_sum              "V4 Cu2 H4 C4 N2 O12"
_cell_length_a       7.56457
_cell_length_b       7.54747
_cell_length_c       7.60097
_cell_angle_alpha    88.2955
_cell_angle_beta     62.3465
_cell_angle_gamma    64.7495

_space_group_name_H-M_alt    "P 1"
_space_group_IT_number       1

loop_
  _space_group_symop_operation_xyz
  'x, y, z'

loop_
  _atom_site_type_symbol
  _atom_site_label
  _atom_site_symmetry_multiplicity
  _atom_site_fract_x
  _atom_site_fract_y
  _atom_site_fract_z
  _atom_site_occupancy
  V   V1        1.0  0.13238  0.75074  0.73992  1.0000
  V   V2        1.0  0.86761  0.24926  0.26008  1.0000
  V   V3        1.0  0.95583  0.23327  0.77213  1.0000
  V   V4        1.0  0.04418  0.76672  0.22786  1.0000
  Cu  Cu1       1.0  0.27508  0.37605  0.38994  1.0000
  Cu  Cu2       1.0  0.72491  0.62396  0.61007  1.0000
  H   H1        1.0  0.50604  0.93373  0.31351  1.0000
  H   H2        1.0  0.49396  0.06627  0.68649  1.0000
  H   H3        1.0  0.34870  0.34724  0.96640  1.0000
  H   H4        1.0  0.65131  0.65275  0.03360  1.0000
  C   C1        1.0  0.50410  0.96332  0.17318  1.0000
  C   C2        1.0  0.49590  0.03668  0.82682  1.0000
  C   C3        1.0  0.41567  0.19204  0.98157  1.0000
  C   C4        1.0  0.58433  0.80797  0.01845  1.0000
  N   N1        1.0  0.41981  0.15461  0.15378  1.0000
  N   N2        1.0  0.58019  0.84538  0.84623  1.0000
  O   O1        1.0  0.60895  0.28187  0.38033  1.0000
  O   O2        1.0  0.39103  0.71815  0.61969  1.0000
  O   O3        1.0  0.26959  0.57667  0.22307  1.0000
  O   O4        1.0  0.73040  0.42331  0.77692  1.0000
  O   O5        1.0  0.20260  0.20387  0.57953  1.0000
  O   O6        1.0  0.79740  0.79614  0.42046  1.0000
  O   O7        1.0  0.09873  0.59046  0.62271  1.0000
  O   O8        1.0  0.90131  0.40953  0.37726  1.0000
  O   O9        1.0  0.94159  0.00471  0.75513  1.0000
  O   O10       1.0  0.05841  0.99529  0.24487  1.0000
  O   O11       1.0  0.94737  0.28295  0.00429  1.0000
  O   O12       1.0  0.05260  0.71707  0.99571  1.0000
