data_image0
_chemical_formula_structural       Mn6H32C16Cl12O8
_chemical_formula_sum              "Mn6 H32 C16 Cl12 O8"
_cell_length_a       9.04613
_cell_length_b       9.04614
_cell_length_c       12.2504
_cell_angle_alpha    84.4455
_cell_angle_beta     84.4454
_cell_angle_gamma    59.9579

_space_group_name_H-M_alt    "P 1"
_space_group_IT_number       1

loop_
  _space_group_symop_operation_xyz
  'x, y, z'

loop_
  _atom_site_type_symbol
  _atom_site_label
  _atom_site_symmetry_multiplicity
  _atom_site_fract_x
  _atom_site_fract_y
  _atom_site_fract_z
  _atom_site_occupancy
  Mn  Mn1       1.0  0.08765  0.91235  0.75000  1.0000
  Mn  Mn2       1.0  0.91235  0.08765  0.25000  1.0000
  Mn  Mn3       1.0  0.00321  0.79885  0.49756  1.0000
  Mn  Mn4       1.0  0.20115  0.99679  0.00244  1.0000
  Mn  Mn5       1.0  0.99679  0.20115  0.50244  1.0000
  Mn  Mn6       1.0  0.79885  0.00321  0.99756  1.0000
  H   H1        1.0  0.12631  0.45934  0.26881  1.0000
  H   H2        1.0  0.54066  0.87369  0.23119  1.0000
  H   H3        1.0  0.87369  0.54065  0.73119  1.0000
  H   H4        1.0  0.45934  0.12631  0.76881  1.0000
  H   H5        1.0  0.94827  0.54300  0.37113  1.0000
  H   H6        1.0  0.45700  0.05173  0.12887  1.0000
  H   H7        1.0  0.05174  0.45700  0.62887  1.0000
  H   H8        1.0  0.54300  0.94827  0.87113  1.0000
  H   H9        1.0  0.36766  0.19153  0.30684  1.0000
  H   H10       1.0  0.80847  0.63234  0.19316  1.0000
  H   H11       1.0  0.63234  0.80847  0.69316  1.0000
  H   H12       1.0  0.19153  0.36766  0.80684  1.0000
  H   H13       1.0  0.37226  0.08244  0.43754  1.0000
  H   H14       1.0  0.91756  0.62774  0.06245  1.0000
  H   H15       1.0  0.62774  0.91756  0.56246  1.0000
  H   H16       1.0  0.08244  0.37226  0.93754  1.0000
  H   H17       1.0  0.38876  0.30582  0.53102  1.0000
  H   H18       1.0  0.69418  0.61124  0.96898  1.0000
  H   H19       1.0  0.61123  0.69418  0.46898  1.0000
  H   H20       1.0  0.30582  0.38876  0.03102  1.0000
  H   H21       1.0  0.55371  0.23030  0.42452  1.0000
  H   H22       1.0  0.76970  0.44629  0.07548  1.0000
  H   H23       1.0  0.44629  0.76970  0.57549  1.0000
  H   H24       1.0  0.23030  0.55371  0.92451  1.0000
  H   H25       1.0  0.37881  0.55871  0.42498  1.0000
  H   H26       1.0  0.44129  0.62119  0.07502  1.0000
  H   H27       1.0  0.62119  0.44129  0.57502  1.0000
  H   H28       1.0  0.55870  0.37881  0.92498  1.0000
  H   H29       1.0  0.37388  0.47640  0.29908  1.0000
  H   H30       1.0  0.52360  0.62612  0.20092  1.0000
  H   H31       1.0  0.62612  0.52360  0.70092  1.0000
  H   H32       1.0  0.47640  0.37388  0.79908  1.0000
  C   C1        1.0  0.08742  0.47318  0.35716  1.0000
  C   C2        1.0  0.52682  0.91257  0.14285  1.0000
  C   C3        1.0  0.91258  0.52682  0.64284  1.0000
  C   C4        1.0  0.47318  0.08743  0.85715  1.0000
  C   C5        1.0  0.33583  0.20727  0.39556  1.0000
  C   C6        1.0  0.79273  0.66416  0.10444  1.0000
  C   C7        1.0  0.66417  0.79274  0.60444  1.0000
  C   C8        1.0  0.20726  0.33584  0.89556  1.0000
  C   C9        1.0  0.41471  0.29979  0.44148  1.0000
  C   C10       1.0  0.70021  0.58529  0.05852  1.0000
  C   C11       1.0  0.58529  0.70021  0.55852  1.0000
  C   C12       1.0  0.29979  0.41471  0.94148  1.0000
  C   C13       1.0  0.33998  0.47898  0.38800  1.0000
  C   C14       1.0  0.52102  0.66002  0.11200  1.0000
  C   C15       1.0  0.66002  0.52102  0.61200  1.0000
  C   C16       1.0  0.47898  0.33998  0.88800  1.0000
  Cl  Cl1       1.0  0.84246  0.06277  0.61316  1.0000
  Cl  Cl2       1.0  0.93724  0.15754  0.88684  1.0000
  Cl  Cl3       1.0  0.15754  0.93724  0.38684  1.0000
  Cl  Cl4       1.0  0.06276  0.84246  0.11316  1.0000
  Cl  Cl5       1.0  0.34231  0.78170  0.86305  1.0000
  Cl  Cl6       1.0  0.21830  0.65769  0.63695  1.0000
  Cl  Cl7       1.0  0.65769  0.21830  0.13695  1.0000
  Cl  Cl8       1.0  0.78170  0.34231  0.36305  1.0000
  Cl  Cl9       1.0  0.20706  0.08591  0.64349  1.0000
  Cl  Cl10      1.0  0.91409  0.79294  0.85651  1.0000
  Cl  Cl11      1.0  0.79294  0.91409  0.35651  1.0000
  Cl  Cl12      1.0  0.08591  0.20706  0.14349  1.0000
  O   O1        1.0  0.15348  0.56551  0.40262  1.0000
  O   O2        1.0  0.43449  0.84652  0.09738  1.0000
  O   O3        1.0  0.84653  0.43449  0.59738  1.0000
  O   O4        1.0  0.56551  0.15348  0.90262  1.0000
  O   O5        1.0  0.14972  0.30808  0.41103  1.0000
  O   O6        1.0  0.69192  0.85028  0.08897  1.0000
  O   O7        1.0  0.85028  0.69192  0.58897  1.0000
  O   O8        1.0  0.30808  0.14972  0.91103  1.0000
