data_image0
_chemical_formula_structural       Cu4H32C36N4Cl4O16
_chemical_formula_sum              "Cu4 H32 C36 N4 Cl4 O16"
_cell_length_a       6.41938
_cell_length_b       8.27003
_cell_length_c       19.0555
_cell_angle_alpha    89.9997
_cell_angle_beta     94.3315
_cell_angle_gamma    89.9997

_space_group_name_H-M_alt    "P 1"
_space_group_IT_number       1

loop_
  _space_group_symop_operation_xyz
  'x, y, z'

loop_
  _atom_site_type_symbol
  _atom_site_label
  _atom_site_symmetry_multiplicity
  _atom_site_fract_x
  _atom_site_fract_y
  _atom_site_fract_z
  _atom_site_occupancy
  Cu  Cu1       1.0  0.28213  0.30863  0.20201  1.0000
  Cu  Cu2       1.0  0.28214  0.19136  0.70201  1.0000
  Cu  Cu3       1.0  0.71787  0.69136  0.79799  1.0000
  Cu  Cu4       1.0  0.71786  0.80863  0.29799  1.0000
  H   H1        1.0  0.61674  0.47084  0.16766  1.0000
  H   H2        1.0  0.61674  0.02916  0.66765  1.0000
  H   H3        1.0  0.38326  0.52915  0.83235  1.0000
  H   H4        1.0  0.38325  0.97084  0.33235  1.0000
  H   H5        1.0  0.11719  0.37777  0.92615  1.0000
  H   H6        1.0  0.11719  0.12223  0.42615  1.0000
  H   H7        1.0  0.88279  0.62224  0.07385  1.0000
  H   H8        1.0  0.88280  0.87778  0.57385  1.0000
  H   H9        1.0  0.78481  0.25448  0.87884  1.0000
  H   H10       1.0  0.78481  0.24553  0.37884  1.0000
  H   H11       1.0  0.21516  0.74555  0.12116  1.0000
  H   H12       1.0  0.21518  0.75448  0.62116  1.0000
  H   H13       1.0  0.58360  0.08131  0.95627  1.0000
  H   H14       1.0  0.58360  0.41870  0.45627  1.0000
  H   H15       1.0  0.41637  0.91871  0.04373  1.0000
  H   H16       1.0  0.41639  0.58131  0.54373  1.0000
  H   H17       1.0  0.70844  0.03942  0.08107  1.0000
  H   H18       1.0  0.70844  0.46058  0.58107  1.0000
  H   H19       1.0  0.29155  0.96058  0.91893  1.0000
  H   H20       1.0  0.29156  0.53942  0.41893  1.0000
  H   H21       1.0  0.37205  0.42362  0.00845  1.0000
  H   H22       1.0  0.37206  0.07639  0.50845  1.0000
  H   H23       1.0  0.62795  0.57638  0.99155  1.0000
  H   H24       1.0  0.62794  0.92362  0.49155  1.0000
  H   H25       1.0  0.92308  0.94950  0.17505  1.0000
  H   H26       1.0  0.92308  0.55049  0.67505  1.0000
  H   H27       1.0  0.07694  0.05049  0.82495  1.0000
  H   H28       1.0  0.07695  0.44950  0.32496  1.0000
  H   H29       1.0  0.76993  0.12844  0.18678  1.0000
  H   H30       1.0  0.76994  0.37154  0.68678  1.0000
  H   H31       1.0  0.23007  0.87153  0.81322  1.0000
  H   H32       1.0  0.23007  0.62846  0.31322  1.0000
  C   C1        1.0  0.98304  0.18721  0.07468  1.0000
  C   C2        1.0  0.98305  0.31279  0.57468  1.0000
  C   C3        1.0  0.01696  0.81279  0.92532  1.0000
  C   C4        1.0  0.01696  0.68721  0.42532  1.0000
  C   C5        1.0  0.10318  0.28269  0.03114  1.0000
  C   C6        1.0  0.10319  0.21731  0.53114  1.0000
  C   C7        1.0  0.89681  0.71731  0.96886  1.0000
  C   C8        1.0  0.89681  0.78269  0.46886  1.0000
  C   C9        1.0  0.02767  0.30354  0.96030  1.0000
  C   C10       1.0  0.02768  0.19647  0.46030  1.0000
  C   C11       1.0  0.97232  0.69647  0.03970  1.0000
  C   C12       1.0  0.97233  0.80354  0.53970  1.0000
  C   C13       1.0  0.84133  0.23437  0.93341  1.0000
  C   C14       1.0  0.84133  0.26564  0.43341  1.0000
  C   C15       1.0  0.15865  0.76565  0.06659  1.0000
  C   C16       1.0  0.15867  0.73437  0.56659  1.0000
  C   C17       1.0  0.72788  0.13880  0.97720  1.0000
  C   C18       1.0  0.72788  0.36120  0.47720  1.0000
  C   C19       1.0  0.27210  0.86121  0.02280  1.0000
  C   C20       1.0  0.27211  0.63881  0.52280  1.0000
  C   C21       1.0  0.79767  0.11508  0.04760  1.0000
  C   C22       1.0  0.79767  0.38492  0.54759  1.0000
  C   C23       1.0  0.20232  0.88492  0.95240  1.0000
  C   C24       1.0  0.20233  0.61508  0.45241  1.0000
  C   C25       1.0  0.29779  0.36416  0.05132  1.0000
  C   C26       1.0  0.29779  0.13585  0.55132  1.0000
  C   C27       1.0  0.70221  0.63584  0.94868  1.0000
  C   C28       1.0  0.70221  0.86416  0.44868  1.0000
  C   C29       1.0  0.92909  0.07777  0.18977  1.0000
  C   C30       1.0  0.92910  0.42221  0.68977  1.0000
  C   C31       1.0  0.07092  0.92221  0.81023  1.0000
  C   C32       1.0  0.07092  0.57778  0.31023  1.0000
  C   C33       1.0  0.02014  0.09653  0.26502  1.0000
  C   C34       1.0  0.02015  0.40346  0.76502  1.0000
  C   C35       1.0  0.97987  0.90346  0.73498  1.0000
  C   C36       1.0  0.97987  0.59653  0.23498  1.0000
  N   N1        1.0  0.38979  0.37738  0.11388  1.0000
  N   N2        1.0  0.38980  0.12262  0.61388  1.0000
  N   N3        1.0  0.61021  0.62262  0.88612  1.0000
  N   N4        1.0  0.61020  0.87738  0.38612  1.0000
  Cl  Cl1       1.0  0.56940  0.38625  0.26935  1.0000
  Cl  Cl2       1.0  0.56941  0.11374  0.76935  1.0000
  Cl  Cl3       1.0  0.43060  0.61374  0.73065  1.0000
  Cl  Cl4       1.0  0.43060  0.88626  0.23065  1.0000
  O   O1        1.0  0.05761  0.16567  0.14370  1.0000
  O   O2        1.0  0.05762  0.33433  0.64370  1.0000
  O   O3        1.0  0.94239  0.83432  0.85629  1.0000
  O   O4        1.0  0.94239  0.66567  0.35630  1.0000
  O   O5        1.0  0.16040  0.20538  0.27980  1.0000
  O   O6        1.0  0.16041  0.29462  0.77980  1.0000
  O   O7        1.0  0.83959  0.79462  0.72020  1.0000
  O   O8        1.0  0.83959  0.70537  0.22020  1.0000
  O   O9        1.0  0.95212  0.00818  0.31141  1.0000
  O   O10       1.0  0.95211  0.49181  0.81141  1.0000
  O   O11       1.0  0.04790  0.99180  0.68859  1.0000
  O   O12       1.0  0.04790  0.50819  0.18859  1.0000
  O   O13       1.0  0.57263  0.46601  0.11613  1.0000
  O   O14       1.0  0.57263  0.03399  0.61613  1.0000
  O   O15       1.0  0.42737  0.53398  0.88387  1.0000
  O   O16       1.0  0.42736  0.96601  0.38387  1.0000
