data_image0
_chemical_formula_structural       Zn4H40C60N8O16
_chemical_formula_sum              "Zn4 H40 C60 N8 O16"
_cell_length_a       9.35404
_cell_length_b       9.98129
_cell_length_c       14.4762
_cell_angle_alpha    88.6373
_cell_angle_beta     77.9438
_cell_angle_gamma    88.2147

_space_group_name_H-M_alt    "P 1"
_space_group_IT_number       1

loop_
  _space_group_symop_operation_xyz
  'x, y, z'

loop_
  _atom_site_type_symbol
  _atom_site_label
  _atom_site_symmetry_multiplicity
  _atom_site_fract_x
  _atom_site_fract_y
  _atom_site_fract_z
  _atom_site_occupancy
  Zn  Zn1       1.0  0.35970  0.17447  0.11179  1.0000
  Zn  Zn2       1.0  0.64030  0.82553  0.88821  1.0000
  Zn  Zn3       1.0  0.25372  0.95512  0.28517  1.0000
  Zn  Zn4       1.0  0.74628  0.04488  0.71483  1.0000
  H   H1        1.0  0.91346  0.23053  0.41248  1.0000
  H   H2        1.0  0.08654  0.76947  0.58752  1.0000
  H   H3        1.0  0.75435  0.42230  0.48369  1.0000
  H   H4        1.0  0.24565  0.57770  0.51631  1.0000
  H   H5        1.0  0.83552  0.65769  0.44324  1.0000
  H   H6        1.0  0.16448  0.34232  0.55676  1.0000
  H   H7        1.0  0.22780  0.50396  0.26297  1.0000
  H   H8        1.0  0.77221  0.49604  0.73702  1.0000
  H   H9        1.0  0.11884  0.78500  0.12563  1.0000
  H   H10       1.0  0.88116  0.21500  0.87437  1.0000
  H   H11       1.0  0.90494  0.63736  0.17509  1.0000
  H   H12       1.0  0.09506  0.36264  0.82491  1.0000
  H   H13       1.0  0.65382  0.73887  0.20822  1.0000
  H   H14       1.0  0.34618  0.26113  0.79177  1.0000
  H   H15       1.0  0.82863  0.12528  0.11851  1.0000
  H   H16       1.0  0.17137  0.87472  0.88149  1.0000
  H   H17       1.0  0.65377  0.33291  0.80479  1.0000
  H   H18       1.0  0.34623  0.66709  0.19521  1.0000
  H   H19       1.0  0.62768  0.18148  0.94663  1.0000
  H   H20       1.0  0.37232  0.81852  0.05337  1.0000
  H   H21       1.0  0.47862  0.56638  0.75045  1.0000
  H   H22       1.0  0.52138  0.43362  0.24955  1.0000
  H   H23       1.0  0.23996  0.68501  0.80904  1.0000
  H   H24       1.0  0.76004  0.31499  0.19096  1.0000
  H   H25       1.0  0.08735  0.63127  0.96506  1.0000
  H   H26       1.0  0.91265  0.36873  0.03495  1.0000
  H   H27       1.0  0.16239  0.44493  0.06670  1.0000
  H   H28       1.0  0.83761  0.55507  0.93330  1.0000
  H   H29       1.0  0.21594  0.03770  0.63785  1.0000
  H   H30       1.0  0.78406  0.96229  0.36215  1.0000
  H   H31       1.0  0.13580  0.10314  0.48963  1.0000
  H   H32       1.0  0.86420  0.89686  0.51037  1.0000
  H   H33       1.0  0.43182  0.83372  0.68927  1.0000
  H   H34       1.0  0.56818  0.16628  0.31073  1.0000
  H   H35       1.0  0.59174  0.64640  0.61385  1.0000
  H   H36       1.0  0.40826  0.35360  0.38615  1.0000
  H   H37       1.0  0.60446  0.58940  0.44658  1.0000
  H   H38       1.0  0.39554  0.41060  0.55342  1.0000
  H   H39       1.0  0.46763  0.72758  0.34588  1.0000
  H   H40       1.0  0.53237  0.27241  0.65413  1.0000
  C   C1        1.0  0.17389  0.24360  0.28838  1.0000
  C   C2        1.0  0.82611  0.75640  0.71162  1.0000
  C   C3        1.0  0.07939  0.35702  0.33351  1.0000
  C   C4        1.0  0.92061  0.64298  0.66648  1.0000
  C   C5        1.0  0.94617  0.33349  0.39585  1.0000
  C   C6        1.0  0.05383  0.66651  0.60415  1.0000
  C   C7        1.0  0.85781  0.44139  0.43516  1.0000
  C   C8        1.0  0.14219  0.55861  0.56484  1.0000
  C   C9        1.0  0.90269  0.57218  0.41299  1.0000
  C   C10       1.0  0.09731  0.42782  0.58701  1.0000
  C   C11       1.0  0.03659  0.59692  0.35135  1.0000
  C   C12       1.0  0.96341  0.40308  0.64865  1.0000
  C   C13       1.0  0.12404  0.48860  0.31171  1.0000
  C   C14       1.0  0.87596  0.51140  0.68828  1.0000
  C   C15       1.0  0.08238  0.73865  0.33046  1.0000
  C   C16       1.0  0.91762  0.26135  0.66953  1.0000
  C   C17       1.0  0.11199  0.05833  0.10845  1.0000
  C   C18       1.0  0.88801  0.94167  0.89156  1.0000
  C   C19       1.0  0.98698  0.96547  0.12414  1.0000
  C   C20       1.0  0.01302  0.03453  0.87586  1.0000
  C   C21       1.0  0.00817  0.82698  0.13598  1.0000
  C   C22       1.0  0.99183  0.17303  0.86402  1.0000
  C   C23       1.0  0.88880  0.74472  0.16463  1.0000
  C   C24       1.0  0.11120  0.25528  0.83538  1.0000
  C   C25       1.0  0.74779  0.80068  0.18217  1.0000
  C   C26       1.0  0.25221  0.19932  0.81783  1.0000
  C   C27       1.0  0.72486  0.93706  0.16316  1.0000
  C   C28       1.0  0.27514  0.06294  0.83684  1.0000
  C   C29       1.0  0.84488  0.01908  0.13316  1.0000
  C   C30       1.0  0.15512  0.98092  0.86684  1.0000
  C   C31       1.0  0.57252  0.99308  0.17281  1.0000
  C   C32       1.0  0.42748  0.00692  0.82719  1.0000
  C   C33       1.0  0.55235  0.26444  0.93950  1.0000
  C   C34       1.0  0.44766  0.73556  0.06050  1.0000
  C   C35       1.0  0.45250  0.43862  0.87634  1.0000
  C   C36       1.0  0.54750  0.56138  0.12366  1.0000
  C   C37       1.0  0.41071  0.54013  0.81862  1.0000
  C   C38       1.0  0.58929  0.45987  0.18138  1.0000
  C   C39       1.0  0.27771  0.60667  0.85267  1.0000
  C   C40       1.0  0.72229  0.39333  0.14733  1.0000
  C   C41       1.0  0.19004  0.57506  0.94179  1.0000
  C   C42       1.0  0.80996  0.42494  0.05821  1.0000
  C   C43       1.0  0.23129  0.47301  0.99909  1.0000
  C   C44       1.0  0.76871  0.52699  0.00091  1.0000
  C   C45       1.0  0.36323  0.40350  0.96482  1.0000
  C   C46       1.0  0.63677  0.59650  0.03518  1.0000
  C   C47       1.0  0.21620  0.02402  0.49390  1.0000
  C   C48       1.0  0.78380  0.97598  0.50610  1.0000
  C   C49       1.0  0.35901  0.88490  0.55876  1.0000
  C   C50       1.0  0.64098  0.11509  0.44124  1.0000
  C   C51       1.0  0.43792  0.81082  0.61541  1.0000
  C   C52       1.0  0.56208  0.18918  0.38459  1.0000
  C   C53       1.0  0.52687  0.70553  0.57245  1.0000
  C   C54       1.0  0.47312  0.29447  0.42755  1.0000
  C   C55       1.0  0.53630  0.67435  0.47684  1.0000
  C   C56       1.0  0.46370  0.32565  0.52316  1.0000
  C   C57       1.0  0.45988  0.74946  0.42001  1.0000
  C   C58       1.0  0.54011  0.25054  0.57999  1.0000
  C   C59       1.0  0.37120  0.85616  0.46178  1.0000
  C   C60       1.0  0.62880  0.14384  0.53822  1.0000
  N   N1        1.0  0.42952  0.29350  0.00185  1.0000
  N   N2        1.0  0.57049  0.70650  0.99815  1.0000
  N   N3        1.0  0.57106  0.34879  0.86382  1.0000
  N   N4        1.0  0.42894  0.65121  0.13618  1.0000
  N   N5        1.0  0.25916  0.99185  0.57579  1.0000
  N   N6        1.0  0.74083  0.00815  0.42421  1.0000
  N   N7        1.0  0.28158  0.94600  0.42376  1.0000
  N   N8        1.0  0.71842  0.05400  0.57624  1.0000
  O   O1        1.0  0.29218  0.27400  0.23067  1.0000
  O   O2        1.0  0.70782  0.72600  0.76933  1.0000
  O   O3        1.0  0.13099  0.12488  0.31026  1.0000
  O   O4        1.0  0.86902  0.87512  0.68974  1.0000
  O   O5        1.0  0.21176  0.75735  0.27727  1.0000
  O   O6        1.0  0.78824  0.24265  0.72273  1.0000
  O   O7        1.0  0.99960  0.83413  0.36376  1.0000
  O   O8        1.0  0.00040  0.16587  0.63624  1.0000
  O   O9        1.0  0.09743  0.17943  0.08774  1.0000
  O   O10       1.0  0.90257  0.82057  0.91226  1.0000
  O   O11       1.0  0.23783  0.00782  0.12279  1.0000
  O   O12       1.0  0.76217  0.99218  0.87721  1.0000
  O   O13       1.0  0.47160  0.93445  0.23098  1.0000
  O   O14       1.0  0.52840  0.06555  0.76901  1.0000
  O   O15       1.0  0.55592  0.09532  0.12122  1.0000
  O   O16       1.0  0.44408  0.90468  0.87878  1.0000
