data_image0
_chemical_formula_structural       Co2H22C34S2N6O10
_chemical_formula_sum              "Co2 H22 C34 S2 N6 O10"
_cell_length_a       7.75326
_cell_length_b       10.3417
_cell_length_c       11.7181
_cell_angle_alpha    63.6025
_cell_angle_beta     74.0537
_cell_angle_gamma    83.2938

_space_group_name_H-M_alt    "P 1"
_space_group_IT_number       1

loop_
  _space_group_symop_operation_xyz
  'x, y, z'

loop_
  _atom_site_type_symbol
  _atom_site_label
  _atom_site_symmetry_multiplicity
  _atom_site_fract_x
  _atom_site_fract_y
  _atom_site_fract_z
  _atom_site_occupancy
  Co  Co1       1.0  0.35288  0.91095  0.45014  1.0000
  Co  Co2       1.0  0.64711  0.08904  0.54986  1.0000
  H   H1        1.0  0.08159  0.99427  0.65660  1.0000
  H   H2        1.0  0.91840  0.00571  0.34339  1.0000
  H   H3        1.0  0.61309  0.80758  0.26757  1.0000
  H   H4        1.0  0.38692  0.19245  0.73243  1.0000
  H   H5        1.0  0.99708  0.62301  0.25062  1.0000
  H   H6        1.0  0.00288  0.37697  0.74941  1.0000
  H   H7        1.0  0.05538  0.34967  0.28921  1.0000
  H   H8        1.0  0.94462  0.65030  0.71080  1.0000
  H   H9        1.0  0.36551  0.20403  0.19277  1.0000
  H   H10       1.0  0.63448  0.79598  0.80722  1.0000
  H   H11       1.0  0.90576  0.00557  0.83618  1.0000
  H   H12       1.0  0.09424  0.99444  0.16382  1.0000
  H   H13       1.0  0.54973  0.31100  0.95813  1.0000
  H   H14       1.0  0.45026  0.68901  0.04186  1.0000
  H   H15       1.0  0.25116  0.49570  0.90999  1.0000
  H   H16       1.0  0.74883  0.50430  0.09003  1.0000
  H   H17       1.0  0.37199  0.62689  0.66710  1.0000
  H   H18       1.0  0.62798  0.37308  0.33291  1.0000
  H   H19       1.0  0.77198  0.15655  0.87860  1.0000
  H   H20       1.0  0.22803  0.84346  0.12140  1.0000
  H   H21       1.0  0.03856  0.62339  0.03065  1.0000
  H   H22       1.0  0.96147  0.37664  0.96937  1.0000
  C   C1        1.0  0.29774  0.18693  0.45174  1.0000
  C   C2        1.0  0.70225  0.81305  0.54825  1.0000
  C   C3        1.0  0.11883  0.88447  0.71555  1.0000
  C   C4        1.0  0.88117  0.11552  0.28445  1.0000
  C   C5        1.0  0.70503  0.96678  0.06664  1.0000
  C   C6        1.0  0.29499  0.03324  0.93336  1.0000
  C   C7        1.0  0.60059  0.91846  0.19660  1.0000
  C   C8        1.0  0.39943  0.08156  0.80340  1.0000
  C   C9        1.0  0.08760  0.54998  0.30706  1.0000
  C   C10       1.0  0.91238  0.45000  0.69296  1.0000
  C   C11       1.0  0.11760  0.40490  0.32808  1.0000
  C   C12       1.0  0.88239  0.59509  0.67193  1.0000
  C   C13       1.0  0.46492  0.14052  0.15396  1.0000
  C   C14       1.0  0.53509  0.85950  0.84603  1.0000
  C   C15       1.0  0.56670  0.19856  0.02415  1.0000
  C   C16       1.0  0.43330  0.80145  0.97585  1.0000
  C   C17       1.0  0.04240  0.81879  0.85228  1.0000
  C   C18       1.0  0.95761  0.18122  0.14773  1.0000
  C   C19       1.0  0.18444  0.73270  0.37140  1.0000
  C   C20       1.0  0.81556  0.26730  0.62858  1.0000
  C   C21       1.0  0.18331  0.59031  0.37052  1.0000
  C   C22       1.0  0.81668  0.40968  0.62949  1.0000
  C   C23       1.0  0.23439  0.33622  0.40824  1.0000
  C   C24       1.0  0.76562  0.66376  0.59175  1.0000
  C   C25       1.0  0.82206  0.85643  0.03245  1.0000
  C   C26       1.0  0.17797  0.14358  0.96756  1.0000
  C   C27       1.0  0.21293  0.60736  0.85785  1.0000
  C   C28       1.0  0.78707  0.39264  0.14216  1.0000
  C   C29       1.0  0.28138  0.67923  0.72272  1.0000
  C   C30       1.0  0.71861  0.32076  0.27729  1.0000
  C   C31       1.0  0.69004  0.11142  0.97965  1.0000
  C   C32       1.0  0.30997  0.88859  0.02035  1.0000
  C   C33       1.0  0.09309  0.67678  0.92498  1.0000
  C   C34       1.0  0.90692  0.32324  0.07503  1.0000
  S   S1        1.0  0.30761  0.45017  0.45696  1.0000
  S   S2        1.0  0.69240  0.54982  0.54303  1.0000
  N   N1        1.0  0.23614  0.81698  0.65291  1.0000
  N   N2        1.0  0.76384  0.18300  0.34710  1.0000
  N   N3        1.0  0.48367  0.00295  0.24011  1.0000
  N   N4        1.0  0.51633  0.99707  0.75989  1.0000
  N   N5        1.0  0.92353  0.90246  0.90525  1.0000
  N   N6        1.0  0.07649  0.09756  0.09475  1.0000
  O   O1        1.0  0.24132  0.10441  0.41414  1.0000
  O   O2        1.0  0.75864  0.89558  0.58585  1.0000
  O   O3        1.0  0.28489  0.74151  0.43898  1.0000
  O   O4        1.0  0.71516  0.25851  0.56096  1.0000
  O   O5        1.0  0.40523  0.14590  0.52677  1.0000
  O   O6        1.0  0.59479  0.85406  0.47320  1.0000
  O   O7        1.0  0.09142  0.83365  0.30834  1.0000
  O   O8        1.0  0.90852  0.16632  0.69167  1.0000
  O   O9        1.0  0.82188  0.72984  0.11726  1.0000
  O   O10       1.0  0.17816  0.27018  0.88275  1.0000
