data_image0
_chemical_formula_structural       Zn12H24C40N16O40
_chemical_formula_sum              "Zn12 H24 C40 N16 O40"
_cell_length_a       11.7132
_cell_length_b       12.9852
_cell_length_c       19.1698
_cell_angle_alpha    89.9997
_cell_angle_beta     90
_cell_angle_gamma    113.426

_space_group_name_H-M_alt    "P 1"
_space_group_IT_number       1

loop_
  _space_group_symop_operation_xyz
  'x, y, z'

loop_
  _atom_site_type_symbol
  _atom_site_label
  _atom_site_symmetry_multiplicity
  _atom_site_fract_x
  _atom_site_fract_y
  _atom_site_fract_z
  _atom_site_occupancy
  Zn  Zn1       1.0  0.18823  0.69474  0.61818  1.0000
  Zn  Zn2       1.0  0.31177  0.80526  0.11818  1.0000
  Zn  Zn3       1.0  0.81178  0.30525  0.38182  1.0000
  Zn  Zn4       1.0  0.68822  0.19475  0.88182  1.0000
  Zn  Zn5       1.0  0.64339  0.60068  0.58807  1.0000
  Zn  Zn6       1.0  0.85661  0.89932  0.08807  1.0000
  Zn  Zn7       1.0  0.35662  0.39932  0.41193  1.0000
  Zn  Zn8       1.0  0.14339  0.10068  0.91193  1.0000
  Zn  Zn9       1.0  0.56411  0.87312  0.83247  1.0000
  Zn  Zn10      1.0  0.93589  0.62688  0.33247  1.0000
  Zn  Zn11      1.0  0.43588  0.12687  0.16753  1.0000
  Zn  Zn12      1.0  0.06411  0.37312  0.66753  1.0000
  H   H1        1.0  0.18771  0.67190  0.44265  1.0000
  H   H2        1.0  0.31229  0.82810  0.94265  1.0000
  H   H3        1.0  0.81230  0.32810  0.55735  1.0000
  H   H4        1.0  0.68770  0.17189  0.05735  1.0000
  H   H5        1.0  0.18216  0.56859  0.74295  1.0000
  H   H6        1.0  0.31784  0.93141  0.24295  1.0000
  H   H7        1.0  0.81784  0.43142  0.25706  1.0000
  H   H8        1.0  0.68215  0.06858  0.75706  1.0000
  H   H9        1.0  0.05943  0.56773  0.70599  1.0000
  H   H10       1.0  0.44057  0.93227  0.20599  1.0000
  H   H11       1.0  0.94058  0.43228  0.29401  1.0000
  H   H12       1.0  0.55942  0.06772  0.79401  1.0000
  H   H13       1.0  0.71267  0.72497  0.74843  1.0000
  H   H14       1.0  0.78733  0.77503  0.24843  1.0000
  H   H15       1.0  0.28733  0.27503  0.25157  1.0000
  H   H16       1.0  0.21267  0.22497  0.75157  1.0000
  H   H17       1.0  0.53889  0.40380  0.54349  1.0000
  H   H18       1.0  0.96111  0.09620  0.04349  1.0000
  H   H19       1.0  0.46111  0.59620  0.45651  1.0000
  H   H20       1.0  0.03889  0.90380  0.95651  1.0000
  H   H21       1.0  0.45143  0.41807  0.60009  1.0000
  H   H22       1.0  0.04857  0.08194  0.10009  1.0000
  H   H23       1.0  0.54857  0.58194  0.39990  1.0000
  H   H24       1.0  0.95143  0.91806  0.89990  1.0000
  C   C1        1.0  0.09956  0.66231  0.46592  1.0000
  C   C2        1.0  0.40044  0.83769  0.96592  1.0000
  C   C3        1.0  0.90044  0.33769  0.53408  1.0000
  C   C4        1.0  0.59956  0.16231  0.03408  1.0000
  C   C5        1.0  0.42167  0.66350  0.57969  1.0000
  C   C6        1.0  0.07833  0.83650  0.07969  1.0000
  C   C7        1.0  0.57834  0.33649  0.42031  1.0000
  C   C8        1.0  0.92166  0.16351  0.92031  1.0000
  C   C9        1.0  0.63028  0.72753  0.72387  1.0000
  C   C10       1.0  0.86972  0.77247  0.22387  1.0000
  C   C11       1.0  0.36972  0.27247  0.27613  1.0000
  C   C12       1.0  0.13028  0.22753  0.77613  1.0000
  C   C13       1.0  0.46342  0.76097  0.70520  1.0000
  C   C14       1.0  0.03658  0.73904  0.20520  1.0000
  C   C15       1.0  0.53658  0.23903  0.29480  1.0000
  C   C16       1.0  0.96342  0.26097  0.79480  1.0000
  C   C17       1.0  0.37582  0.81405  0.72463  1.0000
  C   C18       1.0  0.12418  0.68595  0.22463  1.0000
  C   C19       1.0  0.62418  0.18594  0.27537  1.0000
  C   C20       1.0  0.87582  0.31405  0.77537  1.0000
  C   C21       1.0  0.48168  0.70150  0.64844  1.0000
  C   C22       1.0  0.01832  0.79850  0.14844  1.0000
  C   C23       1.0  0.51832  0.29850  0.35156  1.0000
  C   C24       1.0  0.98168  0.20150  0.85156  1.0000
  C   C25       1.0  0.90355  0.63389  0.47841  1.0000
  C   C26       1.0  0.59645  0.86611  0.97841  1.0000
  C   C27       1.0  0.09645  0.36611  0.52159  1.0000
  C   C28       1.0  0.40355  0.13389  0.02159  1.0000
  C   C29       1.0  0.91696  0.64252  0.61860  1.0000
  C   C30       1.0  0.58304  0.85748  0.11860  1.0000
  C   C31       1.0  0.08304  0.35748  0.38140  1.0000
  C   C32       1.0  0.41696  0.14253  0.88140  1.0000
  C   C33       1.0  0.95816  0.64881  0.54454  1.0000
  C   C34       1.0  0.54183  0.85119  0.04454  1.0000
  C   C35       1.0  0.04184  0.35118  0.45546  1.0000
  C   C36       1.0  0.45817  0.14882  0.95546  1.0000
  C   C37       1.0  0.78042  0.61741  0.44931  1.0000
  C   C38       1.0  0.71957  0.88259  0.94931  1.0000
  C   C39       1.0  0.21958  0.38259  0.55069  1.0000
  C   C40       1.0  0.28042  0.11741  0.05069  1.0000
  N   N1        1.0  0.08139  0.66756  0.53468  1.0000
  N   N2        1.0  0.41860  0.83244  0.03468  1.0000
  N   N3        1.0  0.91861  0.33244  0.46532  1.0000
  N   N4        1.0  0.58139  0.16757  0.96532  1.0000
  N   N5        1.0  0.58713  0.68198  0.66148  1.0000
  N   N6        1.0  0.91287  0.81803  0.16148  1.0000
  N   N7        1.0  0.41288  0.31803  0.33852  1.0000
  N   N8        1.0  0.08712  0.18197  0.83852  1.0000
  N   N9        1.0  0.55917  0.77642  0.75180  1.0000
  N   N10       1.0  0.94083  0.72358  0.25180  1.0000
  N   N11       1.0  0.44083  0.22358  0.24820  1.0000
  N   N12       1.0  0.05917  0.27643  0.74820  1.0000
  N   N13       1.0  0.99439  0.64223  0.43025  1.0000
  N   N14       1.0  0.50561  0.85777  0.93025  1.0000
  N   N15       1.0  0.00562  0.35778  0.56975  1.0000
  N   N16       1.0  0.49439  0.14222  0.06976  1.0000
  O   O1        1.0  0.31625  0.66366  0.56406  1.0000
  O   O2        1.0  0.18375  0.83634  0.06406  1.0000
  O   O3        1.0  0.68376  0.33633  0.43594  1.0000
  O   O4        1.0  0.81624  0.16367  0.93594  1.0000
  O   O5        1.0  0.48424  0.63128  0.53742  1.0000
  O   O6        1.0  0.01576  0.86873  0.03742  1.0000
  O   O7        1.0  0.51577  0.36873  0.46258  1.0000
  O   O8        1.0  0.98423  0.13127  0.96258  1.0000
  O   O9        1.0  0.40009  0.87003  0.78098  1.0000
  O   O10       1.0  0.09992  0.62997  0.28098  1.0000
  O   O11       1.0  0.59990  0.12996  0.21902  1.0000
  O   O12       1.0  0.90009  0.37004  0.71902  1.0000
  O   O13       1.0  0.53947  0.43269  0.59268  1.0000
  O   O14       1.0  0.96053  0.06731  0.09268  1.0000
  O   O15       1.0  0.46052  0.56731  0.40732  1.0000
  O   O16       1.0  0.03948  0.93269  0.90732  1.0000
  O   O17       1.0  0.28192  0.80476  0.68686  1.0000
  O   O18       1.0  0.21808  0.69524  0.18686  1.0000
  O   O19       1.0  0.71809  0.19525  0.31313  1.0000
  O   O20       1.0  0.78191  0.30475  0.81313  1.0000
  O   O21       1.0  0.13354  0.54805  0.70011  1.0000
  O   O22       1.0  0.36646  0.95194  0.20011  1.0000
  O   O23       1.0  0.86647  0.45195  0.29989  1.0000
  O   O24       1.0  0.63353  0.04805  0.79989  1.0000
  O   O25       1.0  0.00238  0.65652  0.66409  1.0000
  O   O26       1.0  0.49762  0.84347  0.16409  1.0000
  O   O27       1.0  0.99763  0.34347  0.33591  1.0000
  O   O28       1.0  0.50237  0.15653  0.83591  1.0000
  O   O29       1.0  0.80607  0.62422  0.63527  1.0000
  O   O30       1.0  0.69392  0.87578  0.13527  1.0000
  O   O31       1.0  0.19392  0.37578  0.36473  1.0000
  O   O32       1.0  0.30608  0.12422  0.86473  1.0000
  O   O33       1.0  0.69296  0.61898  0.48772  1.0000
  O   O34       1.0  0.80704  0.88102  0.98773  1.0000
  O   O35       1.0  0.30705  0.38103  0.51227  1.0000
  O   O36       1.0  0.19295  0.11897  0.01227  1.0000
  O   O37       1.0  0.76743  0.60526  0.38304  1.0000
  O   O38       1.0  0.73257  0.89474  0.88304  1.0000
  O   O39       1.0  0.23258  0.39474  0.61696  1.0000
  O   O40       1.0  0.26742  0.10526  0.11696  1.0000
