data_image0
_chemical_formula_structural       Mn2H22C24N2O18
_chemical_formula_sum              "Mn2 H22 C24 N2 O18"
_cell_length_a       7.00865
_cell_length_b       7.24711
_cell_length_c       13.5615
_cell_angle_alpha    78.614
_cell_angle_beta     77.4935
_cell_angle_gamma    81.0872

_space_group_name_H-M_alt    "P 1"
_space_group_IT_number       1

loop_
  _space_group_symop_operation_xyz
  'x, y, z'

loop_
  _atom_site_type_symbol
  _atom_site_label
  _atom_site_symmetry_multiplicity
  _atom_site_fract_x
  _atom_site_fract_y
  _atom_site_fract_z
  _atom_site_occupancy
  Mn  Mn1       1.0  0.03542  0.32269  0.42362  1.0000
  Mn  Mn2       1.0  0.96458  0.67728  0.57639  1.0000
  H   H1        1.0  0.84075  0.52956  0.03019  1.0000
  H   H2        1.0  0.15925  0.47045  0.96980  1.0000
  H   H3        1.0  0.54594  0.67557  0.95833  1.0000
  H   H4        1.0  0.45405  0.32443  0.04167  1.0000
  H   H5        1.0  0.31613  0.93666  0.22533  1.0000
  H   H6        1.0  0.68384  0.06332  0.77468  1.0000
  H   H7        1.0  0.58038  0.09238  0.30352  1.0000
  H   H8        1.0  0.41963  0.90764  0.69649  1.0000
  H   H9        1.0  0.81266  0.98730  0.24432  1.0000
  H   H10       1.0  0.18735  0.01271  0.75567  1.0000
  H   H11       1.0  0.32310  0.89449  0.39024  1.0000
  H   H12       1.0  0.67687  0.10548  0.60976  1.0000
  H   H13       1.0  0.47436  0.77223  0.47856  1.0000
  H   H14       1.0  0.52565  0.22776  0.52144  1.0000
  H   H15       1.0  0.73201  0.68046  0.34312  1.0000
  H   H16       1.0  0.26800  0.31956  0.65687  1.0000
  H   H17       1.0  0.08888  0.91971  0.93818  1.0000
  H   H18       1.0  0.91111  0.08030  0.06181  1.0000
  H   H19       1.0  0.21227  0.33090  0.23275  1.0000
  H   H20       1.0  0.78771  0.66915  0.76725  1.0000
  H   H21       1.0  0.36430  0.33521  0.30709  1.0000
  H   H22       1.0  0.63569  0.66481  0.69289  1.0000
  C   C1        1.0  0.92260  0.54257  0.21398  1.0000
  C   C2        1.0  0.07739  0.45747  0.78602  1.0000
  C   C3        1.0  0.74662  0.64491  0.16988  1.0000
  C   C4        1.0  0.25337  0.35512  0.83012  1.0000
  C   C5        1.0  0.72624  0.61797  0.07336  1.0000
  C   C6        1.0  0.27375  0.38204  0.92664  1.0000
  C   C7        1.0  0.56008  0.69902  0.03309  1.0000
  C   C8        1.0  0.43991  0.30099  0.96690  1.0000
  C   C9        1.0  0.41032  0.81016  0.08903  1.0000
  C   C10       1.0  0.58968  0.18985  0.91097  1.0000
  C   C11       1.0  0.43028  0.84450  0.18411  1.0000
  C   C12       1.0  0.56968  0.15549  0.81589  1.0000
  C   C13       1.0  0.59539  0.76034  0.22343  1.0000
  C   C14       1.0  0.40458  0.23970  0.77656  1.0000
  C   C15       1.0  0.22697  0.89112  0.05109  1.0000
  C   C16       1.0  0.77302  0.10888  0.94891  1.0000
  C   C17       1.0  0.69790  0.97567  0.31377  1.0000
  C   C18       1.0  0.30209  0.02434  0.68623  1.0000
  C   C19       1.0  0.79252  0.98684  0.40306  1.0000
  C   C20       1.0  0.20748  0.01311  0.59695  1.0000
  C   C21       1.0  0.43334  0.77271  0.40486  1.0000
  C   C22       1.0  0.56665  0.22729  0.59514  1.0000
  C   C23       1.0  0.35688  0.58554  0.40838  1.0000
  C   C24       1.0  0.64316  0.41443  0.59163  1.0000
  N   N1        1.0  0.61601  0.79182  0.32455  1.0000
  N   N2        1.0  0.38397  0.20819  0.67545  1.0000
  O   O1        1.0  0.05982  0.45753  0.15758  1.0000
  O   O2        1.0  0.94020  0.54255  0.84240  1.0000
  O   O3        1.0  0.91914  0.54781  0.30945  1.0000
  O   O4        1.0  0.08089  0.45221  0.69054  1.0000
  O   O5        1.0  0.86683  0.13866  0.39336  1.0000
  O   O6        1.0  0.13308  0.86131  0.60671  1.0000
  O   O7        1.0  0.78873  0.84869  0.47658  1.0000
  O   O8        1.0  0.21138  0.15117  0.52337  1.0000
  O   O9        1.0  0.47251  0.46024  0.36696  1.0000
  O   O10       1.0  0.52755  0.53977  0.63302  1.0000
  O   O11       1.0  0.17756  0.56840  0.45337  1.0000
  O   O12       1.0  0.82252  0.43156  0.54667  1.0000
  O   O13       1.0  0.09064  0.98344  0.10378  1.0000
  O   O14       1.0  0.90933  0.01657  0.89622  1.0000
  O   O15       1.0  0.22042  0.85692  0.96016  1.0000
  O   O16       1.0  0.77956  0.14308  0.03985  1.0000
  O   O17       1.0  0.27222  0.25670  0.29197  1.0000
  O   O18       1.0  0.72778  0.74329  0.70802  1.0000
