data_image0
_chemical_formula_structural       Mn3H20C22N2O14
_chemical_formula_sum              "Mn3 H20 C22 N2 O14"
_cell_length_a       5.96595
_cell_length_b       9.37766
_cell_length_c       11.812
_cell_angle_alpha    68.6434
_cell_angle_beta     81.4069
_cell_angle_gamma    76.6939

_space_group_name_H-M_alt    "P 1"
_space_group_IT_number       1

loop_
  _space_group_symop_operation_xyz
  'x, y, z'

loop_
  _atom_site_type_symbol
  _atom_site_label
  _atom_site_symmetry_multiplicity
  _atom_site_fract_x
  _atom_site_fract_y
  _atom_site_fract_z
  _atom_site_occupancy
  Mn  Mn1       1.0  0.49921  0.50013  0.50035  1.0000
  Mn  Mn2       1.0  0.99717  0.84303  0.63554  1.0000
  Mn  Mn3       1.0  0.00301  0.15703  0.36413  1.0000
  H   H1        1.0  0.25624  0.51308  0.11668  1.0000
  H   H2        1.0  0.74319  0.48689  0.88348  1.0000
  H   H3        1.0  0.34020  0.71039  0.91922  1.0000
  H   H4        1.0  0.65955  0.28933  0.08087  1.0000
  H   H5        1.0  0.63455  0.95833  0.93405  1.0000
  H   H6        1.0  0.36539  0.04182  0.06575  1.0000
  H   H7        1.0  0.55634  0.75550  0.12908  1.0000
  H   H8        1.0  0.44328  0.24476  0.87078  1.0000
  H   H9        1.0  0.35871  0.97356  0.85280  1.0000
  H   H10       1.0  0.64182  0.02581  0.14746  1.0000
  H   H11       1.0  0.28063  0.11309  0.70991  1.0000
  H   H12       1.0  0.71998  0.88679  0.29053  1.0000
  H   H13       1.0  0.89911  0.19762  0.79901  1.0000
  H   H14       1.0  0.10157  0.80266  0.20049  1.0000
  H   H15       1.0  0.69974  0.09268  0.78276  1.0000
  H   H16       1.0  0.30068  0.90741  0.21723  1.0000
  H   H17       1.0  0.55071  0.72863  0.57157  1.0000
  H   H18       1.0  0.44927  0.27141  0.42877  1.0000
  H   H19       1.0  0.79898  0.62900  0.56520  1.0000
  H   H20       1.0  0.20099  0.37113  0.43450  1.0000
  C   C1        1.0  0.85059  0.51128  0.26133  1.0000
  C   C2        1.0  0.14897  0.48910  0.73884  1.0000
  C   C3        1.0  0.90092  0.62228  0.13717  1.0000
  C   C4        1.0  0.09863  0.37792  0.86284  1.0000
  C   C5        1.0  0.12033  0.61090  0.07517  1.0000
  C   C6        1.0  0.87926  0.38914  0.92490  1.0000
  C   C7        1.0  0.16726  0.72381  0.96398  1.0000
  C   C8        1.0  0.83258  0.27611  0.03609  1.0000
  C   C9        1.0  0.99420  0.85300  0.91011  1.0000
  C   C10       1.0  0.00581  0.14702  0.08991  1.0000
  C   C11       1.0  0.77280  0.86105  0.97152  1.0000
  C   C12       1.0  0.22704  0.13910  0.02838  1.0000
  C   C13       1.0  0.72778  0.74775  0.08190  1.0000
  C   C14       1.0  0.27186  0.25248  0.91800  1.0000
  C   C15       1.0  0.28016  0.99135  0.76920  1.0000
  C   C16       1.0  0.72031  0.00848  0.23098  1.0000
  C   C17       1.0  0.44040  0.89211  0.70208  1.0000
  C   C18       1.0  0.55981  0.10793  0.29788  1.0000
  C   C19       1.0  0.87595  0.11444  0.75779  1.0000
  C   C20       1.0  0.12448  0.88557  0.24207  1.0000
  C   C21       1.0  0.88363  0.19194  0.61986  1.0000
  C   C22       1.0  0.11660  0.80752  0.37999  1.0000
  N   N1        1.0  0.04160  0.96724  0.79739  1.0000
  N   N2        1.0  0.95883  0.03275  0.20274  1.0000
  O   O1        1.0  0.00966  0.39059  0.30398  1.0000
  O   O2        1.0  0.98998  0.60978  0.69613  1.0000
  O   O3        1.0  0.65820  0.54349  0.31692  1.0000
  O   O4        1.0  0.34162  0.45719  0.68324  1.0000
  O   O5        1.0  0.65123  0.89736  0.69578  1.0000
  O   O6        1.0  0.34901  0.10289  0.30383  1.0000
  O   O7        1.0  0.35633  0.81418  0.65571  1.0000
  O   O8        1.0  0.64380  0.18564  0.34445  1.0000
  O   O9        1.0  0.96788  0.10263  0.55638  1.0000
  O   O10       1.0  0.03384  0.89662  0.44377  1.0000
  O   O11       1.0  0.80244  0.33463  0.57717  1.0000
  O   O12       1.0  0.19637  0.66455  0.42232  1.0000
  O   O13       1.0  0.66004  0.67632  0.51909  1.0000
  O   O14       1.0  0.33947  0.32377  0.48097  1.0000
