data_image0
_chemical_formula_structural       Cu2H26C26N8O8
_chemical_formula_sum              "Cu2 H26 C26 N8 O8"
_cell_length_a       8.77349
_cell_length_b       8.82277
_cell_length_c       10.2325
_cell_angle_alpha    69.6322
_cell_angle_beta     84.4141
_cell_angle_gamma    77.5883

_space_group_name_H-M_alt    "P 1"
_space_group_IT_number       1

loop_
  _space_group_symop_operation_xyz
  'x, y, z'

loop_
  _atom_site_type_symbol
  _atom_site_label
  _atom_site_symmetry_multiplicity
  _atom_site_fract_x
  _atom_site_fract_y
  _atom_site_fract_z
  _atom_site_occupancy
  Cu  Cu1       1.0  0.00000  0.50000  0.00000  1.0000
  Cu  Cu2       1.0  0.50000  0.50000  0.50000  1.0000
  H   H1        1.0  0.36436  0.47942  0.90854  1.0000
  H   H2        1.0  0.63564  0.52058  0.09146  1.0000
  H   H3        1.0  0.55992  0.60206  0.73685  1.0000
  H   H4        1.0  0.44008  0.39795  0.26314  1.0000
  H   H5        1.0  0.59330  0.75929  0.79662  1.0000
  H   H6        1.0  0.40669  0.24071  0.20338  1.0000
  H   H7        1.0  0.51049  0.81294  0.62883  1.0000
  H   H8        1.0  0.48952  0.18706  0.37117  1.0000
  H   H9        1.0  0.26821  0.99554  0.71830  1.0000
  H   H10       1.0  0.73179  0.00446  0.28169  1.0000
  H   H11       1.0  0.99780  0.89203  0.85926  1.0000
  H   H12       1.0  0.00220  0.10797  0.14073  1.0000
  H   H13       1.0  0.31794  0.01449  0.19802  1.0000
  H   H14       1.0  0.68206  0.98551  0.80199  1.0000
  H   H15       1.0  0.18632  0.55346  0.68102  1.0000
  H   H16       1.0  0.81368  0.44655  0.31898  1.0000
  H   H17       1.0  0.89082  0.64047  0.69448  1.0000
  H   H18       1.0  0.10917  0.35953  0.30552  1.0000
  H   H19       1.0  0.78567  0.71259  0.53513  1.0000
  H   H20       1.0  0.21433  0.28741  0.46486  1.0000
  H   H21       1.0  0.86724  0.85179  0.58616  1.0000
  H   H22       1.0  0.13276  0.14821  0.41384  1.0000
  H   H23       1.0  0.94964  0.77904  0.29929  1.0000
  H   H24       1.0  0.05036  0.22097  0.70071  1.0000
  H   H25       1.0  0.26422  0.68033  0.24546  1.0000
  H   H26       1.0  0.73578  0.31966  0.75454  1.0000
  C   C1        1.0  0.29837  0.60415  0.88048  1.0000
  C   C2        1.0  0.70163  0.39584  0.11952  1.0000
  C   C3        1.0  0.51556  0.72796  0.73659  1.0000
  C   C4        1.0  0.48444  0.27204  0.26341  1.0000
  C   C5        1.0  0.24321  0.87483  0.77864  1.0000
  C   C6        1.0  0.75678  0.12518  0.22136  1.0000
  C   C7        1.0  0.11297  0.82146  0.84992  1.0000
  C   C8        1.0  0.88702  0.17854  0.15007  1.0000
  C   C9        1.0  0.21824  0.25252  0.95668  1.0000
  C   C10       1.0  0.78176  0.74748  0.04332  1.0000
  C   C11       1.0  0.36362  0.12215  0.97797  1.0000
  C   C12       1.0  0.63638  0.87784  0.02204  1.0000
  C   C13       1.0  0.46585  0.11326  0.86504  1.0000
  C   C14       1.0  0.53415  0.88674  0.13496  1.0000
  C   C15       1.0  0.39891  0.00872  0.11122  1.0000
  C   C16       1.0  0.60109  0.99127  0.88879  1.0000
  C   C17       1.0  0.44193  0.23243  0.71818  1.0000
  C   C18       1.0  0.55807  0.76757  0.28182  1.0000
  C   C19       1.0  0.16885  0.60728  0.56972  1.0000
  C   C20       1.0  0.83115  0.39272  0.43029  1.0000
  C   C21       1.0  0.88411  0.72457  0.58661  1.0000
  C   C22       1.0  0.11589  0.27544  0.41339  1.0000
  C   C23       1.0  0.04734  0.72657  0.36886  1.0000
  C   C24       1.0  0.95266  0.27344  0.63114  1.0000
  C   C25       1.0  0.20248  0.67301  0.34365  1.0000
  C   C26       1.0  0.79752  0.32699  0.65635  1.0000
  N   N1        1.0  0.14843  0.65171  0.91282  1.0000
  N   N2        1.0  0.85158  0.34829  0.08717  1.0000
  N   N3        1.0  0.35849  0.73543  0.79859  1.0000
  N   N4        1.0  0.64151  0.26456  0.20141  1.0000
  N   N5        1.0  0.27725  0.59887  0.46990  1.0000
  N   N6        1.0  0.72275  0.40113  0.53011  1.0000
  N   N7        1.0  0.02855  0.68475  0.51187  1.0000
  N   N8        1.0  0.97145  0.31525  0.48813  1.0000
  O   O1        1.0  0.17947  0.30962  0.05900  1.0000
  O   O2        1.0  0.82053  0.69038  0.94101  1.0000
  O   O3        1.0  0.14546  0.30258  0.84571  1.0000
  O   O4        1.0  0.85454  0.69741  0.15429  1.0000
  O   O5        1.0  0.45901  0.38028  0.70177  1.0000
  O   O6        1.0  0.54100  0.61972  0.29823  1.0000
  O   O7        1.0  0.42128  0.18170  0.62271  1.0000
  O   O8        1.0  0.57872  0.81831  0.37730  1.0000
