data_image0
_chemical_formula_structural       K4H32C28N4O12
_chemical_formula_sum              "K4 H32 C28 N4 O12"
_cell_length_a       7.41881
_cell_length_b       7.53296
_cell_length_c       14.6843
_cell_angle_alpha    90
_cell_angle_beta     97.2004
_cell_angle_gamma    89.9999

_space_group_name_H-M_alt    "P 1"
_space_group_IT_number       1

loop_
  _space_group_symop_operation_xyz
  'x, y, z'

loop_
  _atom_site_type_symbol
  _atom_site_label
  _atom_site_symmetry_multiplicity
  _atom_site_fract_x
  _atom_site_fract_y
  _atom_site_fract_z
  _atom_site_occupancy
  K   K1        1.0  0.56845  0.24498  0.51893  1.0000
  K   K2        1.0  0.06843  0.25504  0.51893  1.0000
  K   K3        1.0  0.43155  0.75504  0.48107  1.0000
  K   K4        1.0  0.93156  0.74496  0.48107  1.0000
  H   H1        1.0  0.56718  0.75102  0.75508  1.0000
  H   H2        1.0  0.06720  0.74899  0.75508  1.0000
  H   H3        1.0  0.43281  0.24898  0.24492  1.0000
  H   H4        1.0  0.93281  0.25101  0.24492  1.0000
  H   H5        1.0  0.93899  0.20153  0.93809  1.0000
  H   H6        1.0  0.43899  0.29847  0.93809  1.0000
  H   H7        1.0  0.06101  0.79846  0.06191  1.0000
  H   H8        1.0  0.56101  0.70153  0.06191  1.0000
  H   H9        1.0  0.78687  0.56010  0.63860  1.0000
  H   H10       1.0  0.28687  0.93991  0.63861  1.0000
  H   H11       1.0  0.21313  0.43990  0.36140  1.0000
  H   H12       1.0  0.71314  0.06010  0.36139  1.0000
  H   H13       1.0  0.52099  0.79825  0.91785  1.0000
  H   H14       1.0  0.02100  0.70177  0.91785  1.0000
  H   H15       1.0  0.47900  0.20176  0.08215  1.0000
  H   H16       1.0  0.97900  0.29824  0.08215  1.0000
  H   H17       1.0  0.71466  0.02613  0.01108  1.0000
  H   H18       1.0  0.21466  0.47388  0.01109  1.0000
  H   H19       1.0  0.28534  0.97387  0.98892  1.0000
  H   H20       1.0  0.78534  0.52612  0.98892  1.0000
  H   H21       1.0  0.03715  0.13857  0.70660  1.0000
  H   H22       1.0  0.53716  0.36143  0.70660  1.0000
  H   H23       1.0  0.96284  0.86143  0.29340  1.0000
  H   H24       1.0  0.46285  0.63857  0.29340  1.0000
  H   H25       1.0  0.10117  0.24183  0.81074  1.0000
  H   H26       1.0  0.60117  0.25817  0.81074  1.0000
  H   H27       1.0  0.89883  0.75816  0.18927  1.0000
  H   H28       1.0  0.39883  0.74183  0.18927  1.0000
  H   H29       1.0  0.87981  0.38523  0.68622  1.0000
  H   H30       1.0  0.37981  0.11476  0.68623  1.0000
  H   H31       1.0  0.12019  0.61477  0.31378  1.0000
  H   H32       1.0  0.62019  0.88524  0.31377  1.0000
  C   C1        1.0  0.77200  0.94879  0.75313  1.0000
  C   C2        1.0  0.27200  0.55121  0.75313  1.0000
  C   C3        1.0  0.22800  0.05121  0.24687  1.0000
  C   C4        1.0  0.72800  0.44879  0.24687  1.0000
  C   C5        1.0  0.78339  0.91384  0.65322  1.0000
  C   C6        1.0  0.28339  0.58616  0.65322  1.0000
  C   C7        1.0  0.21661  0.08616  0.34678  1.0000
  C   C8        1.0  0.71661  0.41384  0.34678  1.0000
  C   C9        1.0  0.64706  0.84984  0.79637  1.0000
  C   C10       1.0  0.14706  0.65017  0.79637  1.0000
  C   C11       1.0  0.35294  0.15016  0.20363  1.0000
  C   C12       1.0  0.85294  0.34983  0.20362  1.0000
  C   C13       1.0  0.87868  0.07938  0.80496  1.0000
  C   C14       1.0  0.37868  0.42062  0.80496  1.0000
  C   C15       1.0  0.12132  0.92061  0.19504  1.0000
  C   C16       1.0  0.62132  0.57938  0.19504  1.0000
  C   C17       1.0  0.85524  0.10295  0.89818  1.0000
  C   C18       1.0  0.35524  0.39705  0.89818  1.0000
  C   C19       1.0  0.14476  0.89704  0.10182  1.0000
  C   C20       1.0  0.64476  0.60295  0.10182  1.0000
  C   C21       1.0  0.72890  0.00358  0.93889  1.0000
  C   C22       1.0  0.22890  0.49642  0.93889  1.0000
  C   C23       1.0  0.27110  0.99641  0.06111  1.0000
  C   C24       1.0  0.77110  0.50358  0.06111  1.0000
  C   C25       1.0  0.62215  0.87619  0.88770  1.0000
  C   C26       1.0  0.12216  0.62381  0.88770  1.0000
  C   C27       1.0  0.37784  0.12380  0.11230  1.0000
  C   C28       1.0  0.87784  0.37618  0.11230  1.0000
  N   N1        1.0  0.99974  0.18720  0.76634  1.0000
  N   N2        1.0  0.49974  0.31280  0.76634  1.0000
  N   N3        1.0  0.00026  0.81279  0.23366  1.0000
  N   N4        1.0  0.50026  0.68720  0.23366  1.0000
  O   O1        1.0  0.86195  0.02689  0.60695  1.0000
  O   O2        1.0  0.36196  0.47311  0.60695  1.0000
  O   O3        1.0  0.13805  0.97311  0.39305  1.0000
  O   O4        1.0  0.63805  0.52689  0.39305  1.0000
  O   O5        1.0  0.70960  0.77168  0.61846  1.0000
  O   O6        1.0  0.20961  0.72832  0.61846  1.0000
  O   O7        1.0  0.29040  0.22831  0.38154  1.0000
  O   O8        1.0  0.79040  0.27169  0.38154  1.0000
  O   O9        1.0  0.82607  0.43650  0.62735  1.0000
  O   O10       1.0  0.32607  0.06351  0.62735  1.0000
  O   O11       1.0  0.17393  0.56351  0.37265  1.0000
  O   O12       1.0  0.67394  0.93649  0.37264  1.0000
