data_image0
_chemical_formula_structural       Na4H28C28N4O10
_chemical_formula_sum              "Na4 H28 C28 N4 O10"
_cell_length_a       5.6472
_cell_length_b       8.02019
_cell_length_c       15.4547
_cell_angle_alpha    103.495
_cell_angle_beta     89.9993
_cell_angle_gamma    90.002

_space_group_name_H-M_alt    "P 1"
_space_group_IT_number       1

loop_
  _space_group_symop_operation_xyz
  'x, y, z'

loop_
  _atom_site_type_symbol
  _atom_site_label
  _atom_site_symmetry_multiplicity
  _atom_site_fract_x
  _atom_site_fract_y
  _atom_site_fract_z
  _atom_site_occupancy
  Na  Na1       1.0  0.90379  0.66638  0.57391  1.0000
  Na  Na2       1.0  0.09622  0.16638  0.57391  1.0000
  Na  Na3       1.0  0.64424  0.06317  0.69471  1.0000
  Na  Na4       1.0  0.35575  0.56317  0.69471  1.0000
  H   H1        1.0  0.12076  0.71823  0.91689  1.0000
  H   H2        1.0  0.87921  0.21819  0.91687  1.0000
  H   H3        1.0  0.43678  0.87279  0.78002  1.0000
  H   H4        1.0  0.56324  0.37280  0.78002  1.0000
  H   H5        1.0  0.72090  0.05695  0.12268  1.0000
  H   H6        1.0  0.27906  0.55691  0.12268  1.0000
  H   H7        1.0  0.07535  0.86796  0.07598  1.0000
  H   H8        1.0  0.92462  0.36791  0.07597  1.0000
  H   H9        1.0  0.42548  0.09510  0.01036  1.0000
  H   H10       1.0  0.57451  0.59506  0.01037  1.0000
  H   H11       1.0  0.86513  0.43636  0.68915  1.0000
  H   H12       1.0  0.13489  0.93636  0.68914  1.0000
  H   H13       1.0  0.05194  0.61286  0.24911  1.0000
  H   H14       1.0  0.94807  0.11288  0.24910  1.0000
  H   H15       1.0  0.76132  0.67305  0.14069  1.0000
  H   H16       1.0  0.23872  0.17307  0.14068  1.0000
  H   H17       1.0  0.10929  0.82669  0.46617  1.0000
  H   H18       1.0  0.89073  0.32669  0.46616  1.0000
  H   H19       1.0  0.27424  0.99637  0.86613  1.0000
  H   H20       1.0  0.72576  0.49636  0.86614  1.0000
  H   H21       1.0  0.69903  0.38568  0.60402  1.0000
  H   H22       1.0  0.30098  0.88567  0.60402  1.0000
  H   H23       1.0  0.40802  0.85878  0.19433  1.0000
  H   H24       1.0  0.59201  0.35880  0.19433  1.0000
  H   H25       1.0  0.18203  0.65584  0.38637  1.0000
  H   H26       1.0  0.81797  0.15585  0.38636  1.0000
  H   H27       1.0  0.34885  0.96972  0.35704  1.0000
  H   H28       1.0  0.65116  0.46973  0.35704  1.0000
  C   C1        1.0  0.60461  0.92948  0.89994  1.0000
  C   C2        1.0  0.39536  0.42948  0.89993  1.0000
  C   C3        1.0  0.87263  0.76190  0.36431  1.0000
  C   C4        1.0  0.12738  0.26191  0.36430  1.0000
  C   C5        1.0  0.66751  0.86139  0.39536  1.0000
  C   C6        1.0  0.33248  0.36140  0.39536  1.0000
  C   C7        1.0  0.80576  0.82270  0.87310  1.0000
  C   C8        1.0  0.19422  0.32268  0.87309  1.0000
  C   C9        1.0  0.50324  0.89192  0.33238  1.0000
  C   C10       1.0  0.49677  0.39194  0.33238  1.0000
  C   C11       1.0  0.89655  0.69183  0.27216  1.0000
  C   C12       1.0  0.10345  0.19184  0.27216  1.0000
  C   C13       1.0  0.57985  0.01307  0.99073  1.0000
  C   C14       1.0  0.42012  0.51307  0.99072  1.0000
  C   C15       1.0  0.73215  0.72489  0.21159  1.0000
  C   C16       1.0  0.26787  0.22492  0.21159  1.0000
  C   C17       1.0  0.83875  0.72258  0.77967  1.0000
  C   C18       1.0  0.16125  0.22258  0.77966  1.0000
  C   C19       1.0  0.97087  0.80328  0.93818  1.0000
  C   C20       1.0  0.02910  0.30326  0.93816  1.0000
  C   C21       1.0  0.53466  0.82794  0.24144  1.0000
  C   C22       1.0  0.46536  0.32796  0.24144  1.0000
  C   C23       1.0  0.94493  0.88667  0.02716  1.0000
  C   C24       1.0  0.05505  0.38665  0.02715  1.0000
  C   C25       1.0  0.74680  0.99206  0.05305  1.0000
  C   C26       1.0  0.25317  0.49202  0.05304  1.0000
  C   C27       1.0  0.61700  0.93071  0.49220  1.0000
  C   C28       1.0  0.38300  0.43072  0.49220  1.0000
  N   N1        1.0  0.43574  0.95614  0.84083  1.0000
  N   N2        1.0  0.56427  0.45613  0.84083  1.0000
  N   N3        1.0  0.04491  0.72271  0.42092  1.0000
  N   N4        1.0  0.95509  0.22271  0.42091  1.0000
  O   O1        1.0  0.70281  0.75104  0.71777  1.0000
  O   O2        1.0  0.29721  0.25106  0.71776  1.0000
  O   O3        1.0  0.78684  0.94241  0.54807  1.0000
  O   O4        1.0  0.21313  0.44242  0.54807  1.0000
  O   O5        1.0  0.99733  0.60549  0.76357  1.0000
  O   O6        1.0  0.00268  0.10549  0.76356  1.0000
  O   O7        1.0  0.40357  0.97308  0.51628  1.0000
  O   O8        1.0  0.59643  0.47307  0.51629  1.0000
  O   O9        1.0  0.77598  0.33832  0.65088  1.0000
  O   O10       1.0  0.22404  0.83832  0.65088  1.0000
