data_image0
_chemical_formula_structural       U2H36C28N4O16
_chemical_formula_sum              "U2 H36 C28 N4 O16"
_cell_length_a       6.44193
_cell_length_b       9.63902
_cell_length_c       14.1677
_cell_angle_alpha    90.0003
_cell_angle_beta     97.685
_cell_angle_gamma    90.0001

_space_group_name_H-M_alt    "P 1"
_space_group_IT_number       1

loop_
  _space_group_symop_operation_xyz
  'x, y, z'

loop_
  _atom_site_type_symbol
  _atom_site_label
  _atom_site_symmetry_multiplicity
  _atom_site_fract_x
  _atom_site_fract_y
  _atom_site_fract_z
  _atom_site_occupancy
  U   U1        1.0  0.00000  0.00000  0.50000  1.0000
  U   U2        1.0  0.50000  0.50000  0.99999  1.0000
  H   H1        1.0  0.47673  0.01782  0.36978  1.0000
  H   H2        1.0  0.02327  0.51782  0.13021  1.0000
  H   H3        1.0  0.52326  0.98218  0.63021  1.0000
  H   H4        1.0  0.97673  0.48218  0.86978  1.0000
  H   H5        1.0  0.15759  0.49578  0.56275  1.0000
  H   H6        1.0  0.34240  0.99579  0.93725  1.0000
  H   H7        1.0  0.84241  0.50422  0.43726  1.0000
  H   H8        1.0  0.65759  0.00422  0.06275  1.0000
  H   H9        1.0  0.62370  0.71995  0.43335  1.0000
  H   H10       1.0  0.87629  0.21995  0.06665  1.0000
  H   H11       1.0  0.37630  0.28005  0.56665  1.0000
  H   H12       1.0  0.12370  0.78005  0.93335  1.0000
  H   H13       1.0  0.23449  0.32964  0.20258  1.0000
  H   H14       1.0  0.26552  0.82963  0.29743  1.0000
  H   H15       1.0  0.76552  0.67037  0.79743  1.0000
  H   H16       1.0  0.73449  0.17035  0.70258  1.0000
  H   H17       1.0  0.40183  0.42090  0.29225  1.0000
  H   H18       1.0  0.09818  0.92089  0.20776  1.0000
  H   H19       1.0  0.59818  0.57911  0.70776  1.0000
  H   H20       1.0  0.90183  0.07910  0.79225  1.0000
  H   H21       1.0  0.17674  0.33031  0.32356  1.0000
  H   H22       1.0  0.32327  0.83030  0.17645  1.0000
  H   H23       1.0  0.82327  0.66970  0.67644  1.0000
  H   H24       1.0  0.67674  0.16969  0.82356  1.0000
  H   H25       1.0  0.72414  0.27861  0.27617  1.0000
  H   H26       1.0  0.77586  0.77861  0.22383  1.0000
  H   H27       1.0  0.27587  0.72139  0.72383  1.0000
  H   H28       1.0  0.22414  0.22138  0.77617  1.0000
  H   H29       1.0  0.57967  0.19342  0.17723  1.0000
  H   H30       1.0  0.92033  0.69341  0.32277  1.0000
  H   H31       1.0  0.42034  0.80658  0.82277  1.0000
  H   H32       1.0  0.07967  0.30657  0.67723  1.0000
  H   H33       1.0  0.69765  0.09428  0.27808  1.0000
  H   H34       1.0  0.80234  0.59428  0.22192  1.0000
  H   H35       1.0  0.30234  0.90572  0.72192  1.0000
  H   H36       1.0  0.19766  0.40571  0.77807  1.0000
  C   C1        1.0  0.36761  0.10523  0.35485  1.0000
  C   C2        1.0  0.13239  0.60523  0.14514  1.0000
  C   C3        1.0  0.63238  0.89477  0.64514  1.0000
  C   C4        1.0  0.86762  0.39477  0.85485  1.0000
  C   C5        1.0  0.24671  0.74696  0.49657  1.0000
  C   C6        1.0  0.25329  0.24697  0.00342  1.0000
  C   C7        1.0  0.75330  0.25304  0.50343  1.0000
  C   C8        1.0  0.74670  0.75304  0.99657  1.0000
  C   C9        1.0  0.37727  0.61949  0.49736  1.0000
  C   C10       1.0  0.12272  0.11950  0.00264  1.0000
  C   C11       1.0  0.62273  0.38051  0.50265  1.0000
  C   C12       1.0  0.87727  0.88051  0.99736  1.0000
  C   C13       1.0  0.30817  0.49630  0.53581  1.0000
  C   C14       1.0  0.19183  0.99631  0.96419  1.0000
  C   C15       1.0  0.69184  0.50370  0.46420  1.0000
  C   C16       1.0  0.80816  0.00370  0.03580  1.0000
  C   C17       1.0  0.56996  0.62310  0.46147  1.0000
  C   C18       1.0  0.93003  0.12310  0.03853  1.0000
  C   C19       1.0  0.43005  0.37690  0.53854  1.0000
  C   C20       1.0  0.06996  0.87690  0.96147  1.0000
  C   C21       1.0  0.30136  0.32908  0.27809  1.0000
  C   C22       1.0  0.19864  0.82908  0.22192  1.0000
  C   C23       1.0  0.69865  0.67093  0.72192  1.0000
  C   C24       1.0  0.80136  0.17091  0.77809  1.0000
  C   C25       1.0  0.61839  0.19140  0.25509  1.0000
  C   C26       1.0  0.88161  0.69140  0.24491  1.0000
  C   C27       1.0  0.38161  0.80860  0.74491  1.0000
  C   C28       1.0  0.11839  0.30859  0.75509  1.0000
  N   N1        1.0  0.42782  0.20483  0.29932  1.0000
  N   N2        1.0  0.07218  0.70483  0.20068  1.0000
  N   N3        1.0  0.57218  0.79517  0.70068  1.0000
  N   N4        1.0  0.92782  0.29517  0.79932  1.0000
  O   O1        1.0  0.17370  0.06127  0.60332  1.0000
  O   O2        1.0  0.32629  0.56128  0.89668  1.0000
  O   O3        1.0  0.82629  0.93872  0.39668  1.0000
  O   O4        1.0  0.67370  0.43873  0.10331  1.0000
  O   O5        1.0  0.07572  0.74571  0.53276  1.0000
  O   O6        1.0  0.42427  0.24571  0.96724  1.0000
  O   O7        1.0  0.92429  0.25430  0.46724  1.0000
  O   O8        1.0  0.57571  0.75430  0.03275  1.0000
  O   O9        1.0  0.30540  0.85985  0.46034  1.0000
  O   O10       1.0  0.19460  0.35986  0.03966  1.0000
  O   O11       1.0  0.69460  0.14015  0.53966  1.0000
  O   O12       1.0  0.80540  0.64014  0.96034  1.0000
  O   O13       1.0  0.19687  0.11033  0.38888  1.0000
  O   O14       1.0  0.30312  0.61033  0.11111  1.0000
  O   O15       1.0  0.80311  0.88967  0.61111  1.0000
  O   O16       1.0  0.69688  0.38968  0.88888  1.0000
