data_image0
_chemical_formula_structural       Li4H28C28N4O10
_chemical_formula_sum              "Li4 H28 C28 N4 O10"
_cell_length_a       5.2062
_cell_length_b       8.90722
_cell_length_c       15.3046
_cell_angle_alpha    74.6908
_cell_angle_beta     87.5294
_cell_angle_gamma    85.13

_space_group_name_H-M_alt    "P 1"
_space_group_IT_number       1

loop_
  _space_group_symop_operation_xyz
  'x, y, z'

loop_
  _atom_site_type_symbol
  _atom_site_label
  _atom_site_symmetry_multiplicity
  _atom_site_fract_x
  _atom_site_fract_y
  _atom_site_fract_z
  _atom_site_occupancy
  Li  Li1       1.0  0.40422  0.88344  0.45477  1.0000
  Li  Li2       1.0  0.59575  0.11655  0.54523  1.0000
  Li  Li3       1.0  0.95273  0.77709  0.53701  1.0000
  Li  Li4       1.0  0.04721  0.22290  0.46299  1.0000
  H   H1        1.0  0.08341  0.76989  0.01304  1.0000
  H   H2        1.0  0.91662  0.23011  0.98696  1.0000
  H   H3        1.0  0.18535  0.08583  0.28557  1.0000
  H   H4        1.0  0.81465  0.91417  0.71443  1.0000
  H   H5        1.0  0.63360  0.95066  0.21074  1.0000
  H   H6        1.0  0.36638  0.04937  0.78924  1.0000
  H   H7        1.0  0.39638  0.63768  0.13156  1.0000
  H   H8        1.0  0.60362  0.36231  0.86845  1.0000
  H   H9        1.0  0.43035  0.30893  0.01344  1.0000
  H   H10       1.0  0.56964  0.69106  0.98656  1.0000
  H   H11       1.0  0.69954  0.93291  0.05206  1.0000
  H   H12       1.0  0.30047  0.06710  0.94792  1.0000
  H   H13       1.0  0.75410  0.44084  0.07416  1.0000
  H   H14       1.0  0.24589  0.55916  0.92584  1.0000
  H   H15       1.0  0.13721  0.13149  0.11968  1.0000
  H   H16       1.0  0.86278  0.86851  0.88032  1.0000
  H   H17       1.0  0.53510  0.59186  0.27402  1.0000
  H   H18       1.0  0.46481  0.40812  0.72601  1.0000
  H   H19       1.0  0.44816  0.71377  0.33826  1.0000
  H   H20       1.0  0.55175  0.28622  0.66175  1.0000
  H   H21       1.0  0.86775  0.38223  0.31197  1.0000
  H   H22       1.0  0.13223  0.61775  0.68803  1.0000
  H   H23       1.0  0.95802  0.47734  0.20245  1.0000
  H   H24       1.0  0.04198  0.52266  0.79755  1.0000
  H   H25       1.0  0.76284  0.48973  0.61482  1.0000
  H   H26       1.0  0.23698  0.51032  0.38517  1.0000
  H   H27       1.0  0.82565  0.53434  0.50906  1.0000
  H   H28       1.0  0.17564  0.46527  0.49100  1.0000
  C   C1        1.0  0.19931  0.72262  0.23753  1.0000
  C   C2        1.0  0.80063  0.27738  0.76248  1.0000
  C   C3        1.0  0.91462  0.82155  0.35510  1.0000
  C   C4        1.0  0.08532  0.17850  0.64488  1.0000
  C   C5        1.0  0.05104  0.78117  0.08199  1.0000
  C   C6        1.0  0.94897  0.21884  0.91800  1.0000
  C   C7        1.0  0.97844  0.81047  0.26023  1.0000
  C   C8        1.0  0.02151  0.18954  0.73976  1.0000
  C   C9        1.0  0.30723  0.16437  0.23821  1.0000
  C   C10       1.0  0.69275  0.83564  0.76179  1.0000
  C   C11       1.0  0.52307  0.18918  0.37451  1.0000
  C   C12       1.0  0.47689  0.81084  0.62549  1.0000
  C   C13       1.0  0.49402  0.23426  0.27462  1.0000
  C   C14       1.0  0.50595  0.76574  0.72537  1.0000
  C   C15       1.0  0.80204  0.88351  0.19225  1.0000
  C   C16       1.0  0.19793  0.11651  0.80773  1.0000
  C   C17       1.0  0.22816  0.70730  0.14828  1.0000
  C   C18       1.0  0.77183  0.29271  0.85173  1.0000
  C   C19       1.0  0.44467  0.28945  0.08653  1.0000
  C   C20       1.0  0.55532  0.71056  0.91347  1.0000
  C   C21       1.0  0.83734  0.87193  0.10356  1.0000
  C   C22       1.0  0.16267  0.12808  0.89643  1.0000
  C   C23       1.0  0.62724  0.36317  0.12029  1.0000
  C   C24       1.0  0.37275  0.63682  0.87971  1.0000
  C   C25       1.0  0.65429  0.33948  0.21455  1.0000
  C   C26       1.0  0.34570  0.66052  0.78544  1.0000
  C   C27       1.0  0.28067  0.19014  0.14539  1.0000
  C   C28       1.0  0.71933  0.80986  0.85461  1.0000
  N   N1        1.0  0.38018  0.64295  0.30225  1.0000
  N   N2        1.0  0.61972  0.35702  0.69777  1.0000
  N   N3        1.0  0.81905  0.42524  0.24577  1.0000
  N   N4        1.0  0.18093  0.57477  0.75423  1.0000
  O   O1        1.0  0.09529  0.81825  0.40963  1.0000
  O   O2        1.0  0.90463  0.18179  0.59036  1.0000
  O   O3        1.0  0.34855  0.11192  0.42463  1.0000
  O   O4        1.0  0.65142  0.88810  0.57537  1.0000
  O   O5        1.0  0.67714  0.83137  0.37808  1.0000
  O   O6        1.0  0.32279  0.16875  0.62188  1.0000
  O   O7        1.0  0.71927  0.22451  0.40992  1.0000
  O   O8        1.0  0.28068  0.77555  0.59007  1.0000
  O   O9        1.0  0.85929  0.56359  0.56435  1.0000
  O   O10       1.0  0.14055  0.43650  0.43570  1.0000
