data_image0
_chemical_formula_structural       Zn2P4H22C6N2O14
_chemical_formula_sum              "Zn2 P4 H22 C6 N2 O14"
_cell_length_a       7.57248
_cell_length_b       7.90524
_cell_length_c       8.52608
_cell_angle_alpha    89.4338
_cell_angle_beta     64.4174
_cell_angle_gamma    82.1435

_space_group_name_H-M_alt    "P 1"
_space_group_IT_number       1

loop_
  _space_group_symop_operation_xyz
  'x, y, z'

loop_
  _atom_site_type_symbol
  _atom_site_label
  _atom_site_symmetry_multiplicity
  _atom_site_fract_x
  _atom_site_fract_y
  _atom_site_fract_z
  _atom_site_occupancy
  Zn  Zn1       1.0  0.57436  0.76702  0.36447  1.0000
  Zn  Zn2       1.0  0.42564  0.23298  0.63553  1.0000
  P   P1        1.0  0.51440  0.86135  0.75057  1.0000
  P   P2        1.0  0.48560  0.13864  0.24943  1.0000
  P   P3        1.0  0.97227  0.39010  0.77815  1.0000
  P   P4        1.0  0.02773  0.60990  0.22185  1.0000
  H   H1        1.0  0.92643  0.70292  0.59120  1.0000
  H   H2        1.0  0.07357  0.29708  0.40880  1.0000
  H   H3        1.0  0.17587  0.61398  0.68597  1.0000
  H   H4        1.0  0.82413  0.38602  0.31403  1.0000
  H   H5        1.0  0.99654  0.65267  0.90613  1.0000
  H   H6        1.0  0.00346  0.34733  0.09387  1.0000
  H   H7        1.0  0.64100  0.64430  0.88838  1.0000
  H   H8        1.0  0.35900  0.35570  0.11162  1.0000
  H   H9        1.0  0.66346  0.85047  0.95270  1.0000
  H   H10       1.0  0.33654  0.14953  0.04730  1.0000
  H   H11       1.0  0.13296  0.89106  0.59639  1.0000
  H   H12       1.0  0.86704  0.10894  0.40361  1.0000
  H   H13       1.0  0.88788  0.00703  0.66950  1.0000
  H   H14       1.0  0.11212  0.99297  0.33049  1.0000
  H   H15       1.0  0.98298  0.94437  0.82451  1.0000
  H   H16       1.0  0.01702  0.05564  0.17549  1.0000
  H   H17       1.0  0.44880  0.46964  0.35199  1.0000
  H   H18       1.0  0.55120  0.53035  0.64802  1.0000
  H   H19       1.0  0.28702  0.62458  0.34600  1.0000
  H   H20       1.0  0.71298  0.37542  0.65400  1.0000
  H   H21       1.0  0.74531  0.26741  0.00879  1.0000
  H   H22       1.0  0.25470  0.73259  0.99121  1.0000
  C   C1        1.0  0.01983  0.61175  0.77533  1.0000
  C   C2        1.0  0.98017  0.38825  0.22467  1.0000
  C   C3        1.0  0.68430  0.76886  0.84075  1.0000
  C   C4        1.0  0.31570  0.23114  0.15925  1.0000
  C   C5        1.0  0.98236  0.90919  0.70099  1.0000
  C   C6        1.0  0.01764  0.09081  0.29901  1.0000
  N   N1        1.0  0.90066  0.74393  0.71849  1.0000
  N   N2        1.0  0.09934  0.25607  0.28151  1.0000
  O   O1        1.0  0.42830  0.59394  0.32887  1.0000
  O   O2        1.0  0.57170  0.40605  0.67113  1.0000
  O   O3        1.0  0.31142  0.88002  0.90535  1.0000
  O   O4        1.0  0.68859  0.11998  0.09466  1.0000
  O   O5        1.0  0.53979  0.72855  0.60575  1.0000
  O   O6        1.0  0.46021  0.27145  0.39425  1.0000
  O   O7        1.0  0.57721  0.03024  0.66968  1.0000
  O   O8        1.0  0.42279  0.96975  0.33032  1.0000
  O   O9        1.0  0.94030  0.34671  0.61958  1.0000
  O   O10       1.0  0.05970  0.65330  0.38041  1.0000
  O   O11       1.0  0.14757  0.28155  0.79274  1.0000
  O   O12       1.0  0.85242  0.71845  0.20726  1.0000
  O   O13       1.0  0.78078  0.38785  0.95089  1.0000
  O   O14       1.0  0.21922  0.61215  0.04911  1.0000
