data_image0
_chemical_formula_structural       Li4H16C28O8
_chemical_formula_sum              "Li4 H16 C28 O8"
_cell_length_a       4.98838
_cell_length_b       8.45025
_cell_length_c       12.8249
_cell_angle_alpha    97.4767
_cell_angle_beta     90.0022
_cell_angle_gamma    90.0006

_space_group_name_H-M_alt    "P 1"
_space_group_IT_number       1

loop_
  _space_group_symop_operation_xyz
  'x, y, z'

loop_
  _atom_site_type_symbol
  _atom_site_label
  _atom_site_symmetry_multiplicity
  _atom_site_fract_x
  _atom_site_fract_y
  _atom_site_fract_z
  _atom_site_occupancy
  Li  Li1       1.0  0.59718  0.35258  0.49521  1.0000
  Li  Li2       1.0  0.09717  0.14742  0.50479  1.0000
  Li  Li3       1.0  0.40281  0.64741  0.50479  1.0000
  Li  Li4       1.0  0.90282  0.85258  0.49521  1.0000
  H   H1        1.0  0.39765  0.57841  0.27452  1.0000
  H   H2        1.0  0.89763  0.92158  0.72549  1.0000
  H   H3        1.0  0.60236  0.42158  0.72548  1.0000
  H   H4        1.0  0.10237  0.07842  0.27452  1.0000
  H   H5        1.0  0.36048  0.63344  0.09275  1.0000
  H   H6        1.0  0.86046  0.86657  0.90726  1.0000
  H   H7        1.0  0.63952  0.36656  0.90725  1.0000
  H   H8        1.0  0.13954  0.13343  0.09275  1.0000
  H   H9        1.0  0.65647  0.33289  0.05295  1.0000
  H   H10       1.0  0.15646  0.16712  0.94705  1.0000
  H   H11       1.0  0.34352  0.66713  0.94705  1.0000
  H   H12       1.0  0.84355  0.83288  0.05296  1.0000
  H   H13       1.0  0.69396  0.28355  0.23640  1.0000
  H   H14       1.0  0.19395  0.21644  0.76360  1.0000
  H   H15       1.0  0.30604  0.71644  0.76360  1.0000
  H   H16       1.0  0.80606  0.78357  0.23641  1.0000
  C   C1        1.0  0.09233  0.38707  0.37700  1.0000
  C   C2        1.0  0.59228  0.11294  0.62299  1.0000
  C   C3        1.0  0.90766  0.61293  0.62299  1.0000
  C   C4        1.0  0.40771  0.88706  0.37701  1.0000
  C   C5        1.0  0.04824  0.42827  0.26845  1.0000
  C   C6        1.0  0.54824  0.07170  0.73155  1.0000
  C   C7        1.0  0.95176  0.57172  0.73155  1.0000
  C   C8        1.0  0.45178  0.92830  0.26846  1.0000
  C   C9        1.0  0.23240  0.52748  0.22586  1.0000
  C   C10       1.0  0.73235  0.97252  0.77414  1.0000
  C   C11       1.0  0.76761  0.47252  0.77413  1.0000
  C   C12       1.0  0.26766  0.02747  0.22587  1.0000
  C   C13       1.0  0.21125  0.55653  0.12218  1.0000
  C   C14       1.0  0.71125  0.94346  0.87782  1.0000
  C   C15       1.0  0.78875  0.44347  0.87782  1.0000
  C   C16       1.0  0.28875  0.05654  0.12218  1.0000
  C   C17       1.0  0.00729  0.48640  0.05586  1.0000
  C   C18       1.0  0.50726  0.01361  0.94414  1.0000
  C   C19       1.0  0.99271  0.51361  0.94413  1.0000
  C   C20       1.0  0.49275  0.98639  0.05587  1.0000
  C   C21       1.0  0.82005  0.38902  0.10022  1.0000
  C   C22       1.0  0.32006  0.11096  0.89977  1.0000
  C   C23       1.0  0.17994  0.61098  0.89977  1.0000
  C   C24       1.0  0.67995  0.88904  0.10023  1.0000
  C   C25       1.0  0.83905  0.36091  0.20447  1.0000
  C   C26       1.0  0.33901  0.13909  0.79552  1.0000
  C   C27       1.0  0.16095  0.63909  0.79552  1.0000
  C   C28       1.0  0.66101  0.86091  0.20448  1.0000
  O   O1        1.0  0.30282  0.44168  0.42542  1.0000
  O   O2        1.0  0.80284  0.05832  0.57458  1.0000
  O   O3        1.0  0.69716  0.55831  0.57458  1.0000
  O   O4        1.0  0.19715  0.94169  0.42542  1.0000
  O   O5        1.0  0.92724  0.29396  0.41507  1.0000
  O   O6        1.0  0.42726  0.20602  0.58493  1.0000
  O   O7        1.0  0.07274  0.70604  0.58492  1.0000
  O   O8        1.0  0.57273  0.79397  0.41508  1.0000
