data_image0
_chemical_formula_structural       Co2H44C56N8O8
_chemical_formula_sum              "Co2 H44 C56 N8 O8"
_cell_length_a       8.76762
_cell_length_b       9.96247
_cell_length_c       14.5381
_cell_angle_alpha    72.8825
_cell_angle_beta     86.8568
_cell_angle_gamma    90.0006

_space_group_name_H-M_alt    "P 1"
_space_group_IT_number       1

loop_
  _space_group_symop_operation_xyz
  'x, y, z'

loop_
  _atom_site_type_symbol
  _atom_site_label
  _atom_site_symmetry_multiplicity
  _atom_site_fract_x
  _atom_site_fract_y
  _atom_site_fract_z
  _atom_site_occupancy
  Co  Co1       1.0  0.32100  0.73128  0.24850  1.0000
  Co  Co2       1.0  0.67900  0.26872  0.75150  1.0000
  H   H1        1.0  0.26298  0.57276  0.48604  1.0000
  H   H2        1.0  0.73703  0.42724  0.51396  1.0000
  H   H3        1.0  0.56063  0.90035  0.32418  1.0000
  H   H4        1.0  0.43936  0.09965  0.67582  1.0000
  H   H5        1.0  0.62161  0.83661  0.51830  1.0000
  H   H6        1.0  0.37839  0.16339  0.48170  1.0000
  H   H7        1.0  0.53773  0.57648  0.66073  1.0000
  H   H8        1.0  0.46227  0.42352  0.33927  1.0000
  H   H9        1.0  0.34731  0.52965  0.64940  1.0000
  H   H10       1.0  0.65270  0.47034  0.35060  1.0000
  H   H11       1.0  0.25697  0.86118  0.57412  1.0000
  H   H12       1.0  0.74303  0.13881  0.42588  1.0000
  H   H13       1.0  0.15598  0.00920  0.67173  1.0000
  H   H14       1.0  0.84402  0.99080  0.32827  1.0000
  H   H15       1.0  0.37068  0.74682  0.91949  1.0000
  H   H16       1.0  0.62931  0.25317  0.08051  1.0000
  H   H17       1.0  0.47636  0.59987  0.81914  1.0000
  H   H18       1.0  0.52364  0.40013  0.18086  1.0000
  H   H19       1.0  0.22187  0.92945  0.93933  1.0000
  H   H20       1.0  0.77813  0.07055  0.06067  1.0000
  H   H21       1.0  0.26137  0.08135  0.84077  1.0000
  H   H22       1.0  0.73863  0.91865  0.15923  1.0000
  H   H23       1.0  0.03792  0.21292  0.75008  1.0000
  H   H24       1.0  0.96208  0.78708  0.24992  1.0000
  H   H25       1.0  0.94006  0.82001  0.95888  1.0000
  H   H26       1.0  0.05994  0.17999  0.04112  1.0000
  H   H27       1.0  0.66836  0.95620  0.90148  1.0000
  H   H28       1.0  0.33164  0.04381  0.09852  1.0000
  H   H29       1.0  0.56870  0.62819  0.95146  1.0000
  H   H30       1.0  0.43130  0.37181  0.04854  1.0000
  H   H31       1.0  0.79339  0.51953  0.89817  1.0000
  H   H32       1.0  0.20661  0.48047  0.10183  1.0000
  H   H33       1.0  0.02530  0.55714  0.14524  1.0000
  H   H34       1.0  0.97468  0.44286  0.85477  1.0000
  H   H35       1.0  0.79406  0.66016  0.19829  1.0000
  H   H36       1.0  0.20592  0.33984  0.80172  1.0000
  H   H37       1.0  0.22580  0.26708  0.26894  1.0000
  H   H38       1.0  0.77420  0.73292  0.73105  1.0000
  H   H39       1.0  0.14926  0.02406  0.35425  1.0000
  H   H40       1.0  0.85075  0.97595  0.64575  1.0000
  H   H41       1.0  0.92993  0.16383  0.58363  1.0000
  H   H42       1.0  0.07009  0.83617  0.41637  1.0000
  H   H43       1.0  0.00513  0.40245  0.49770  1.0000
  H   H44       1.0  0.99488  0.59754  0.50230  1.0000
  C   C1        1.0  0.35243  0.65269  0.46644  1.0000
  C   C2        1.0  0.64756  0.34730  0.53356  1.0000
  C   C3        1.0  0.50771  0.82281  0.38634  1.0000
  C   C4        1.0  0.49229  0.17718  0.61366  1.0000
  C   C5        1.0  0.53967  0.79241  0.48165  1.0000
  C   C6        1.0  0.46033  0.20759  0.51835  1.0000
  C   C7        1.0  0.42709  0.61965  0.63550  1.0000
  C   C8        1.0  0.57292  0.38034  0.36450  1.0000
  C   C9        1.0  0.37159  0.71901  0.69061  1.0000
  C   C10       1.0  0.62841  0.28098  0.30939  1.0000
  C   C11       1.0  0.28238  0.83536  0.64975  1.0000
  C   C12       1.0  0.71762  0.16464  0.35025  1.0000
  C   C13       1.0  0.22525  0.91881  0.70520  1.0000
  C   C14       1.0  0.77475  0.08119  0.29480  1.0000
  C   C15       1.0  0.25616  0.88753  0.80260  1.0000
  C   C16       1.0  0.74384  0.11247  0.19739  1.0000
  C   C17       1.0  0.34668  0.77191  0.84334  1.0000
  C   C18       1.0  0.65332  0.22809  0.15666  1.0000
  C   C19       1.0  0.40507  0.68950  0.78741  1.0000
  C   C20       1.0  0.59493  0.31049  0.21259  1.0000
  C   C21       1.0  0.19991  0.97946  0.86330  1.0000
  C   C22       1.0  0.80009  0.02054  0.13669  1.0000
  C   C23       1.0  0.97394  0.12508  0.79875  1.0000
  C   C24       1.0  0.02605  0.87492  0.20125  1.0000
  C   C25       1.0  0.91866  0.92075  0.90751  1.0000
  C   C26       1.0  0.08134  0.07925  0.09249  1.0000
  C   C27       1.0  0.78562  0.98892  0.87816  1.0000
  C   C28       1.0  0.21439  0.01108  0.12185  1.0000
  C   C29       1.0  0.52536  0.71488  0.11003  1.0000
  C   C30       1.0  0.47463  0.28513  0.88997  1.0000
  C   C31       1.0  0.66768  0.65607  0.07658  1.0000
  C   C32       1.0  0.33231  0.34394  0.92342  1.0000
  C   C33       1.0  0.67042  0.61436  0.99253  1.0000
  C   C34       1.0  0.32957  0.38564  0.00747  1.0000
  C   C35       1.0  0.79878  0.55298  0.96286  1.0000
  C   C36       1.0  0.20121  0.44702  0.03714  1.0000
  C   C37       1.0  0.93104  0.53182  0.01600  1.0000
  C   C38       1.0  0.06895  0.46819  0.98400  1.0000
  C   C39       1.0  0.92675  0.57277  0.10112  1.0000
  C   C40       1.0  0.07323  0.42723  0.89888  1.0000
  C   C41       1.0  0.79743  0.63280  0.13100  1.0000
  C   C42       1.0  0.20255  0.36720  0.86900  1.0000
  C   C43       1.0  0.15644  0.50322  0.32515  1.0000
  C   C44       1.0  0.84356  0.49678  0.67485  1.0000
  C   C45       1.0  0.11583  0.35344  0.37511  1.0000
  C   C46       1.0  0.88417  0.64656  0.62489  1.0000
  C   C47       1.0  0.15935  0.24375  0.33752  1.0000
  C   C48       1.0  0.84066  0.75625  0.66248  1.0000
  C   C49       1.0  0.11575  0.10590  0.38675  1.0000
  C   C50       1.0  0.88427  0.89410  0.61325  1.0000
  C   C51       1.0  0.02821  0.07222  0.47531  1.0000
  C   C52       1.0  0.97181  0.92778  0.52469  1.0000
  C   C53       1.0  0.99354  0.18276  0.51444  1.0000
  C   C54       1.0  0.00648  0.81724  0.48556  1.0000
  C   C55       1.0  0.03511  0.32034  0.46491  1.0000
  C   C56       1.0  0.96490  0.67966  0.53509  1.0000
  N   N1        1.0  0.39050  0.73504  0.37760  1.0000
  N   N2        1.0  0.60950  0.26496  0.62240  1.0000
  N   N3        1.0  0.44070  0.68397  0.53130  1.0000
  N   N4        1.0  0.55930  0.31602  0.46870  1.0000
  N   N5        1.0  0.03644  0.00871  0.85712  1.0000
  N   N6        1.0  0.96357  0.99129  0.14288  1.0000
  N   N7        1.0  0.82158  0.11657  0.81014  1.0000
  N   N8        1.0  0.17842  0.88343  0.18986  1.0000
  O   O1        1.0  0.40609  0.72591  0.06491  1.0000
  O   O2        1.0  0.59390  0.27410  0.93509  1.0000
  O   O3        1.0  0.53150  0.74787  0.19040  1.0000
  O   O4        1.0  0.46849  0.25214  0.80960  1.0000
  O   O5        1.0  0.26891  0.53055  0.26031  1.0000
  O   O6        1.0  0.73109  0.46945  0.73969  1.0000
  O   O7        1.0  0.08750  0.60026  0.34896  1.0000
  O   O8        1.0  0.91250  0.39974  0.65104  1.0000
