data_image0
_chemical_formula_structural       Zn2H16C18N2O8
_chemical_formula_sum              "Zn2 H16 C18 N2 O8"
_cell_length_a       6.27622
_cell_length_b       7.8931
_cell_length_c       10.0237
_cell_angle_alpha    101.364
_cell_angle_beta     103.972
_cell_angle_gamma    104.742

_space_group_name_H-M_alt    "P 1"
_space_group_IT_number       1

loop_
  _space_group_symop_operation_xyz
  'x, y, z'

loop_
  _atom_site_type_symbol
  _atom_site_label
  _atom_site_symmetry_multiplicity
  _atom_site_fract_x
  _atom_site_fract_y
  _atom_site_fract_z
  _atom_site_occupancy
  Zn  Zn1       1.0  0.55048  0.57925  0.15263  1.0000
  Zn  Zn2       1.0  0.44952  0.42075  0.84737  1.0000
  H   H1        1.0  0.86476  0.85343  0.42056  1.0000
  H   H2        1.0  0.13524  0.14657  0.57944  1.0000
  H   H3        1.0  0.84750  0.99829  0.66413  1.0000
  H   H4        1.0  0.15250  0.00170  0.33586  1.0000
  H   H5        1.0  0.47724  0.88556  0.72195  1.0000
  H   H6        1.0  0.52276  0.11443  0.27805  1.0000
  H   H7        1.0  0.14322  0.64038  0.53651  1.0000
  H   H8        1.0  0.85677  0.35962  0.46348  1.0000
  H   H9        1.0  0.18499  0.51891  0.29572  1.0000
  H   H10       1.0  0.81501  0.48109  0.70427  1.0000
  H   H11       1.0  0.70981  0.02419  0.11090  1.0000
  H   H12       1.0  0.29020  0.97582  0.88911  1.0000
  H   H13       1.0  0.97769  0.19510  0.20751  1.0000
  H   H14       1.0  0.02232  0.80490  0.79249  1.0000
  H   H15       1.0  0.80588  0.01826  0.88327  1.0000
  H   H16       1.0  0.19412  0.98174  0.11673  1.0000
  C   C1        1.0  0.70911  0.81152  0.45202  1.0000
  C   C2        1.0  0.29089  0.18847  0.54798  1.0000
  C   C3        1.0  0.69847  0.88990  0.58630  1.0000
  C   C4        1.0  0.30153  0.11010  0.41370  1.0000
  C   C5        1.0  0.49262  0.82805  0.61799  1.0000
  C   C6        1.0  0.50738  0.17195  0.38201  1.0000
  C   C7        1.0  0.30532  0.69194  0.51431  1.0000
  C   C8        1.0  0.69468  0.30806  0.48569  1.0000
  C   C9        1.0  0.32787  0.62236  0.38152  1.0000
  C   C10       1.0  0.67212  0.37764  0.61847  1.0000
  C   C11       1.0  0.72952  0.28236  0.07431  1.0000
  C   C12       1.0  0.27049  0.71764  0.92569  1.0000
  C   C13       1.0  0.84352  0.13989  0.10313  1.0000
  C   C14       1.0  0.15649  0.86011  0.89688  1.0000
  C   C15       1.0  0.94429  0.07460  0.98570  1.0000
  C   C16       1.0  0.05571  0.92540  0.01430  1.0000
  C   C17       1.0  0.12740  0.23409  0.97135  1.0000
  C   C18       1.0  0.87261  0.76590  0.02865  1.0000
  N   N1        1.0  0.52783  0.68067  0.35154  1.0000
  N   N2        1.0  0.47216  0.31933  0.64845  1.0000
  O   O1        1.0  0.73680  0.40250  0.18239  1.0000
  O   O2        1.0  0.26321  0.59750  0.81762  1.0000
  O   O3        1.0  0.62882  0.26754  0.94412  1.0000
  O   O4        1.0  0.37119  0.73246  0.05589  1.0000
  O   O5        1.0  0.14905  0.23058  0.84771  1.0000
  O   O6        1.0  0.85095  0.76943  0.15229  1.0000
  O   O7        1.0  0.25114  0.35620  0.08667  1.0000
  O   O8        1.0  0.74886  0.64381  0.91334  1.0000
