data_image0
_chemical_formula_structural       Sn2H10C14N2O8
_chemical_formula_sum              "Sn2 H10 C14 N2 O8"
_cell_length_a       5.33766
_cell_length_b       8.39832
_cell_length_c       9.35696
_cell_angle_alpha    88.7847
_cell_angle_beta     88.5188
_cell_angle_gamma    86.367

_space_group_name_H-M_alt    "P 1"
_space_group_IT_number       1

loop_
  _space_group_symop_operation_xyz
  'x, y, z'

loop_
  _atom_site_type_symbol
  _atom_site_label
  _atom_site_symmetry_multiplicity
  _atom_site_fract_x
  _atom_site_fract_y
  _atom_site_fract_z
  _atom_site_occupancy
  Sn  Sn1       1.0  0.89803  0.73500  0.42239  1.0000
  Sn  Sn2       1.0  0.10200  0.26500  0.57762  1.0000
  H   H1        1.0  0.40278  0.61393  0.92027  1.0000
  H   H2        1.0  0.59718  0.38606  0.07970  1.0000
  H   H3        1.0  0.30285  0.62882  0.18410  1.0000
  H   H4        1.0  0.69716  0.37117  0.81588  1.0000
  H   H5        1.0  0.09980  0.74588  0.74956  1.0000
  H   H6        1.0  0.90013  0.25412  0.25043  1.0000
  H   H7        1.0  0.70763  0.88810  0.84616  1.0000
  H   H8        1.0  0.29233  0.11190  0.15385  1.0000
  H   H9        1.0  0.62900  0.88650  0.11350  1.0000
  H   H10       1.0  0.37100  0.11350  0.88652  1.0000
  C   C1        1.0  0.51747  0.46678  0.42319  1.0000
  C   C2        1.0  0.48258  0.53322  0.57682  1.0000
  C   C3        1.0  0.43185  0.97300  0.43339  1.0000
  C   C4        1.0  0.56815  0.02701  0.56663  1.0000
  C   C5        1.0  0.17419  0.68331  0.10551  1.0000
  C   C6        1.0  0.82581  0.31668  0.89447  1.0000
  C   C7        1.0  0.23034  0.67605  0.95955  1.0000
  C   C8        1.0  0.76963  0.32394  0.04044  1.0000
  C   C9        1.0  0.06126  0.75019  0.86427  1.0000
  C   C10       1.0  0.93869  0.24981  0.13572  1.0000
  C   C11       1.0  0.84209  0.82865  0.91812  1.0000
  C   C12       1.0  0.15788  0.17135  0.08188  1.0000
  C   C13       1.0  0.79859  0.82911  0.06538  1.0000
  C   C14       1.0  0.20140  0.17089  0.93462  1.0000
  N   N1        1.0  0.96150  0.75774  0.15747  1.0000
  N   N2        1.0  0.03850  0.24226  0.84253  1.0000
  O   O1        1.0  0.67372  0.53198  0.33898  1.0000
  O   O2        1.0  0.32639  0.46803  0.66099  1.0000
  O   O3        1.0  0.38856  0.35258  0.39054  1.0000
  O   O4        1.0  0.61147  0.64739  0.60944  1.0000
  O   O5        1.0  0.54935  0.86862  0.35441  1.0000
  O   O6        1.0  0.45065  0.13142  0.64563  1.0000
  O   O7        1.0  0.21527  0.03260  0.41038  1.0000
  O   O8        1.0  0.78477  0.96740  0.58967  1.0000
