data_image0
_chemical_formula_structural       Nd2H32C44N2O24
_chemical_formula_sum              "Nd2 H32 C44 N2 O24"
_cell_length_a       8.91297
_cell_length_b       10.944
_cell_length_c       12.4708
_cell_angle_alpha    98.7688
_cell_angle_beta     105.879
_cell_angle_gamma    94.7038

_space_group_name_H-M_alt    "P 1"
_space_group_IT_number       1

loop_
  _space_group_symop_operation_xyz
  'x, y, z'

loop_
  _atom_site_type_symbol
  _atom_site_label
  _atom_site_symmetry_multiplicity
  _atom_site_fract_x
  _atom_site_fract_y
  _atom_site_fract_z
  _atom_site_occupancy
  Nd  Nd1       1.0  0.25882  0.54463  0.97571  1.0000
  Nd  Nd2       1.0  0.74118  0.45537  0.02429  1.0000
  H   H1        1.0  0.21623  0.67069  0.72067  1.0000
  H   H2        1.0  0.78377  0.32931  0.27933  1.0000
  H   H3        1.0  0.14148  0.65025  0.17357  1.0000
  H   H4        1.0  0.85852  0.34975  0.82643  1.0000
  H   H5        1.0  0.32560  0.68346  0.22228  1.0000
  H   H6        1.0  0.67440  0.31654  0.77772  1.0000
  H   H7        1.0  0.40971  0.79273  0.95483  1.0000
  H   H8        1.0  0.59029  0.20727  0.04517  1.0000
  H   H9        1.0  0.55027  0.73828  0.04001  1.0000
  H   H10       1.0  0.44973  0.26172  0.95999  1.0000
  H   H11       1.0  0.37678  0.32056  0.64907  1.0000
  H   H12       1.0  0.62322  0.67944  0.35094  1.0000
  H   H13       1.0  0.53205  0.24584  0.52149  1.0000
  H   H14       1.0  0.46796  0.75416  0.47851  1.0000
  H   H15       1.0  0.76188  0.38541  0.50973  1.0000
  H   H16       1.0  0.23812  0.61459  0.49027  1.0000
  H   H17       1.0  0.82929  0.59986  0.62405  1.0000
  H   H18       1.0  0.17071  0.40014  0.37595  1.0000
  H   H19       1.0  0.47102  0.77173  0.66262  1.0000
  H   H20       1.0  0.52898  0.22827  0.33739  1.0000
  H   H21       1.0  0.53991  0.99448  0.75223  1.0000
  H   H22       1.0  0.46009  0.00552  0.24777  1.0000
  H   H23       1.0  0.79215  0.06690  0.90356  1.0000
  H   H24       1.0  0.20785  0.93310  0.09644  1.0000
  H   H25       1.0  0.97598  0.90997  0.96315  1.0000
  H   H26       1.0  0.02402  0.09003  0.03685  1.0000
  H   H27       1.0  0.87590  0.22228  0.64263  1.0000
  H   H28       1.0  0.12410  0.77772  0.35736  1.0000
  H   H29       1.0  0.93233  0.83235  0.58270  1.0000
  H   H30       1.0  0.06767  0.16765  0.41730  1.0000
  H   H31       1.0  0.26364  0.08383  0.86186  1.0000
  H   H32       1.0  0.73636  0.91616  0.13814  1.0000
  C   C1        1.0  0.43306  0.53091  0.79661  1.0000
  C   C2        1.0  0.56694  0.46909  0.20339  1.0000
  C   C3        1.0  0.51471  0.50246  0.70778  1.0000
  C   C4        1.0  0.48529  0.49754  0.29222  1.0000
  C   C5        1.0  0.47516  0.38205  0.64243  1.0000
  C   C6        1.0  0.52484  0.61795  0.35758  1.0000
  C   C7        1.0  0.56330  0.33992  0.57089  1.0000
  C   C8        1.0  0.43670  0.66008  0.42911  1.0000
  C   C9        1.0  0.69191  0.41802  0.56514  1.0000
  C   C10       1.0  0.30809  0.58198  0.43487  1.0000
  C   C11       1.0  0.72971  0.53836  0.62918  1.0000
  C   C12       1.0  0.27029  0.46164  0.37082  1.0000
  C   C13       1.0  0.64165  0.58288  0.70103  1.0000
  C   C14       1.0  0.35835  0.41712  0.29897  1.0000
  C   C15       1.0  0.68114  0.71401  0.76345  1.0000
  C   C16       1.0  0.31886  0.28599  0.23656  1.0000
  C   C17       1.0  0.58086  0.80218  0.72993  1.0000
  C   C18       1.0  0.41914  0.19782  0.27007  1.0000
  C   C19       1.0  0.62039  0.92808  0.77989  1.0000
  C   C20       1.0  0.37961  0.07192  0.22012  1.0000
  C   C21       1.0  0.76258  0.96847  0.86440  1.0000
  C   C22       1.0  0.23743  0.03153  0.13560  1.0000
  C   C23       1.0  0.86401  0.88175  0.89778  1.0000
  C   C24       1.0  0.13599  0.11825  0.10222  1.0000
  C   C25       1.0  0.82415  0.75520  0.84916  1.0000
  C   C26       1.0  0.17585  0.24480  0.15084  1.0000
  C   C27       1.0  0.93186  0.66578  0.89572  1.0000
  C   C28       1.0  0.06814  0.33422  0.10428  1.0000
  C   C29       1.0  0.13324  0.29587  0.82937  1.0000
  C   C30       1.0  0.86676  0.70413  0.17063  1.0000
  C   C31       1.0  0.07553  0.16746  0.76078  1.0000
  C   C32       1.0  0.92447  0.83254  0.23922  1.0000
  C   C33       1.0  0.94104  0.14621  0.66730  1.0000
  C   C34       1.0  0.05896  0.85379  0.33269  1.0000
  C   C35       1.0  0.89325  0.02539  0.60521  1.0000
  C   C36       1.0  0.10675  0.97461  0.39479  1.0000
  C   C37       1.0  0.97352  0.92526  0.63312  1.0000
  C   C38       1.0  0.02648  0.07473  0.36688  1.0000
  C   C39       1.0  0.10784  0.94788  0.72636  1.0000
  C   C40       1.0  0.89216  0.05212  0.27364  1.0000
  C   C41       1.0  0.15837  0.06841  0.78958  1.0000
  C   C42       1.0  0.84163  0.93159  0.21042  1.0000
  C   C43       1.0  0.20208  0.84664  0.76155  1.0000
  C   C44       1.0  0.79792  0.15336  0.23845  1.0000
  N   N1        1.0  0.75511  0.00245  0.50440  1.0000
  N   N2        1.0  0.24489  0.99755  0.49560  1.0000
  O   O1        1.0  0.50247  0.51128  0.89535  1.0000
  O   O2        1.0  0.49754  0.48872  0.10465  1.0000
  O   O3        1.0  0.29549  0.56307  0.77630  1.0000
  O   O4        1.0  0.70451  0.43693  0.22369  1.0000
  O   O5        1.0  0.04566  0.38238  0.81712  1.0000
  O   O6        1.0  0.95434  0.61762  0.18288  1.0000
  O   O7        1.0  0.27088  0.31673  0.89942  1.0000
  O   O8        1.0  0.72912  0.68327  0.10058  1.0000
  O   O9        1.0  0.69018  0.09337  0.47606  1.0000
  O   O10       1.0  0.30981  0.90663  0.52394  1.0000
  O   O11       1.0  0.71232  0.89374  0.45195  1.0000
  O   O12       1.0  0.28768  0.10626  0.54805  1.0000
  O   O13       1.0  0.15465  0.73838  0.68983  1.0000
  O   O14       1.0  0.84535  0.26162  0.31017  1.0000
  O   O15       1.0  0.31405  0.86695  0.84843  1.0000
  O   O16       1.0  0.68595  0.13305  0.15157  1.0000
  O   O17       1.0  0.87272  0.57105  0.92509  1.0000
  O   O18       1.0  0.12728  0.42895  0.07491  1.0000
  O   O19       1.0  0.23799  0.68008  0.15421  1.0000
  O   O20       1.0  0.76201  0.31992  0.84580  1.0000
  O   O21       1.0  0.43612  0.74316  0.01608  1.0000
  O   O22       1.0  0.56388  0.25684  0.98392  1.0000
  O   O23       1.0  0.07790  0.68934  0.90695  1.0000
  O   O24       1.0  0.92210  0.31066  0.09306  1.0000
