data_image0
_chemical_formula_structural       Tb4H52C56N8O24
_chemical_formula_sum              "Tb4 H52 C56 N8 O24"
_cell_length_a       7.23482
_cell_length_b       13.0452
_cell_length_c       15.5321
_cell_angle_alpha    89.9998
_cell_angle_beta     90
_cell_angle_gamma    90.0002

_space_group_name_H-M_alt    "P 1"
_space_group_IT_number       1

loop_
  _space_group_symop_operation_xyz
  'x, y, z'

loop_
  _atom_site_type_symbol
  _atom_site_label
  _atom_site_symmetry_multiplicity
  _atom_site_fract_x
  _atom_site_fract_y
  _atom_site_fract_z
  _atom_site_occupancy
  Tb  Tb1       1.0  0.11852  0.71317  0.99538  1.0000
  Tb  Tb2       1.0  0.38148  0.28683  0.49539  1.0000
  Tb  Tb3       1.0  0.88148  0.21317  0.50462  1.0000
  Tb  Tb4       1.0  0.61852  0.78683  0.00462  1.0000
  H   H1        1.0  0.06292  0.49689  0.07146  1.0000
  H   H2        1.0  0.43708  0.50311  0.57146  1.0000
  H   H3        1.0  0.93708  0.99689  0.42853  1.0000
  H   H4        1.0  0.56291  0.00311  0.92854  1.0000
  H   H5        1.0  0.45627  0.54438  0.09362  1.0000
  H   H6        1.0  0.04373  0.45562  0.59362  1.0000
  H   H7        1.0  0.54373  0.04438  0.40638  1.0000
  H   H8        1.0  0.95627  0.95561  0.90638  1.0000
  H   H9        1.0  0.57615  0.51969  0.99590  1.0000
  H   H10       1.0  0.92386  0.48031  0.49590  1.0000
  H   H11       1.0  0.42386  0.01969  0.50410  1.0000
  H   H12       1.0  0.07614  0.98031  0.00410  1.0000
  H   H13       1.0  0.28684  0.47695  0.92122  1.0000
  H   H14       1.0  0.21317  0.52305  0.42122  1.0000
  H   H15       1.0  0.71317  0.97695  0.57878  1.0000
  H   H16       1.0  0.78684  0.02305  0.07877  1.0000
  H   H17       1.0  0.29156  0.40497  0.01923  1.0000
  H   H18       1.0  0.20845  0.59502  0.51924  1.0000
  H   H19       1.0  0.70845  0.90497  0.48076  1.0000
  H   H20       1.0  0.79156  0.09503  0.98076  1.0000
  H   H21       1.0  0.95848  0.86217  0.60912  1.0000
  H   H22       1.0  0.54152  0.13784  0.10911  1.0000
  H   H23       1.0  0.04153  0.36217  0.89088  1.0000
  H   H24       1.0  0.45849  0.63783  0.39089  1.0000
  H   H25       1.0  0.03834  0.85854  0.76656  1.0000
  H   H26       1.0  0.46167  0.14147  0.26656  1.0000
  H   H27       1.0  0.96167  0.35854  0.73344  1.0000
  H   H28       1.0  0.53833  0.64147  0.23345  1.0000
  H   H29       1.0  0.59741  0.78629  0.69405  1.0000
  H   H30       1.0  0.90259  0.21372  0.19406  1.0000
  H   H31       1.0  0.40260  0.28629  0.80595  1.0000
  H   H32       1.0  0.09741  0.71371  0.30595  1.0000
  H   H33       1.0  0.49182  0.77991  0.54053  1.0000
  H   H34       1.0  0.00818  0.22010  0.04053  1.0000
  H   H35       1.0  0.50819  0.27990  0.95947  1.0000
  H   H36       1.0  0.99182  0.72009  0.45947  1.0000
  H   H37       1.0  0.25179  0.91825  0.43102  1.0000
  H   H38       1.0  0.24818  0.08175  0.93102  1.0000
  H   H39       1.0  0.74820  0.41824  0.06898  1.0000
  H   H40       1.0  0.75179  0.58175  0.56898  1.0000
  H   H41       1.0  0.47446  0.87430  0.31025  1.0000
  H   H42       1.0  0.02552  0.12570  0.81025  1.0000
  H   H43       1.0  0.52553  0.37430  0.18975  1.0000
  H   H44       1.0  0.97446  0.62570  0.68975  1.0000
  H   H45       1.0  0.01993  0.91134  0.13393  1.0000
  H   H46       1.0  0.48008  0.08866  0.63393  1.0000
  H   H47       1.0  0.98006  0.41134  0.36607  1.0000
  H   H48       1.0  0.51992  0.58866  0.86607  1.0000
  H   H49       1.0  0.82402  0.96627  0.25911  1.0000
  H   H50       1.0  0.67597  0.03373  0.75912  1.0000
  H   H51       1.0  0.17597  0.46627  0.24089  1.0000
  H   H52       1.0  0.32401  0.53373  0.74089  1.0000
  C   C1        1.0  0.44480  0.54903  0.02267  1.0000
  C   C2        1.0  0.05521  0.45097  0.52267  1.0000
  C   C3        1.0  0.55520  0.04903  0.47733  1.0000
  C   C4        1.0  0.94480  0.95097  0.97733  1.0000
  C   C5        1.0  0.28462  0.48298  0.99201  1.0000
  C   C6        1.0  0.21539  0.51702  0.49201  1.0000
  C   C7        1.0  0.71539  0.98297  0.50799  1.0000
  C   C8        1.0  0.78462  0.01702  0.00799  1.0000
  C   C9        1.0  0.09855  0.84357  0.63031  1.0000
  C   C10       1.0  0.40145  0.15643  0.13030  1.0000
  C   C11       1.0  0.90146  0.34357  0.86969  1.0000
  C   C12       1.0  0.59855  0.65643  0.36970  1.0000
  C   C13       1.0  0.14281  0.84328  0.71768  1.0000
  C   C14       1.0  0.35720  0.15673  0.21768  1.0000
  C   C15       1.0  0.85720  0.34327  0.78232  1.0000
  C   C16       1.0  0.64280  0.65673  0.28232  1.0000
  C   C17       1.0  0.32509  0.82242  0.74210  1.0000
  C   C18       1.0  0.17492  0.17759  0.24210  1.0000
  C   C19       1.0  0.67492  0.32242  0.75790  1.0000
  C   C20       1.0  0.82509  0.67758  0.25790  1.0000
  C   C21       1.0  0.45424  0.80271  0.67731  1.0000
  C   C22       1.0  0.04577  0.19730  0.17732  1.0000
  C   C23       1.0  0.54576  0.30271  0.82269  1.0000
  C   C24       1.0  0.95424  0.69729  0.32269  1.0000
  C   C25       1.0  0.39507  0.80056  0.59185  1.0000
  C   C26       1.0  0.10493  0.19945  0.09185  1.0000
  C   C27       1.0  0.60494  0.30056  0.90815  1.0000
  C   C28       1.0  0.89508  0.69944  0.40815  1.0000
  C   C29       1.0  0.37838  0.81683  0.83549  1.0000
  C   C30       1.0  0.12163  0.18317  0.33549  1.0000
  C   C31       1.0  0.62162  0.31683  0.66451  1.0000
  C   C32       1.0  0.87837  0.68317  0.16451  1.0000
  C   C33       1.0  0.21015  0.91996  0.36359  1.0000
  C   C34       1.0  0.28983  0.08004  0.86359  1.0000
  C   C35       1.0  0.78985  0.41995  0.13641  1.0000
  C   C36       1.0  0.71014  0.58004  0.63641  1.0000
  C   C37       1.0  0.33101  0.89435  0.29729  1.0000
  C   C38       1.0  0.16898  0.10565  0.79729  1.0000
  C   C39       1.0  0.66898  0.39435  0.20271  1.0000
  C   C40       1.0  0.83100  0.60565  0.70271  1.0000
  C   C41       1.0  0.26382  0.89293  0.21294  1.0000
  C   C42       1.0  0.23617  0.10706  0.71294  1.0000
  C   C43       1.0  0.73616  0.39294  0.28706  1.0000
  C   C44       1.0  0.76382  0.60707  0.78706  1.0000
  C   C45       1.0  0.07809  0.91668  0.19836  1.0000
  C   C46       1.0  0.42192  0.08331  0.69836  1.0000
  C   C47       1.0  0.92191  0.41668  0.30164  1.0000
  C   C48       1.0  0.57808  0.58332  0.80164  1.0000
  C   C49       1.0  0.96871  0.94499  0.26803  1.0000
  C   C50       1.0  0.53128  0.05500  0.76804  1.0000
  C   C51       1.0  0.03128  0.44499  0.23197  1.0000
  C   C52       1.0  0.46870  0.55501  0.73196  1.0000
  C   C53       1.0  0.38874  0.86433  0.14008  1.0000
  C   C54       1.0  0.11127  0.13567  0.64007  1.0000
  C   C55       1.0  0.61125  0.36433  0.35992  1.0000
  C   C56       1.0  0.88873  0.63567  0.85992  1.0000
  N   N1        1.0  0.22041  0.82091  0.56772  1.0000
  N   N2        1.0  0.27960  0.17910  0.06772  1.0000
  N   N3        1.0  0.77960  0.32090  0.93228  1.0000
  N   N4        1.0  0.72041  0.67909  0.43229  1.0000
  N   N5        1.0  0.03350  0.94654  0.34905  1.0000
  N   N6        1.0  0.46648  0.05346  0.84905  1.0000
  N   N7        1.0  0.96649  0.44653  0.15095  1.0000
  N   N8        1.0  0.53350  0.55347  0.65095  1.0000
  O   O1        1.0  0.11362  0.53082  0.01568  1.0000
  O   O2        1.0  0.38639  0.46918  0.51568  1.0000
  O   O3        1.0  0.88638  0.03082  0.48432  1.0000
  O   O4        1.0  0.61362  0.96918  0.98432  1.0000
  O   O5        1.0  0.41468  0.65180  0.99701  1.0000
  O   O6        1.0  0.08533  0.34820  0.49701  1.0000
  O   O7        1.0  0.58533  0.15180  0.50300  1.0000
  O   O8        1.0  0.91468  0.84820  0.00300  1.0000
  O   O9        1.0  0.56195  0.86720  0.14974  1.0000
  O   O10       1.0  0.93805  0.13280  0.64974  1.0000
  O   O11       1.0  0.43804  0.36721  0.35026  1.0000
  O   O12       1.0  0.06194  0.63280  0.85026  1.0000
  O   O13       1.0  0.31544  0.83635  0.06819  1.0000
  O   O14       1.0  0.18458  0.16364  0.56819  1.0000
  O   O15       1.0  0.68456  0.33635  0.43181  1.0000
  O   O16       1.0  0.81543  0.66365  0.93181  1.0000
  O   O17       1.0  0.54857  0.81010  0.85495  1.0000
  O   O18       1.0  0.95144  0.18990  0.35495  1.0000
  O   O19       1.0  0.45143  0.31010  0.64506  1.0000
  O   O20       1.0  0.04857  0.68990  0.14505  1.0000
  O   O21       1.0  0.24831  0.81793  0.89071  1.0000
  O   O22       1.0  0.25169  0.18207  0.39072  1.0000
  O   O23       1.0  0.75169  0.31793  0.60928  1.0000
  O   O24       1.0  0.74831  0.68206  0.10929  1.0000
