data_image0
_chemical_formula_structural       Cu12H40C48I12N24
_chemical_formula_sum              "Cu12 H40 C48 I12 N24"
_cell_length_a       6.70967
_cell_length_b       15.2382
_cell_length_c       17.4889
_cell_angle_alpha    90.0002
_cell_angle_beta     89.9999
_cell_angle_gamma    90.0001

_space_group_name_H-M_alt    "P 1"
_space_group_IT_number       1

loop_
  _space_group_symop_operation_xyz
  'x, y, z'

loop_
  _atom_site_type_symbol
  _atom_site_label
  _atom_site_symmetry_multiplicity
  _atom_site_fract_x
  _atom_site_fract_y
  _atom_site_fract_z
  _atom_site_occupancy
  Cu  Cu1       1.0  0.74482  0.01030  0.75000  1.0000
  Cu  Cu2       1.0  0.24482  0.48970  0.25000  1.0000
  Cu  Cu3       1.0  0.25517  0.98970  0.25000  1.0000
  Cu  Cu4       1.0  0.75518  0.51030  0.75000  1.0000
  Cu  Cu5       1.0  0.79979  0.13332  0.65153  1.0000
  Cu  Cu6       1.0  0.29979  0.36668  0.34847  1.0000
  Cu  Cu7       1.0  0.20021  0.86668  0.15153  1.0000
  Cu  Cu8       1.0  0.70021  0.63332  0.84847  1.0000
  Cu  Cu9       1.0  0.20021  0.86668  0.34847  1.0000
  Cu  Cu10      1.0  0.70021  0.63332  0.65153  1.0000
  Cu  Cu11      1.0  0.79979  0.13332  0.84847  1.0000
  Cu  Cu12      1.0  0.29979  0.36668  0.15153  1.0000
  H   H1        1.0  0.38837  0.20154  0.42945  1.0000
  H   H2        1.0  0.88837  0.29847  0.57055  1.0000
  H   H3        1.0  0.61163  0.79846  0.92945  1.0000
  H   H4        1.0  0.11163  0.70154  0.07055  1.0000
  H   H5        1.0  0.61163  0.79846  0.57055  1.0000
  H   H6        1.0  0.11162  0.70154  0.42945  1.0000
  H   H7        1.0  0.38837  0.20153  0.07055  1.0000
  H   H8        1.0  0.88837  0.29846  0.92945  1.0000
  H   H9        1.0  0.43026  0.15420  0.56451  1.0000
  H   H10       1.0  0.93026  0.34580  0.43549  1.0000
  H   H11       1.0  0.56974  0.84580  0.06451  1.0000
  H   H12       1.0  0.06974  0.65420  0.93549  1.0000
  H   H13       1.0  0.56974  0.84580  0.43549  1.0000
  H   H14       1.0  0.06974  0.65420  0.56451  1.0000
  H   H15       1.0  0.43026  0.15420  0.93549  1.0000
  H   H16       1.0  0.93026  0.34580  0.06451  1.0000
  H   H17       1.0  0.42206  0.42947  0.62796  1.0000
  H   H18       1.0  0.92205  0.07053  0.37204  1.0000
  H   H19       1.0  0.57794  0.57052  0.12796  1.0000
  H   H20       1.0  0.07794  0.92948  0.87204  1.0000
  H   H21       1.0  0.57794  0.57053  0.37204  1.0000
  H   H22       1.0  0.07795  0.92947  0.62796  1.0000
  H   H23       1.0  0.42205  0.42947  0.87204  1.0000
  H   H24       1.0  0.92206  0.07052  0.12796  1.0000
  H   H25       1.0  0.35682  0.46400  0.49179  1.0000
  H   H26       1.0  0.85681  0.03600  0.50821  1.0000
  H   H27       1.0  0.64318  0.53600  0.99179  1.0000
  H   H28       1.0  0.14319  0.96400  0.00821  1.0000
  H   H29       1.0  0.64319  0.53600  0.50821  1.0000
  H   H30       1.0  0.14319  0.96400  0.49179  1.0000
  H   H31       1.0  0.35681  0.46400  0.00821  1.0000
  H   H32       1.0  0.85681  0.03600  0.99179  1.0000
  H   H33       1.0  0.17962  0.38064  0.70268  1.0000
  H   H34       1.0  0.67961  0.11936  0.29731  1.0000
  H   H35       1.0  0.82039  0.61936  0.20268  1.0000
  H   H36       1.0  0.32039  0.88064  0.79731  1.0000
  H   H37       1.0  0.82038  0.61936  0.29731  1.0000
  H   H38       1.0  0.32039  0.88064  0.70268  1.0000
  H   H39       1.0  0.17961  0.38064  0.79731  1.0000
  H   H40       1.0  0.67961  0.11936  0.20269  1.0000
  C   C1        1.0  0.47331  0.26518  0.68713  1.0000
  C   C2        1.0  0.97331  0.23482  0.31287  1.0000
  C   C3        1.0  0.52668  0.73482  0.18713  1.0000
  C   C4        1.0  0.02669  0.76518  0.81287  1.0000
  C   C5        1.0  0.52668  0.73482  0.31287  1.0000
  C   C6        1.0  0.02669  0.76518  0.68713  1.0000
  C   C7        1.0  0.47331  0.26518  0.81287  1.0000
  C   C8        1.0  0.97331  0.23482  0.18713  1.0000
  C   C9        1.0  0.39488  0.25012  0.47522  1.0000
  C   C10       1.0  0.89488  0.24989  0.52478  1.0000
  C   C11       1.0  0.60512  0.74988  0.97522  1.0000
  C   C12       1.0  0.10512  0.75012  0.02478  1.0000
  C   C13       1.0  0.60512  0.74989  0.52478  1.0000
  C   C14       1.0  0.10512  0.75011  0.47522  1.0000
  C   C15       1.0  0.39488  0.25011  0.02478  1.0000
  C   C16       1.0  0.89487  0.24988  0.97522  1.0000
  C   C17       1.0  0.41895  0.22380  0.55063  1.0000
  C   C18       1.0  0.91895  0.27621  0.44937  1.0000
  C   C19       1.0  0.58105  0.77620  0.05063  1.0000
  C   C20       1.0  0.08105  0.72380  0.94937  1.0000
  C   C21       1.0  0.58105  0.77620  0.44937  1.0000
  C   C22       1.0  0.08104  0.72380  0.55063  1.0000
  C   C23       1.0  0.41896  0.22379  0.94937  1.0000
  C   C24       1.0  0.91896  0.27620  0.05063  1.0000
  C   C25       1.0  0.42980  0.28799  0.60804  1.0000
  C   C26       1.0  0.92979  0.21201  0.39196  1.0000
  C   C27       1.0  0.57020  0.71201  0.10804  1.0000
  C   C28       1.0  0.07020  0.78799  0.89196  1.0000
  C   C29       1.0  0.57021  0.71201  0.39196  1.0000
  C   C30       1.0  0.07020  0.78799  0.60804  1.0000
  C   C31       1.0  0.42979  0.28799  0.89196  1.0000
  C   C32       1.0  0.92980  0.21201  0.10804  1.0000
  C   C33       1.0  0.40949  0.37621  0.58653  1.0000
  C   C34       1.0  0.90948  0.12379  0.41348  1.0000
  C   C35       1.0  0.59051  0.62379  0.08653  1.0000
  C   C36       1.0  0.09052  0.87621  0.91347  1.0000
  C   C37       1.0  0.59052  0.62379  0.41347  1.0000
  C   C38       1.0  0.09052  0.87621  0.58653  1.0000
  C   C39       1.0  0.40947  0.37621  0.91347  1.0000
  C   C40       1.0  0.90948  0.12379  0.08653  1.0000
  C   C41       1.0  0.37984  0.39645  0.51007  1.0000
  C   C42       1.0  0.87984  0.10356  0.48993  1.0000
  C   C43       1.0  0.62016  0.60355  0.01007  1.0000
  C   C44       1.0  0.12016  0.89645  0.98993  1.0000
  C   C45       1.0  0.62016  0.60356  0.48993  1.0000
  C   C46       1.0  0.12016  0.89644  0.51007  1.0000
  C   C47       1.0  0.37984  0.39644  0.98993  1.0000
  C   C48       1.0  0.87984  0.10355  0.01007  1.0000
  I   I1        1.0  0.08965  0.08884  0.75000  1.0000
  I   I2        1.0  0.58965  0.41116  0.25000  1.0000
  I   I3        1.0  0.91035  0.91116  0.25000  1.0000
  I   I4        1.0  0.41035  0.58884  0.75000  1.0000
  I   I5        1.0  0.58407  0.97805  0.62289  1.0000
  I   I6        1.0  0.08407  0.52195  0.37711  1.0000
  I   I7        1.0  0.41593  0.02195  0.12289  1.0000
  I   I8        1.0  0.91593  0.47805  0.87711  1.0000
  I   I9        1.0  0.41593  0.02195  0.37711  1.0000
  I   I10       1.0  0.91594  0.47805  0.62289  1.0000
  I   I11       1.0  0.58407  0.97805  0.87711  1.0000
  I   I12       1.0  0.08407  0.52195  0.12289  1.0000
  N   N1        1.0  0.61721  0.21074  0.71096  1.0000
  N   N2        1.0  0.11721  0.28926  0.28904  1.0000
  N   N3        1.0  0.38278  0.78926  0.21096  1.0000
  N   N4        1.0  0.88279  0.71073  0.78904  1.0000
  N   N5        1.0  0.38278  0.78926  0.28904  1.0000
  N   N6        1.0  0.88279  0.71073  0.71096  1.0000
  N   N7        1.0  0.61721  0.21074  0.78904  1.0000
  N   N8        1.0  0.11721  0.28927  0.21096  1.0000
  N   N9        1.0  0.38183  0.30070  0.75000  1.0000
  N   N10       1.0  0.88183  0.19930  0.25000  1.0000
  N   N11       1.0  0.61817  0.69930  0.25000  1.0000
  N   N12       1.0  0.11817  0.80070  0.75000  1.0000
  N   N13       1.0  0.19516  0.34118  0.75000  1.0000
  N   N14       1.0  0.69516  0.15882  0.25000  1.0000
  N   N15       1.0  0.80483  0.65882  0.25000  1.0000
  N   N16       1.0  0.30484  0.84118  0.75000  1.0000
  N   N17       1.0  0.37417  0.33526  0.45434  1.0000
  N   N18       1.0  0.87416  0.16475  0.54566  1.0000
  N   N19       1.0  0.62584  0.66474  0.95434  1.0000
  N   N20       1.0  0.12584  0.83525  0.04566  1.0000
  N   N21       1.0  0.62584  0.66475  0.54566  1.0000
  N   N22       1.0  0.12583  0.83526  0.45434  1.0000
  N   N23       1.0  0.37417  0.33525  0.04566  1.0000
  N   N24       1.0  0.87417  0.16475  0.95434  1.0000
