data_image0
_chemical_formula_structural       Cu8H40C48I12N24
_chemical_formula_sum              "Cu8 H40 C48 I12 N24"
_cell_length_a       7.33187
_cell_length_b       14.3157
_cell_length_c       17.2217
_cell_angle_alpha    89.9997
_cell_angle_beta     96.3376
_cell_angle_gamma    89.9996

_space_group_name_H-M_alt    "P 1"
_space_group_IT_number       1

loop_
  _space_group_symop_operation_xyz
  'x, y, z'

loop_
  _atom_site_type_symbol
  _atom_site_label
  _atom_site_symmetry_multiplicity
  _atom_site_fract_x
  _atom_site_fract_y
  _atom_site_fract_z
  _atom_site_occupancy
  Cu  Cu1       1.0  0.16183  0.18215  0.87716  1.0000
  Cu  Cu2       1.0  0.33819  0.68215  0.62284  1.0000
  Cu  Cu3       1.0  0.83818  0.81785  0.12284  1.0000
  Cu  Cu4       1.0  0.66181  0.31785  0.37716  1.0000
  Cu  Cu5       1.0  0.19700  0.10757  0.69439  1.0000
  Cu  Cu6       1.0  0.30299  0.60757  0.80562  1.0000
  Cu  Cu7       1.0  0.80300  0.89244  0.30561  1.0000
  Cu  Cu8       1.0  0.69701  0.39244  0.19439  1.0000
  H   H1        1.0  0.54162  0.12501  0.61202  1.0000
  H   H2        1.0  0.95837  0.62501  0.88798  1.0000
  H   H3        1.0  0.45837  0.87499  0.38798  1.0000
  H   H4        1.0  0.04163  0.37499  0.11202  1.0000
  H   H5        1.0  0.49156  0.17703  0.97402  1.0000
  H   H6        1.0  0.00846  0.67704  0.52598  1.0000
  H   H7        1.0  0.50845  0.82296  0.02598  1.0000
  H   H8        1.0  0.99155  0.32296  0.47402  1.0000
  H   H9        1.0  0.59783  0.15256  0.47286  1.0000
  H   H10       1.0  0.90218  0.65256  0.02713  1.0000
  H   H11       1.0  0.40218  0.84744  0.52714  1.0000
  H   H12       1.0  0.09783  0.34744  0.97287  1.0000
  H   H13       1.0  0.63944  0.45337  0.90071  1.0000
  H   H14       1.0  0.86056  0.95337  0.59929  1.0000
  H   H15       1.0  0.36056  0.54663  0.09929  1.0000
  H   H16       1.0  0.13944  0.04663  0.40071  1.0000
  H   H17       1.0  0.52590  0.42570  0.64005  1.0000
  H   H18       1.0  0.97410  0.92570  0.85995  1.0000
  H   H19       1.0  0.47410  0.57430  0.35995  1.0000
  H   H20       1.0  0.02590  0.07430  0.14005  1.0000
  H   H21       1.0  0.59625  0.44002  0.50304  1.0000
  H   H22       1.0  0.90375  0.94002  0.99696  1.0000
  H   H23       1.0  0.40376  0.55998  0.49695  1.0000
  H   H24       1.0  0.09624  0.05997  0.00305  1.0000
  H   H25       1.0  0.55605  0.23056  0.11138  1.0000
  H   H26       1.0  0.94396  0.73056  0.38862  1.0000
  H   H27       1.0  0.44395  0.76944  0.88863  1.0000
  H   H28       1.0  0.05605  0.26945  0.61137  1.0000
  H   H29       1.0  0.71028  0.49355  0.04216  1.0000
  H   H30       1.0  0.78971  0.99355  0.45783  1.0000
  H   H31       1.0  0.28971  0.50645  0.95784  1.0000
  H   H32       1.0  0.21029  0.00645  0.54217  1.0000
  H   H33       1.0  0.71030  0.42651  0.75390  1.0000
  H   H34       1.0  0.78970  0.92651  0.74609  1.0000
  H   H35       1.0  0.28970  0.57349  0.24610  1.0000
  H   H36       1.0  0.21030  0.07349  0.25390  1.0000
  H   H37       1.0  0.83922  0.32869  0.76461  1.0000
  H   H38       1.0  0.66079  0.82869  0.73538  1.0000
  H   H39       1.0  0.16078  0.67131  0.23539  1.0000
  H   H40       1.0  0.33922  0.17131  0.26461  1.0000
  C   C1        1.0  0.50145  0.28204  0.84575  1.0000
  C   C2        1.0  0.99856  0.78204  0.65425  1.0000
  C   C3        1.0  0.49855  0.71796  0.15425  1.0000
  C   C4        1.0  0.00145  0.21796  0.34575  1.0000
  C   C5        1.0  0.49160  0.26179  0.71855  1.0000
  C   C6        1.0  0.00839  0.76179  0.78145  1.0000
  C   C7        1.0  0.50838  0.73822  0.28145  1.0000
  C   C8        1.0  0.99161  0.23821  0.21855  1.0000
  C   C9        1.0  0.65859  0.42461  0.02390  1.0000
  C   C10       1.0  0.84140  0.92461  0.47610  1.0000
  C   C11       1.0  0.34140  0.57539  0.97610  1.0000
  C   C12       1.0  0.15860  0.07539  0.52390  1.0000
  C   C13       1.0  0.62065  0.40173  0.94542  1.0000
  C   C14       1.0  0.87935  0.90173  0.55458  1.0000
  C   C15       1.0  0.37935  0.59827  0.05458  1.0000
  C   C16       1.0  0.12065  0.09827  0.44542  1.0000
  C   C17       1.0  0.55432  0.31186  0.92561  1.0000
  C   C18       1.0  0.94569  0.81186  0.57439  1.0000
  C   C19       1.0  0.44568  0.68814  0.07439  1.0000
  C   C20       1.0  0.05431  0.18814  0.42561  1.0000
  C   C21       1.0  0.53435  0.24879  0.98647  1.0000
  C   C22       1.0  0.96565  0.74880  0.51353  1.0000
  C   C23       1.0  0.46565  0.75120  0.01353  1.0000
  C   C24       1.0  0.03434  0.25121  0.48647  1.0000
  C   C25       1.0  0.57193  0.27813  0.06311  1.0000
  C   C26       1.0  0.92807  0.77814  0.43689  1.0000
  C   C27       1.0  0.42807  0.72186  0.93689  1.0000
  C   C28       1.0  0.07193  0.22187  0.56311  1.0000
  C   C29       1.0  0.58265  0.21080  0.51251  1.0000
  C   C30       1.0  0.91736  0.71080  0.98749  1.0000
  C   C31       1.0  0.41737  0.78920  0.48749  1.0000
  C   C32       1.0  0.08264  0.28920  0.01251  1.0000
  C   C33       1.0  0.55038  0.19581  0.58939  1.0000
  C   C34       1.0  0.94961  0.69582  0.91060  1.0000
  C   C35       1.0  0.44961  0.80418  0.41060  1.0000
  C   C36       1.0  0.05039  0.30418  0.08940  1.0000
  C   C37       1.0  0.53049  0.27317  0.63793  1.0000
  C   C38       1.0  0.96950  0.77317  0.86206  1.0000
  C   C39       1.0  0.46949  0.72683  0.36206  1.0000
  C   C40       1.0  0.03050  0.22683  0.13794  1.0000
  C   C41       1.0  0.54571  0.36276  0.60629  1.0000
  C   C42       1.0  0.95429  0.86277  0.89370  1.0000
  C   C43       1.0  0.45429  0.63724  0.39370  1.0000
  C   C44       1.0  0.04570  0.13723  0.10630  1.0000
  C   C45       1.0  0.58082  0.37156  0.52915  1.0000
  C   C46       1.0  0.91918  0.87157  0.97085  1.0000
  C   C47       1.0  0.41918  0.62843  0.47085  1.0000
  C   C48       1.0  0.08081  0.12843  0.02915  1.0000
  I   I1        1.0  0.90699  0.11852  0.77509  1.0000
  I   I2        1.0  0.59301  0.61853  0.72491  1.0000
  I   I3        1.0  0.09301  0.88148  0.22491  1.0000
  I   I4        1.0  0.40699  0.38148  0.27509  1.0000
  I   I5        1.0  0.34362  0.94845  0.72806  1.0000
  I   I6        1.0  0.15639  0.44845  0.77194  1.0000
  I   I7        1.0  0.65639  0.05156  0.27195  1.0000
  I   I8        1.0  0.84361  0.55156  0.22805  1.0000
  I   I9        1.0  0.05268  0.48784  0.58386  1.0000
  I   I10       1.0  0.44732  0.98784  0.91614  1.0000
  I   I11       1.0  0.94732  0.51215  0.41614  1.0000
  I   I12       1.0  0.55268  0.01215  0.08386  1.0000
  N   N1        1.0  0.36923  0.22049  0.82351  1.0000
  N   N2        1.0  0.13078  0.72049  0.67649  1.0000
  N   N3        1.0  0.63076  0.77952  0.17649  1.0000
  N   N4        1.0  0.86923  0.27951  0.32351  1.0000
  N   N5        1.0  0.36511  0.20670  0.74439  1.0000
  N   N6        1.0  0.13489  0.70670  0.75560  1.0000
  N   N7        1.0  0.63488  0.79331  0.25561  1.0000
  N   N8        1.0  0.86511  0.29330  0.24440  1.0000
  N   N9        1.0  0.57818  0.31054  0.78104  1.0000
  N   N10       1.0  0.92183  0.81055  0.71896  1.0000
  N   N11       1.0  0.42182  0.68946  0.21896  1.0000
  N   N12       1.0  0.07818  0.18945  0.28104  1.0000
  N   N13       1.0  0.73485  0.36586  0.78501  1.0000
  N   N14       1.0  0.76516  0.86587  0.71498  1.0000
  N   N15       1.0  0.26515  0.63414  0.21499  1.0000
  N   N16       1.0  0.23485  0.13414  0.28502  1.0000
  N   N17       1.0  0.63198  0.36524  0.08250  1.0000
  N   N18       1.0  0.86802  0.86524  0.41749  1.0000
  N   N19       1.0  0.36802  0.63476  0.91750  1.0000
  N   N20       1.0  0.13198  0.13476  0.58251  1.0000
  N   N21       1.0  0.59928  0.29744  0.48200  1.0000
  N   N22       1.0  0.90071  0.79744  0.01800  1.0000
  N   N23       1.0  0.40072  0.70256  0.51800  1.0000
  N   N24       1.0  0.09928  0.20256  0.98200  1.0000
