data_image0
_chemical_formula_structural       Cu8H40C48I8N24
_chemical_formula_sum              "Cu8 H40 C48 I8 N24"
_cell_length_a       7.82576
_cell_length_b       13.1509
_cell_length_c       16.053
_cell_angle_alpha    104.234
_cell_angle_beta     98.832
_cell_angle_gamma    102.662

_space_group_name_H-M_alt    "P 1"
_space_group_IT_number       1

loop_
  _space_group_symop_operation_xyz
  'x, y, z'

loop_
  _atom_site_type_symbol
  _atom_site_label
  _atom_site_symmetry_multiplicity
  _atom_site_fract_x
  _atom_site_fract_y
  _atom_site_fract_z
  _atom_site_occupancy
  Cu  Cu1       1.0  0.55043  0.30012  0.81311  1.0000
  Cu  Cu2       1.0  0.44957  0.69987  0.18689  1.0000
  Cu  Cu3       1.0  0.48673  0.58448  0.97334  1.0000
  Cu  Cu4       1.0  0.51327  0.41552  0.02666  1.0000
  Cu  Cu5       1.0  0.58884  0.13471  0.86412  1.0000
  Cu  Cu6       1.0  0.41117  0.86529  0.13588  1.0000
  Cu  Cu7       1.0  0.52190  0.09505  0.70076  1.0000
  Cu  Cu8       1.0  0.47811  0.90495  0.29924  1.0000
  H   H1        1.0  0.87170  0.01008  0.24022  1.0000
  H   H2        1.0  0.12830  0.98992  0.75978  1.0000
  H   H3        1.0  0.03982  0.95226  0.21937  1.0000
  H   H4        1.0  0.96019  0.04774  0.78063  1.0000
  H   H5        1.0  0.80833  0.29572  0.44052  1.0000
  H   H6        1.0  0.19166  0.70428  0.55948  1.0000
  H   H7        1.0  0.88754  0.23468  0.35739  1.0000
  H   H8        1.0  0.11246  0.76532  0.64261  1.0000
  H   H9        1.0  0.64523  0.24646  0.60713  1.0000
  H   H10       1.0  0.35478  0.75354  0.39287  1.0000
  H   H11       1.0  0.53322  0.28952  0.47025  1.0000
  H   H12       1.0  0.46678  0.71049  0.52975  1.0000
  H   H13       1.0  0.10271  0.99367  0.40009  1.0000
  H   H14       1.0  0.89728  0.00634  0.59991  1.0000
  H   H15       1.0  0.22494  0.96634  0.54380  1.0000
  H   H16       1.0  0.77506  0.03366  0.45620  1.0000
  H   H17       1.0  0.66868  0.97275  0.96078  1.0000
  H   H18       1.0  0.33133  0.02725  0.03922  1.0000
  H   H19       1.0  0.86920  0.98197  0.09718  1.0000
  H   H20       1.0  0.13081  0.01803  0.90282  1.0000
  H   H21       1.0  0.08609  0.32595  0.13041  1.0000
  H   H22       1.0  0.91392  0.67405  0.86959  1.0000
  H   H23       1.0  0.87737  0.30152  0.98981  1.0000
  H   H24       1.0  0.12264  0.69848  0.01020  1.0000
  H   H25       1.0  0.49147  0.29464  0.16376  1.0000
  H   H26       1.0  0.50853  0.70536  0.83624  1.0000
  H   H27       1.0  0.67848  0.30746  0.30448  1.0000
  H   H28       1.0  0.32151  0.69255  0.69552  1.0000
  H   H29       1.0  0.09039  0.55126  0.25561  1.0000
  H   H30       1.0  0.90961  0.44874  0.74439  1.0000
  H   H31       1.0  0.88034  0.53142  0.11680  1.0000
  H   H32       1.0  0.11965  0.46858  0.88320  1.0000
  H   H33       1.0  0.62801  0.48237  0.73872  1.0000
  H   H34       1.0  0.37198  0.51763  0.26128  1.0000
  H   H35       1.0  0.49657  0.53566  0.61090  1.0000
  H   H36       1.0  0.50342  0.46434  0.38910  1.0000
  H   H37       1.0  0.03234  0.26306  0.56242  1.0000
  H   H38       1.0  0.96764  0.73694  0.43758  1.0000
  H   H39       1.0  0.18550  0.21943  0.69161  1.0000
  H   H40       1.0  0.81449  0.78056  0.30838  1.0000
  C   C1        1.0  0.24822  0.17384  0.34364  1.0000
  C   C2        1.0  0.75179  0.82616  0.65636  1.0000
  C   C3        1.0  0.11332  0.17847  0.21408  1.0000
  C   C4        1.0  0.88669  0.82153  0.78592  1.0000
  C   C5        1.0  0.52494  0.19238  0.55973  1.0000
  C   C6        1.0  0.47507  0.80763  0.44027  1.0000
  C   C7        1.0  0.46379  0.21506  0.48270  1.0000
  C   C8        1.0  0.53622  0.78495  0.51730  1.0000
  C   C9        1.0  0.30787  0.14419  0.42275  1.0000
  C   C10       1.0  0.69213  0.85581  0.57725  1.0000
  C   C11       1.0  0.22176  0.05194  0.44471  1.0000
  C   C12       1.0  0.77824  0.94807  0.55530  1.0000
  C   C13       1.0  0.29043  0.03643  0.52445  1.0000
  C   C14       1.0  0.70957  0.96358  0.47555  1.0000
  C   C15       1.0  0.76317  0.05003  0.00035  1.0000
  C   C16       1.0  0.23684  0.94997  0.99965  1.0000
  C   C17       1.0  0.87677  0.05638  0.07815  1.0000
  C   C18       1.0  0.12324  0.94362  0.92184  1.0000
  C   C19       1.0  0.99388  0.15728  0.12885  1.0000
  C   C20       1.0  0.00613  0.84272  0.87115  1.0000
  C   C21       1.0  0.99504  0.24638  0.09499  1.0000
  C   C22       1.0  0.00497  0.75362  0.90501  1.0000
  C   C23       1.0  0.87898  0.23302  0.01659  1.0000
  C   C24       1.0  0.12103  0.76699  0.98341  1.0000
  C   C25       1.0  0.03323  0.44818  0.37503  1.0000
  C   C26       1.0  0.96677  0.55182  0.62497  1.0000
  C   C27       1.0  0.18429  0.43662  0.49879  1.0000
  C   C28       1.0  0.81571  0.56338  0.50121  1.0000
  C   C29       1.0  0.62688  0.34903  0.18499  1.0000
  C   C30       1.0  0.37312  0.65096  0.81501  1.0000
  C   C31       1.0  0.73546  0.35576  0.26445  1.0000
  C   C32       1.0  0.26454  0.64424  0.73555  1.0000
  C   C33       1.0  0.90785  0.42830  0.29203  1.0000
  C   C34       1.0  0.09215  0.57170  0.70797  1.0000
  C   C35       1.0  0.95977  0.49215  0.23701  1.0000
  C   C36       1.0  0.04022  0.50785  0.76299  1.0000
  C   C37       1.0  0.84258  0.48185  0.15982  1.0000
  C   C38       1.0  0.15742  0.51815  0.84018  1.0000
  C   C39       1.0  0.49806  0.43410  0.69673  1.0000
  C   C40       1.0  0.50193  0.56590  0.30327  1.0000
  C   C41       1.0  0.42395  0.46382  0.62546  1.0000
  C   C42       1.0  0.57605  0.53618  0.37454  1.0000
  C   C43       1.0  0.25445  0.40159  0.57334  1.0000
  C   C44       1.0  0.74554  0.59841  0.42666  1.0000
  C   C45       1.0  0.16561  0.31256  0.59842  1.0000
  C   C46       1.0  0.83438  0.68744  0.40157  1.0000
  C   C47       1.0  0.25069  0.28814  0.67064  1.0000
  C   C48       1.0  0.74930  0.71185  0.32936  1.0000
  I   I1        1.0  0.83295  0.23013  0.77764  1.0000
  I   I2        1.0  0.16705  0.76987  0.22236  1.0000
  I   I3        1.0  0.73756  0.49480  0.93234  1.0000
  I   I4        1.0  0.26243  0.50520  0.06765  1.0000
  I   I5        1.0  0.33581  0.22552  0.90920  1.0000
  I   I6        1.0  0.66419  0.77448  0.09080  1.0000
  I   I7        1.0  0.42803  0.93339  0.76014  1.0000
  I   I8        1.0  0.57197  0.06661  0.23985  1.0000
  N   N1        1.0  0.24032  0.27229  0.25226  1.0000
  N   N2        1.0  0.75969  0.72771  0.74775  1.0000
  N   N3        1.0  0.32448  0.26901  0.33174  1.0000
  N   N4        1.0  0.67552  0.73100  0.66826  1.0000
  N   N5        1.0  0.11383  0.11427  0.27075  1.0000
  N   N6        1.0  0.88618  0.88573  0.72925  1.0000
  N   N7        1.0  0.00315  0.01150  0.26202  1.0000
  N   N8        1.0  0.99686  0.98850  0.73798  1.0000
  N   N9        1.0  0.43920  0.10505  0.58215  1.0000
  N   N10       1.0  0.56081  0.89496  0.41785  1.0000
  N   N11       1.0  0.76087  0.13656  0.96972  1.0000
  N   N12       1.0  0.23914  0.86344  0.03028  1.0000
  N   N13       1.0  0.16706  0.53894  0.41035  1.0000
  N   N14       1.0  0.83294  0.46107  0.58965  1.0000
  N   N15       1.0  0.25918  0.53235  0.48731  1.0000
  N   N16       1.0  0.74082  0.46765  0.51270  1.0000
  N   N17       1.0  0.03911  0.38203  0.42975  1.0000
  N   N18       1.0  0.96089  0.61797  0.57025  1.0000
  N   N19       1.0  0.92254  0.28105  0.42192  1.0000
  N   N20       1.0  0.07745  0.71895  0.57807  1.0000
  N   N21       1.0  0.67745  0.41083  0.13265  1.0000
  N   N22       1.0  0.32255  0.58917  0.86735  1.0000
  N   N23       1.0  0.41573  0.34627  0.71904  1.0000
  N   N24       1.0  0.58427  0.65373  0.28095  1.0000
