data_image0
_chemical_formula_structural       Cu4H40C48Br4N24
_chemical_formula_sum              "Cu4 H40 C48 Br4 N24"
_cell_length_a       7.75208
_cell_length_b       12.2517
_cell_length_c       13.2213
_cell_angle_alpha    90.0008
_cell_angle_beta     90.0002
_cell_angle_gamma    91.8379

_space_group_name_H-M_alt    "P 1"
_space_group_IT_number       1

loop_
  _space_group_symop_operation_xyz
  'x, y, z'

loop_
  _atom_site_type_symbol
  _atom_site_label
  _atom_site_symmetry_multiplicity
  _atom_site_fract_x
  _atom_site_fract_y
  _atom_site_fract_z
  _atom_site_occupancy
  Cu  Cu1       1.0  0.80611  0.80570  0.96794  1.0000
  Cu  Cu2       1.0  0.69389  0.69430  0.46794  1.0000
  Cu  Cu3       1.0  0.19389  0.19431  0.03206  1.0000
  Cu  Cu4       1.0  0.30612  0.30569  0.53206  1.0000
  H   H1        1.0  0.65593  0.59167  0.89694  1.0000
  H   H2        1.0  0.84408  0.90832  0.39694  1.0000
  H   H3        1.0  0.34408  0.40832  0.10306  1.0000
  H   H4        1.0  0.15592  0.09168  0.60306  1.0000
  H   H5        1.0  0.53980  0.47775  0.86872  1.0000
  H   H6        1.0  0.96020  0.02225  0.36872  1.0000
  H   H7        1.0  0.46021  0.52225  0.13128  1.0000
  H   H8        1.0  0.03980  0.97775  0.63128  1.0000
  H   H9        1.0  0.20224  0.77763  0.67104  1.0000
  H   H10       1.0  0.29777  0.72237  0.17103  1.0000
  H   H11       1.0  0.79776  0.22237  0.32897  1.0000
  H   H12       1.0  0.70223  0.27764  0.82897  1.0000
  H   H13       1.0  0.96176  0.53002  0.78026  1.0000
  H   H14       1.0  0.53824  0.96999  0.28026  1.0000
  H   H15       1.0  0.03824  0.46998  0.21973  1.0000
  H   H16       1.0  0.46176  0.03003  0.71974  1.0000
  H   H17       1.0  0.94096  0.82564  0.76337  1.0000
  H   H18       1.0  0.55904  0.67436  0.26337  1.0000
  H   H19       1.0  0.05904  0.17436  0.23663  1.0000
  H   H20       1.0  0.44096  0.32564  0.73662  1.0000
  H   H21       1.0  0.07829  0.64202  0.01327  1.0000
  H   H22       1.0  0.42170  0.85798  0.51327  1.0000
  H   H23       1.0  0.92171  0.35799  0.98673  1.0000
  H   H24       1.0  0.57829  0.14201  0.48673  1.0000
  H   H25       1.0  0.34577  0.58442  0.93063  1.0000
  H   H26       1.0  0.15423  0.91558  0.43062  1.0000
  H   H27       1.0  0.65423  0.41558  0.06938  1.0000
  H   H28       1.0  0.84577  0.08442  0.56937  1.0000
  H   H29       1.0  0.70258  0.42975  0.50419  1.0000
  H   H30       1.0  0.79743  0.07025  0.00420  1.0000
  H   H31       1.0  0.29742  0.57025  0.49581  1.0000
  H   H32       1.0  0.20257  0.92975  0.99581  1.0000
  H   H33       1.0  0.20645  0.41941  0.72778  1.0000
  H   H34       1.0  0.29355  0.08059  0.22777  1.0000
  H   H35       1.0  0.79355  0.58059  0.27223  1.0000
  H   H36       1.0  0.70645  0.91942  0.77223  1.0000
  H   H37       1.0  0.95666  0.31905  0.46406  1.0000
  H   H38       1.0  0.54336  0.18094  0.96406  1.0000
  H   H39       1.0  0.04336  0.68094  0.53594  1.0000
  H   H40       1.0  0.45664  0.81906  0.03593  1.0000
  C   C1        1.0  0.44199  0.64164  0.72853  1.0000
  C   C2        1.0  0.05801  0.85836  0.22853  1.0000
  C   C3        1.0  0.55801  0.35836  0.27147  1.0000
  C   C4        1.0  0.94199  0.14164  0.77147  1.0000
  C   C5        1.0  0.66727  0.56266  0.66232  1.0000
  C   C6        1.0  0.83273  0.93733  0.16232  1.0000
  C   C7        1.0  0.33273  0.43733  0.33768  1.0000
  C   C8        1.0  0.16727  0.06267  0.83768  1.0000
  C   C9        1.0  0.29927  0.67582  0.79178  1.0000
  C   C10       1.0  0.20074  0.82418  0.29178  1.0000
  C   C11       1.0  0.70074  0.32418  0.20822  1.0000
  C   C12       1.0  0.79926  0.17582  0.70822  1.0000
  C   C13       1.0  0.18109  0.74617  0.74706  1.0000
  C   C14       1.0  0.31892  0.75383  0.24706  1.0000
  C   C15       1.0  0.81891  0.25383  0.25294  1.0000
  C   C16       1.0  0.68109  0.24617  0.75294  1.0000
  C   C17       1.0  0.81351  0.49361  0.64411  1.0000
  C   C18       1.0  0.68649  0.00639  0.14411  1.0000
  C   C19       1.0  0.18649  0.50638  0.35589  1.0000
  C   C20       1.0  0.31350  0.99362  0.85589  1.0000
  C   C21       1.0  0.95651  0.48702  0.70837  1.0000
  C   C22       1.0  0.54349  0.01299  0.20837  1.0000
  C   C23       1.0  0.04348  0.51298  0.29162  1.0000
  C   C24       1.0  0.45651  0.98702  0.79163  1.0000
  C   C25       1.0  0.03517  0.77434  0.79963  1.0000
  C   C26       1.0  0.46483  0.72566  0.29962  1.0000
  C   C27       1.0  0.96483  0.22566  0.20037  1.0000
  C   C28       1.0  0.53517  0.27433  0.70037  1.0000
  C   C29       1.0  0.11167  0.67106  0.93765  1.0000
  C   C30       1.0  0.38833  0.82894  0.43765  1.0000
  C   C31       1.0  0.88832  0.32894  0.06235  1.0000
  C   C32       1.0  0.61168  0.17105  0.56235  1.0000
  C   C33       1.0  0.26242  0.63915  0.89031  1.0000
  C   C34       1.0  0.23759  0.86086  0.39031  1.0000
  C   C35       1.0  0.73758  0.36085  0.10969  1.0000
  C   C36       1.0  0.76241  0.13914  0.60969  1.0000
  C   C37       1.0  0.81281  0.43108  0.55505  1.0000
  C   C38       1.0  0.68719  0.06892  0.05505  1.0000
  C   C39       1.0  0.18719  0.56892  0.44495  1.0000
  C   C40       1.0  0.31280  0.93108  0.94495  1.0000
  C   C41       1.0  0.95372  0.36911  0.53219  1.0000
  C   C42       1.0  0.54629  0.13089  0.03219  1.0000
  C   C43       1.0  0.04629  0.63089  0.46781  1.0000
  C   C44       1.0  0.45371  0.86911  0.96780  1.0000
  C   C45       1.0  0.09424  0.42459  0.67860  1.0000
  C   C46       1.0  0.40576  0.07541  0.17860  1.0000
  C   C47       1.0  0.90576  0.57541  0.32140  1.0000
  C   C48       1.0  0.59425  0.92460  0.82140  1.0000
  Br  Br1       1.0  0.68234  0.64393  0.07540  1.0000
  Br  Br2       1.0  0.81766  0.85607  0.57540  1.0000
  Br  Br3       1.0  0.31767  0.35607  0.92460  1.0000
  Br  Br4       1.0  0.18233  0.14392  0.42460  1.0000
  N   N1        1.0  0.44663  0.66503  0.63031  1.0000
  N   N2        1.0  0.05337  0.83498  0.13030  1.0000
  N   N3        1.0  0.55336  0.33497  0.36969  1.0000
  N   N4        1.0  0.94663  0.16503  0.86969  1.0000
  N   N5        1.0  0.58668  0.61682  0.58926  1.0000
  N   N6        1.0  0.91332  0.88318  0.08926  1.0000
  N   N7        1.0  0.41331  0.38317  0.41074  1.0000
  N   N8        1.0  0.08667  0.11683  0.91074  1.0000
  N   N9        1.0  0.58181  0.57819  0.75188  1.0000
  N   N10       1.0  0.91820  0.92181  0.25187  1.0000
  N   N11       1.0  0.41819  0.42181  0.24813  1.0000
  N   N12       1.0  0.08181  0.07819  0.74813  1.0000
  N   N13       1.0  0.63497  0.53195  0.84289  1.0000
  N   N14       1.0  0.86503  0.96804  0.34289  1.0000
  N   N15       1.0  0.36503  0.46804  0.15711  1.0000
  N   N16       1.0  0.13497  0.03196  0.65711  1.0000
  N   N17       1.0  0.99807  0.73800  0.89410  1.0000
  N   N18       1.0  0.50193  0.76200  0.39410  1.0000
  N   N19       1.0  0.00192  0.26200  0.10590  1.0000
  N   N20       1.0  0.49807  0.23800  0.60590  1.0000
  N   N21       1.0  0.09684  0.36738  0.59096  1.0000
  N   N22       1.0  0.40316  0.13262  0.09096  1.0000
  N   N23       1.0  0.90316  0.63262  0.40904  1.0000
  N   N24       1.0  0.59685  0.86738  0.90904  1.0000
