data_image0
_chemical_formula_structural       Cu2H20C24Br2N12
_chemical_formula_sum              "Cu2 H20 C24 Br2 N12"
_cell_length_a       7.41504
_cell_length_b       9.17631
_cell_length_c       9.80297
_cell_angle_alpha    98.5389
_cell_angle_beta     104.832
_cell_angle_gamma    90.984

_space_group_name_H-M_alt    "P 1"
_space_group_IT_number       1

loop_
  _space_group_symop_operation_xyz
  'x, y, z'

loop_
  _atom_site_type_symbol
  _atom_site_label
  _atom_site_symmetry_multiplicity
  _atom_site_fract_x
  _atom_site_fract_y
  _atom_site_fract_z
  _atom_site_occupancy
  Cu  Cu1       1.0  0.64566  0.82479  0.81240  1.0000
  Cu  Cu2       1.0  0.35434  0.17521  0.18759  1.0000
  H   H1        1.0  0.98390  0.59710  0.86997  1.0000
  H   H2        1.0  0.01610  0.40290  0.13003  1.0000
  H   H3        1.0  0.04634  0.41978  0.86823  1.0000
  H   H4        1.0  0.95365  0.58022  0.13178  1.0000
  H   H5        1.0  0.33344  0.52585  0.08756  1.0000
  H   H6        1.0  0.66655  0.47415  0.91244  1.0000
  H   H7        1.0  0.38068  0.66458  0.33625  1.0000
  H   H8        1.0  0.61932  0.33543  0.66375  1.0000
  H   H9        1.0  0.40237  0.94068  0.37420  1.0000
  H   H10       1.0  0.59763  0.05932  0.62580  1.0000
  H   H11       1.0  0.32898  0.94883  0.94212  1.0000
  H   H12       1.0  0.67103  0.05117  0.05788  1.0000
  H   H13       1.0  0.36890  0.40184  0.43389  1.0000
  H   H14       1.0  0.63110  0.59816  0.56611  1.0000
  H   H15       1.0  0.82199  0.08658  0.41980  1.0000
  H   H16       1.0  0.17801  0.91342  0.58020  1.0000
  H   H17       1.0  0.00442  0.03913  0.23772  1.0000
  H   H18       1.0  0.99559  0.96087  0.76229  1.0000
  H   H19       1.0  0.92605  0.29773  0.62273  1.0000
  H   H20       1.0  0.07395  0.70227  0.37727  1.0000
  C   C1        1.0  0.33148  0.72836  0.99657  1.0000
  C   C2        1.0  0.66853  0.27164  0.00343  1.0000
  C   C3        1.0  0.23649  0.49380  0.65335  1.0000
  C   C4        1.0  0.76351  0.50620  0.34665  1.0000
  C   C5        1.0  0.31636  0.65573  0.85110  1.0000
  C   C6        1.0  0.68364  0.34427  0.14890  1.0000
  C   C7        1.0  0.34300  0.64644  0.10815  1.0000
  C   C8        1.0  0.65699  0.35356  0.89185  1.0000
  C   C9        1.0  0.36919  0.72348  0.24601  1.0000
  C   C10       1.0  0.63080  0.27652  0.75399  1.0000
  C   C11       1.0  0.38220  0.87701  0.26761  1.0000
  C   C12       1.0  0.61780  0.12300  0.73239  1.0000
  C   C13       1.0  0.34368  0.88213  0.02713  1.0000
  C   C14       1.0  0.65632  0.11787  0.97287  1.0000
  C   C15       1.0  0.24718  0.33423  0.43502  1.0000
  C   C16       1.0  0.75282  0.66578  0.56498  1.0000
  C   C17       1.0  0.15580  0.36772  0.54384  1.0000
  C   C18       1.0  0.84421  0.63228  0.45616  1.0000
  C   C19       1.0  0.94362  0.15882  0.42797  1.0000
  C   C20       1.0  0.05638  0.84117  0.57203  1.0000
  C   C21       1.0  0.04382  0.13194  0.32548  1.0000
  C   C22       1.0  0.95619  0.86805  0.67452  1.0000
  C   C23       1.0  0.00020  0.27647  0.54014  1.0000
  C   C24       1.0  0.99981  0.72352  0.45986  1.0000
  Br  Br1       1.0  0.85357  0.78585  0.04804  1.0000
  Br  Br2       1.0  0.14642  0.21415  0.95196  1.0000
  N   N1        1.0  0.43395  0.67692  0.77184  1.0000
  N   N2        1.0  0.56605  0.32308  0.22817  1.0000
  N   N3        1.0  0.18670  0.54436  0.77718  1.0000
  N   N4        1.0  0.81330  0.45564  0.22281  1.0000
  N   N5        1.0  0.02072  0.50627  0.80951  1.0000
  N   N6        1.0  0.97928  0.49373  0.19049  1.0000
  N   N7        1.0  0.38612  0.57437  0.65005  1.0000
  N   N8        1.0  0.61388  0.42563  0.34995  1.0000
  N   N9        1.0  0.36869  0.95676  0.16020  1.0000
  N   N10       1.0  0.63131  0.04324  0.83979  1.0000
  N   N11       1.0  0.19541  0.21847  0.32957  1.0000
  N   N12       1.0  0.80459  0.78152  0.67043  1.0000
