data_image0
_chemical_formula_structural       Cu8H40C48Br8N24
_chemical_formula_sum              "Cu8 H40 C48 Br8 N24"
_cell_length_a       9.92722
_cell_length_b       12.1967
_cell_length_c       12.3202
_cell_angle_alpha    90.0002
_cell_angle_beta     90.0002
_cell_angle_gamma    91.6512

_space_group_name_H-M_alt    "P 1"
_space_group_IT_number       1

loop_
  _space_group_symop_operation_xyz
  'x, y, z'

loop_
  _atom_site_type_symbol
  _atom_site_label
  _atom_site_symmetry_multiplicity
  _atom_site_fract_x
  _atom_site_fract_y
  _atom_site_fract_z
  _atom_site_occupancy
  Cu  Cu1       1.0  0.46856  0.66726  0.62717  1.0000
  Cu  Cu2       1.0  0.03144  0.83274  0.12717  1.0000
  Cu  Cu3       1.0  0.53144  0.33274  0.37282  1.0000
  Cu  Cu4       1.0  0.96856  0.16726  0.87283  1.0000
  Cu  Cu5       1.0  0.32375  0.75416  0.00277  1.0000
  Cu  Cu6       1.0  0.17626  0.74585  0.50278  1.0000
  Cu  Cu7       1.0  0.67626  0.24584  0.99723  1.0000
  Cu  Cu8       1.0  0.82374  0.25416  0.49723  1.0000
  H   H1        1.0  0.99398  0.41790  0.80282  1.0000
  H   H2        1.0  0.50602  0.08210  0.30283  1.0000
  H   H3        1.0  0.00602  0.58210  0.19718  1.0000
  H   H4        1.0  0.49398  0.91790  0.69718  1.0000
  H   H5        1.0  0.03718  0.51901  0.89384  1.0000
  H   H6        1.0  0.46281  0.98099  0.39384  1.0000
  H   H7        1.0  0.96282  0.48100  0.10616  1.0000
  H   H8        1.0  0.53718  0.01901  0.60616  1.0000
  H   H9        1.0  0.68621  0.62346  0.47320  1.0000
  H   H10       1.0  0.81379  0.87654  0.97320  1.0000
  H   H11       1.0  0.31379  0.37654  0.52680  1.0000
  H   H12       1.0  0.18621  0.12346  0.02680  1.0000
  H   H13       1.0  0.93190  0.58972  0.48459  1.0000
  H   H14       1.0  0.56810  0.91029  0.98459  1.0000
  H   H15       1.0  0.06810  0.41028  0.51541  1.0000
  H   H16       1.0  0.43190  0.08972  0.01541  1.0000
  H   H17       1.0  0.90371  0.64515  0.83076  1.0000
  H   H18       1.0  0.59629  0.85485  0.33076  1.0000
  H   H19       1.0  0.09629  0.35485  0.16923  1.0000
  H   H20       1.0  0.40371  0.14515  0.66924  1.0000
  H   H21       1.0  0.66048  0.68039  0.80364  1.0000
  H   H22       1.0  0.83952  0.81961  0.30364  1.0000
  H   H23       1.0  0.33953  0.31961  0.19636  1.0000
  H   H24       1.0  0.16047  0.18039  0.69636  1.0000
  H   H25       1.0  0.67441  0.34489  0.77734  1.0000
  H   H26       1.0  0.82558  0.15511  0.27734  1.0000
  H   H27       1.0  0.32559  0.65511  0.22265  1.0000
  H   H28       1.0  0.17441  0.84490  0.72266  1.0000
  H   H29       1.0  0.50871  0.44212  0.66518  1.0000
  H   H30       1.0  0.99129  0.05789  0.16518  1.0000
  H   H31       1.0  0.49129  0.55788  0.33482  1.0000
  H   H32       1.0  0.00871  0.94212  0.83482  1.0000
  H   H33       1.0  0.26057  0.46892  0.95270  1.0000
  H   H34       1.0  0.23943  0.03108  0.45270  1.0000
  H   H35       1.0  0.73943  0.53108  0.04730  1.0000
  H   H36       1.0  0.76057  0.96892  0.54730  1.0000
  H   H37       1.0  0.43569  0.36697  0.05222  1.0000
  H   H38       1.0  0.06431  0.13302  0.55222  1.0000
  H   H39       1.0  0.56431  0.63303  0.94778  1.0000
  H   H40       1.0  0.93569  0.86697  0.44778  1.0000
  C   C1        1.0  0.08055  0.58557  0.67164  1.0000
  C   C2        1.0  0.41946  0.91444  0.17164  1.0000
  C   C3        1.0  0.91946  0.41443  0.32836  1.0000
  C   C4        1.0  0.58054  0.08557  0.82836  1.0000
  C   C5        1.0  0.27159  0.52308  0.73567  1.0000
  C   C6        1.0  0.22841  0.97692  0.23567  1.0000
  C   C7        1.0  0.72841  0.47692  0.26433  1.0000
  C   C8        1.0  0.77159  0.02308  0.76433  1.0000
  C   C9        1.0  0.73826  0.62615  0.55104  1.0000
  C   C10       1.0  0.76175  0.87385  0.05105  1.0000
  C   C11       1.0  0.26175  0.37384  0.44895  1.0000
  C   C12       1.0  0.23825  0.12616  0.94896  1.0000
  C   C13       1.0  0.87486  0.60600  0.55804  1.0000
  C   C14       1.0  0.62514  0.89400  0.05804  1.0000
  C   C15       1.0  0.12514  0.39399  0.44196  1.0000
  C   C16       1.0  0.37486  0.10600  0.94196  1.0000
  C   C17       1.0  0.93779  0.60793  0.66008  1.0000
  C   C18       1.0  0.56221  0.89207  0.16008  1.0000
  C   C19       1.0  0.06221  0.39207  0.33992  1.0000
  C   C20       1.0  0.43779  0.10793  0.83992  1.0000
  C   C21       1.0  0.85911  0.63531  0.75039  1.0000
  C   C22       1.0  0.64089  0.86469  0.25039  1.0000
  C   C23       1.0  0.14089  0.36468  0.24961  1.0000
  C   C24       1.0  0.35911  0.13532  0.74961  1.0000
  C   C25       1.0  0.72383  0.65592  0.73604  1.0000
  C   C26       1.0  0.77617  0.84407  0.23604  1.0000
  C   C27       1.0  0.27617  0.34407  0.26396  1.0000
  C   C28       1.0  0.22383  0.15593  0.76396  1.0000
  C   C29       1.0  0.58124  0.37363  0.81337  1.0000
  C   C30       1.0  0.91875  0.12637  0.31337  1.0000
  C   C31       1.0  0.41876  0.62637  0.18663  1.0000
  C   C32       1.0  0.08124  0.87363  0.68664  1.0000
  C   C33       1.0  0.48832  0.42848  0.75108  1.0000
  C   C34       1.0  0.01168  0.07152  0.25108  1.0000
  C   C35       1.0  0.51168  0.57152  0.24892  1.0000
  C   C36       1.0  0.98832  0.92848  0.74892  1.0000
  C   C37       1.0  0.36901  0.46431  0.79953  1.0000
  C   C38       1.0  0.13099  0.03569  0.29953  1.0000
  C   C39       1.0  0.63099  0.53569  0.20047  1.0000
  C   C40       1.0  0.86901  0.96431  0.70047  1.0000
  C   C41       1.0  0.34921  0.44161  0.91024  1.0000
  C   C42       1.0  0.15078  0.05839  0.41024  1.0000
  C   C43       1.0  0.65079  0.55839  0.08976  1.0000
  C   C44       1.0  0.84921  0.94161  0.58976  1.0000
  C   C45       1.0  0.44681  0.38561  0.96609  1.0000
  C   C46       1.0  0.05319  0.11439  0.46609  1.0000
  C   C47       1.0  0.55319  0.61439  0.03391  1.0000
  C   C48       1.0  0.94681  0.88561  0.53392  1.0000
  Br  Br1       1.0  0.41629  0.78276  0.81911  1.0000
  Br  Br2       1.0  0.08371  0.71724  0.31911  1.0000
  Br  Br3       1.0  0.58371  0.21724  0.18089  1.0000
  Br  Br4       1.0  0.91629  0.28276  0.68089  1.0000
  Br  Br5       1.0  0.41618  0.79848  0.48103  1.0000
  Br  Br6       1.0  0.08383  0.70152  0.98103  1.0000
  Br  Br7       1.0  0.58383  0.20152  0.51897  1.0000
  Br  Br8       1.0  0.91617  0.29848  0.01897  1.0000
  N   N1        1.0  0.18001  0.62041  0.60604  1.0000
  N   N2        1.0  0.31999  0.87959  0.10604  1.0000
  N   N3        1.0  0.81999  0.37958  0.39396  1.0000
  N   N4        1.0  0.68001  0.12041  0.89396  1.0000
  N   N5        1.0  0.29963  0.58313  0.64722  1.0000
  N   N6        1.0  0.20037  0.91688  0.14722  1.0000
  N   N7        1.0  0.70037  0.41687  0.35278  1.0000
  N   N8        1.0  0.79963  0.08313  0.85278  1.0000
  N   N9        1.0  0.13563  0.52507  0.75435  1.0000
  N   N10       1.0  0.36437  0.97493  0.25435  1.0000
  N   N11       1.0  0.86437  0.47493  0.24564  1.0000
  N   N12       1.0  0.63562  0.02507  0.74565  1.0000
  N   N13       1.0  0.07075  0.46552  0.83621  1.0000
  N   N14       1.0  0.42925  0.03448  0.33621  1.0000
  N   N15       1.0  0.92925  0.53448  0.16379  1.0000
  N   N16       1.0  0.57075  0.96552  0.66379  1.0000
  N   N17       1.0  0.66133  0.64933  0.63847  1.0000
  N   N18       1.0  0.83867  0.85067  0.13847  1.0000
  N   N19       1.0  0.33867  0.35067  0.36153  1.0000
  N   N20       1.0  0.16133  0.14933  0.86153  1.0000
  N   N21       1.0  0.56159  0.35157  0.92011  1.0000
  N   N22       1.0  0.93841  0.14842  0.42010  1.0000
  N   N23       1.0  0.43842  0.64843  0.07989  1.0000
  N   N24       1.0  0.06159  0.85158  0.57990  1.0000
