data_image0
_chemical_formula_structural       Cu2H20C24Br2N12
_chemical_formula_sum              "Cu2 H20 C24 Br2 N12"
_cell_length_a       7.37803
_cell_length_b       9.16832
_cell_length_c       9.84519
_cell_angle_alpha    98.7336
_cell_angle_beta     104.458
_cell_angle_gamma    91.0426

_space_group_name_H-M_alt    "P 1"
_space_group_IT_number       1

loop_
  _space_group_symop_operation_xyz
  'x, y, z'

loop_
  _atom_site_type_symbol
  _atom_site_label
  _atom_site_symmetry_multiplicity
  _atom_site_fract_x
  _atom_site_fract_y
  _atom_site_fract_z
  _atom_site_occupancy
  Cu  Cu1       1.0  0.35034  0.17615  0.68723  1.0000
  Cu  Cu2       1.0  0.64966  0.82384  0.31277  1.0000
  H   H1        1.0  0.99811  0.04003  0.73927  1.0000
  H   H2        1.0  0.00189  0.95997  0.26073  1.0000
  H   H3        1.0  0.40039  0.94189  0.87276  1.0000
  H   H4        1.0  0.59961  0.05812  0.12725  1.0000
  H   H5        1.0  0.32685  0.94922  0.44275  1.0000
  H   H6        1.0  0.67317  0.05078  0.55725  1.0000
  H   H7        1.0  0.36556  0.40314  0.93287  1.0000
  H   H8        1.0  0.63444  0.59686  0.06713  1.0000
  H   H9        1.0  0.92560  0.29769  0.12663  1.0000
  H   H10       1.0  0.07439  0.70230  0.87337  1.0000
  H   H11       1.0  0.33729  0.52614  0.58731  1.0000
  H   H12       1.0  0.66270  0.47386  0.41269  1.0000
  H   H13       1.0  0.38241  0.66544  0.83490  1.0000
  H   H14       1.0  0.61758  0.33455  0.16510  1.0000
  H   H15       1.0  0.81793  0.08707  0.92366  1.0000
  H   H16       1.0  0.18206  0.91293  0.07633  1.0000
  H   H17       1.0  0.98286  0.59756  0.37148  1.0000
  H   H18       1.0  0.01714  0.40244  0.62852  1.0000
  H   H19       1.0  0.04605  0.42018  0.36962  1.0000
  H   H20       1.0  0.95396  0.57982  0.63038  1.0000
  C   C1        1.0  0.31740  0.65595  0.35166  1.0000
  C   C2        1.0  0.68260  0.34405  0.64834  1.0000
  C   C3        1.0  0.23636  0.49403  0.15437  1.0000
  C   C4        1.0  0.76363  0.50597  0.84563  1.0000
  C   C5        1.0  0.34224  0.88270  0.52736  1.0000
  C   C6        1.0  0.65777  0.11731  0.47264  1.0000
  C   C7        1.0  0.33228  0.72870  0.49679  1.0000
  C   C8        1.0  0.66772  0.27131  0.50321  1.0000
  C   C9        1.0  0.34529  0.64687  0.60788  1.0000
  C   C10       1.0  0.65471  0.35313  0.39212  1.0000
  C   C11       1.0  0.37046  0.72418  0.74512  1.0000
  C   C12       1.0  0.62954  0.27582  0.25488  1.0000
  C   C13       1.0  0.38127  0.87790  0.76667  1.0000
  C   C14       1.0  0.61874  0.12211  0.23333  1.0000
  C   C15       1.0  0.24378  0.33521  0.93489  1.0000
  C   C16       1.0  0.75622  0.66479  0.06511  1.0000
  C   C17       1.0  0.15413  0.36816  0.04512  1.0000
  C   C18       1.0  0.84587  0.63184  0.95488  1.0000
  C   C19       1.0  0.99833  0.27672  0.04291  1.0000
  C   C20       1.0  0.00167  0.72328  0.95709  1.0000
  C   C21       1.0  0.93987  0.15945  0.93071  1.0000
  C   C22       1.0  0.06014  0.84055  0.06929  1.0000
  C   C23       1.0  0.03856  0.13297  0.82681  1.0000
  C   C24       1.0  0.96144  0.86703  0.17319  1.0000
  Br  Br1       1.0  0.14654  0.21362  0.45173  1.0000
  Br  Br2       1.0  0.85345  0.78638  0.54828  1.0000
  N   N1        1.0  0.43570  0.67671  0.27234  1.0000
  N   N2        1.0  0.56430  0.32329  0.72766  1.0000
  N   N3        1.0  0.38705  0.57414  0.15071  1.0000
  N   N4        1.0  0.61295  0.42586  0.84929  1.0000
  N   N5        1.0  0.18663  0.54480  0.27815  1.0000
  N   N6        1.0  0.81337  0.45520  0.72186  1.0000
  N   N7        1.0  0.02033  0.50655  0.31132  1.0000
  N   N8        1.0  0.97967  0.49345  0.68869  1.0000
  N   N9        1.0  0.36626  0.95759  0.65980  1.0000
  N   N10       1.0  0.63374  0.04241  0.34020  1.0000
  N   N11       1.0  0.19039  0.21971  0.82941  1.0000
  N   N12       1.0  0.80962  0.78029  0.17059  1.0000
