data_image0
_chemical_formula_structural       Cu6H20C24I6N12
_chemical_formula_sum              "Cu6 H20 C24 I6 N12"
_cell_length_a       7.52321
_cell_length_b       7.53722
_cell_length_c       16.0067
_cell_angle_alpha    77.2283
_cell_angle_beta     87.5216
_cell_angle_gamma    88.7332

_space_group_name_H-M_alt    "P 1"
_space_group_IT_number       1

loop_
  _space_group_symop_operation_xyz
  'x, y, z'

loop_
  _atom_site_type_symbol
  _atom_site_label
  _atom_site_symmetry_multiplicity
  _atom_site_fract_x
  _atom_site_fract_y
  _atom_site_fract_z
  _atom_site_occupancy
  Cu  Cu1       1.0  0.68237  0.42164  0.37519  1.0000
  Cu  Cu2       1.0  0.31763  0.57836  0.62481  1.0000
  Cu  Cu3       1.0  0.67186  0.27623  0.17275  1.0000
  Cu  Cu4       1.0  0.32814  0.72376  0.82725  1.0000
  Cu  Cu5       1.0  0.77657  0.98548  0.27121  1.0000
  Cu  Cu6       1.0  0.22343  0.01453  0.72879  1.0000
  H   H1        1.0  0.90731  0.26084  0.86120  1.0000
  H   H2        1.0  0.09269  0.73916  0.13880  1.0000
  H   H3        1.0  0.94980  0.24574  0.76009  1.0000
  H   H4        1.0  0.05020  0.75427  0.23992  1.0000
  H   H5        1.0  0.70953  0.02804  0.45787  1.0000
  H   H6        1.0  0.29046  0.97195  0.54213  1.0000
  H   H7        1.0  0.70740  0.84251  0.60711  1.0000
  H   H8        1.0  0.29259  0.15748  0.39288  1.0000
  H   H9        1.0  0.66778  0.99959  0.73025  1.0000
  H   H10       1.0  0.33222  0.00041  0.26974  1.0000
  H   H11       1.0  0.64424  0.50805  0.54309  1.0000
  H   H12       1.0  0.35577  0.49195  0.45691  1.0000
  H   H13       1.0  0.79575  0.80359  0.84507  1.0000
  H   H14       1.0  0.20425  0.19641  0.15492  1.0000
  H   H15       1.0  0.89345  0.86231  0.98387  1.0000
  H   H16       1.0  0.10655  0.13768  0.01613  1.0000
  H   H17       1.0  0.85351  0.61610  0.11759  1.0000
  H   H18       1.0  0.14649  0.38389  0.88241  1.0000
  H   H19       1.0  0.64068  0.26517  0.98435  1.0000
  H   H20       1.0  0.35932  0.73482  0.01565  1.0000
  C   C1        1.0  0.69175  0.09248  0.51237  1.0000
  C   C2        1.0  0.30824  0.90752  0.48762  1.0000
  C   C3        1.0  0.69115  0.98973  0.59597  1.0000
  C   C4        1.0  0.30885  0.01028  0.40402  1.0000
  C   C5        1.0  0.67059  0.07643  0.66418  1.0000
  C   C6        1.0  0.32940  0.92357  0.33582  1.0000
  C   C7        1.0  0.65117  0.26636  0.64553  1.0000
  C   C8        1.0  0.34884  0.73363  0.35447  1.0000
  C   C9        1.0  0.65371  0.35988  0.55973  1.0000
  C   C10       1.0  0.34629  0.64013  0.44026  1.0000
  C   C11       1.0  0.62377  0.37361  0.71069  1.0000
  C   C12       1.0  0.37624  0.62639  0.28931  1.0000
  C   C13       1.0  0.65289  0.48973  0.82397  1.0000
  C   C14       1.0  0.34710  0.51027  0.17603  1.0000
  C   C15       1.0  0.71516  0.52759  0.90360  1.0000
  C   C16       1.0  0.28483  0.47241  0.09640  1.0000
  C   C17       1.0  0.78377  0.69938  0.90396  1.0000
  C   C18       1.0  0.21623  0.30062  0.09604  1.0000
  C   C19       1.0  0.83840  0.73161  0.98097  1.0000
  C   C20       1.0  0.16160  0.26839  0.01903  1.0000
  C   C21       1.0  0.81769  0.59569  0.05512  1.0000
  C   C22       1.0  0.18229  0.40431  0.94488  1.0000
  C   C23       1.0  0.69844  0.39863  0.98104  1.0000
  C   C24       1.0  0.30156  0.60137  0.01897  1.0000
  I   I1        1.0  0.92960  0.28177  0.28286  1.0000
  I   I2        1.0  0.07040  0.71824  0.71714  1.0000
  I   I3        1.0  0.62618  0.96044  0.13480  1.0000
  I   I4        1.0  0.37383  0.03955  0.86519  1.0000
  I   I5        1.0  0.85033  0.72128  0.39124  1.0000
  I   I6        1.0  0.14967  0.27872  0.60876  1.0000
  N   N1        1.0  0.67340  0.27584  0.49395  1.0000
  N   N2        1.0  0.32660  0.72416  0.50605  1.0000
  N   N3        1.0  0.50489  0.50962  0.70742  1.0000
  N   N4        1.0  0.49512  0.49039  0.29257  1.0000
  N   N5        1.0  0.52130  0.58050  0.77872  1.0000
  N   N6        1.0  0.47871  0.41949  0.22128  1.0000
  N   N7        1.0  0.71832  0.35955  0.78300  1.0000
  N   N8        1.0  0.28168  0.64045  0.21700  1.0000
  N   N9        1.0  0.85247  0.22968  0.80897  1.0000
  N   N10       1.0  0.14753  0.77032  0.19103  1.0000
  N   N11       1.0  0.74661  0.43258  0.05608  1.0000
  N   N12       1.0  0.25339  0.56742  0.94392  1.0000
