data_image0
_chemical_formula_structural       Cu6H20C24I6N12
_chemical_formula_sum              "Cu6 H20 C24 I6 N12"
_cell_length_a       7.40455
_cell_length_b       7.64098
_cell_length_c       15.9418
_cell_angle_alpha    79.2878
_cell_angle_beta     88.822
_cell_angle_gamma    89.2282

_space_group_name_H-M_alt    "P 1"
_space_group_IT_number       1

loop_
  _space_group_symop_operation_xyz
  'x, y, z'

loop_
  _atom_site_type_symbol
  _atom_site_label
  _atom_site_symmetry_multiplicity
  _atom_site_fract_x
  _atom_site_fract_y
  _atom_site_fract_z
  _atom_site_occupancy
  Cu  Cu1       1.0  0.18675  0.42330  0.87357  1.0000
  Cu  Cu2       1.0  0.81326  0.57671  0.12643  1.0000
  Cu  Cu3       1.0  0.16836  0.27190  0.67308  1.0000
  Cu  Cu4       1.0  0.83164  0.72810  0.32692  1.0000
  Cu  Cu5       1.0  0.26339  0.98306  0.76792  1.0000
  Cu  Cu6       1.0  0.73660  0.01694  0.23207  1.0000
  H   H1        1.0  0.69311  0.88015  0.66826  1.0000
  H   H2        1.0  0.30689  0.11985  0.33174  1.0000
  H   H3        1.0  0.54787  0.75710  0.73624  1.0000
  H   H4        1.0  0.45213  0.24290  0.26376  1.0000
  H   H5        1.0  0.86578  0.73144  0.51638  1.0000
  H   H6        1.0  0.13422  0.26855  0.48362  1.0000
  H   H7        1.0  0.58667  0.15856  0.50000  1.0000
  H   H8        1.0  0.41333  0.84144  0.50000  1.0000
  H   H9        1.0  0.69063  0.21126  0.64351  1.0000
  H   H10       1.0  0.30938  0.78874  0.35649  1.0000
  H   H11       1.0  0.83804  0.98846  0.77728  1.0000
  H   H12       1.0  0.16195  0.01155  0.22272  1.0000
  H   H13       1.0  0.79237  0.14050  0.90257  1.0000
  H   H14       1.0  0.20759  0.85950  0.09743  1.0000
  H   H15       1.0  0.78204  0.95818  0.04915  1.0000
  H   H16       1.0  0.21793  0.04181  0.95085  1.0000
  H   H17       1.0  0.84470  0.48809  0.95619  1.0000
  H   H18       1.0  0.15532  0.51191  0.04381  1.0000
  H   H19       1.0  0.63078  0.39807  0.37280  1.0000
  H   H20       1.0  0.36922  0.60193  0.62720  1.0000
  C   C1        1.0  0.84457  0.50955  0.67281  1.0000
  C   C2        1.0  0.15544  0.49045  0.32719  1.0000
  C   C3        1.0  0.87190  0.62024  0.79022  1.0000
  C   C4        1.0  0.12811  0.37976  0.20978  1.0000
  C   C5        1.0  0.78332  0.47589  0.59061  1.0000
  C   C6        1.0  0.21669  0.52411  0.40939  1.0000
  C   C7        1.0  0.80392  0.60267  0.51581  1.0000
  C   C8        1.0  0.19608  0.39734  0.48419  1.0000
  C   C9        1.0  0.67471  0.41581  0.43545  1.0000
  C   C10       1.0  0.32529  0.58419  0.56455  1.0000
  C   C11       1.0  0.65001  0.28258  0.50696  1.0000
  C   C12       1.0  0.34999  0.71742  0.49304  1.0000
  C   C13       1.0  0.70755  0.31100  0.58567  1.0000
  C   C14       1.0  0.29245  0.68900  0.41434  1.0000
  C   C15       1.0  0.84437  0.72484  0.85729  1.0000
  C   C16       1.0  0.15563  0.27517  0.14271  1.0000
  C   C17       1.0  0.82902  0.91113  0.84184  1.0000
  C   C18       1.0  0.17098  0.08887  0.15816  1.0000
  C   C19       1.0  0.80627  0.99614  0.91145  1.0000
  C   C20       1.0  0.19372  0.00386  0.08855  1.0000
  C   C21       1.0  0.80104  0.89533  0.99348  1.0000
  C   C22       1.0  0.19895  0.10466  0.00652  1.0000
  C   C23       1.0  0.83730  0.63316  0.94182  1.0000
  C   C24       1.0  0.16270  0.36685  0.05818  1.0000
  I   I1        1.0  0.43240  0.26905  0.78491  1.0000
  I   I2        1.0  0.56761  0.73095  0.21509  1.0000
  I   I3        1.0  0.34590  0.72766  0.88554  1.0000
  I   I4        1.0  0.65411  0.27234  0.11446  1.0000
  I   I5        1.0  0.09467  0.96531  0.63168  1.0000
  I   I6        1.0  0.90533  0.03470  0.36832  1.0000
  N   N1        1.0  0.98988  0.48602  0.79288  1.0000
  N   N2        1.0  0.01012  0.51398  0.20712  1.0000
  N   N3        1.0  0.97370  0.41758  0.71906  1.0000
  N   N4        1.0  0.02631  0.58242  0.28094  1.0000
  N   N5        1.0  0.77888  0.63773  0.71529  1.0000
  N   N6        1.0  0.22112  0.36227  0.28471  1.0000
  N   N7        1.0  0.63846  0.75583  0.68621  1.0000
  N   N8        1.0  0.36154  0.24417  0.31379  1.0000
  N   N9        1.0  0.81715  0.71558  0.00901  1.0000
  N   N10       1.0  0.18284  0.28442  0.99099  1.0000
  N   N11       1.0  0.75319  0.57251  0.43916  1.0000
  N   N12       1.0  0.24682  0.42749  0.56084  1.0000
