data_image0
_chemical_formula_structural       Cu4H40C48I4N24
_chemical_formula_sum              "Cu4 H40 C48 I4 N24"
_cell_length_a       9.39194
_cell_length_b       9.95891
_cell_length_c       14.285
_cell_angle_alpha    90.0001
_cell_angle_beta     90.3113
_cell_angle_gamma    90

_space_group_name_H-M_alt    "P 1"
_space_group_IT_number       1

loop_
  _space_group_symop_operation_xyz
  'x, y, z'

loop_
  _atom_site_type_symbol
  _atom_site_label
  _atom_site_symmetry_multiplicity
  _atom_site_fract_x
  _atom_site_fract_y
  _atom_site_fract_z
  _atom_site_occupancy
  Cu  Cu1       1.0  0.43242  0.11534  0.98441  1.0000
  Cu  Cu2       1.0  0.56759  0.61534  0.51558  1.0000
  Cu  Cu3       1.0  0.56758  0.88467  0.01559  1.0000
  Cu  Cu4       1.0  0.43242  0.38467  0.48442  1.0000
  H   H1        1.0  0.87317  0.16764  0.25592  1.0000
  H   H2        1.0  0.12682  0.66764  0.24409  1.0000
  H   H3        1.0  0.12683  0.83236  0.74409  1.0000
  H   H4        1.0  0.87317  0.33237  0.75592  1.0000
  H   H5        1.0  0.71190  0.21326  0.21070  1.0000
  H   H6        1.0  0.28810  0.71326  0.28930  1.0000
  H   H7        1.0  0.28810  0.78675  0.78929  1.0000
  H   H8        1.0  0.71190  0.28674  0.71071  1.0000
  H   H9        1.0  0.49817  0.33550  0.84944  1.0000
  H   H10       1.0  0.50184  0.83550  0.65056  1.0000
  H   H11       1.0  0.50183  0.66450  0.15056  1.0000
  H   H12       1.0  0.49817  0.16450  0.34944  1.0000
  H   H13       1.0  0.66892  0.52631  0.84202  1.0000
  H   H14       1.0  0.33108  0.02631  0.65797  1.0000
  H   H15       1.0  0.33108  0.47369  0.15798  1.0000
  H   H16       1.0  0.66892  0.97369  0.34203  1.0000
  H   H17       1.0  0.83097  0.56946  0.98058  1.0000
  H   H18       1.0  0.16903  0.06946  0.51942  1.0000
  H   H19       1.0  0.16903  0.43054  0.01942  1.0000
  H   H20       1.0  0.83096  0.93054  0.48058  1.0000
  H   H21       1.0  0.59809  0.25691  0.12456  1.0000
  H   H22       1.0  0.40191  0.75691  0.37544  1.0000
  H   H23       1.0  0.40190  0.74308  0.87544  1.0000
  H   H24       1.0  0.59810  0.24310  0.62456  1.0000
  H   H25       1.0  0.81233  0.33641  0.42481  1.0000
  H   H26       1.0  0.18767  0.83642  0.07520  1.0000
  H   H27       1.0  0.18767  0.66358  0.57519  1.0000
  H   H28       1.0  0.81234  0.16358  0.92481  1.0000
  H   H29       1.0  0.92498  0.29468  0.58250  1.0000
  H   H30       1.0  0.07503  0.79468  0.91751  1.0000
  H   H31       1.0  0.07503  0.70532  0.41750  1.0000
  H   H32       1.0  0.92498  0.20532  0.08250  1.0000
  H   H33       1.0  0.18729  0.32324  0.60176  1.0000
  H   H34       1.0  0.81272  0.82324  0.89824  1.0000
  H   H35       1.0  0.81272  0.67676  0.39824  1.0000
  H   H36       1.0  0.18729  0.17676  0.10176  1.0000
  H   H37       1.0  0.23468  0.42489  0.32273  1.0000
  H   H38       1.0  0.76532  0.92488  0.17728  1.0000
  H   H39       1.0  0.76532  0.57511  0.67727  1.0000
  H   H40       1.0  0.23469  0.07511  0.82273  1.0000
  C   C1        1.0  0.56393  0.36174  0.90986  1.0000
  C   C2        1.0  0.43607  0.86174  0.59014  1.0000
  C   C3        1.0  0.43606  0.63826  0.09014  1.0000
  C   C4        1.0  0.56393  0.13826  0.40986  1.0000
  C   C5        1.0  0.66152  0.46705  0.90594  1.0000
  C   C6        1.0  0.33848  0.96705  0.59406  1.0000
  C   C7        1.0  0.33848  0.53295  0.09406  1.0000
  C   C8        1.0  0.66152  0.03295  0.40594  1.0000
  C   C9        1.0  0.74935  0.49200  0.98224  1.0000
  C   C10       1.0  0.25065  0.99200  0.51776  1.0000
  C   C11       1.0  0.25065  0.50800  0.01776  1.0000
  C   C12       1.0  0.74934  0.00800  0.48225  1.0000
  C   C13       1.0  0.73249  0.41490  0.06426  1.0000
  C   C14       1.0  0.26751  0.91489  0.43573  1.0000
  C   C15       1.0  0.26750  0.58510  0.93573  1.0000
  C   C16       1.0  0.73249  0.08511  0.56427  1.0000
  C   C17       1.0  0.62644  0.31649  0.06350  1.0000
  C   C18       1.0  0.37355  0.81649  0.43649  1.0000
  C   C19       1.0  0.37355  0.68350  0.93650  1.0000
  C   C20       1.0  0.62645  0.18351  0.56350  1.0000
  C   C21       1.0  0.82796  0.44087  0.14304  1.0000
  C   C22       1.0  0.17204  0.94087  0.35696  1.0000
  C   C23       1.0  0.17204  0.55913  0.85695  1.0000
  C   C24       1.0  0.82796  0.05913  0.64304  1.0000
  C   C25       1.0  0.95726  0.42774  0.27147  1.0000
  C   C26       1.0  0.04274  0.92774  0.22853  1.0000
  C   C27       1.0  0.04274  0.57226  0.72853  1.0000
  C   C28       1.0  0.95727  0.07226  0.77147  1.0000
  C   C29       1.0  0.01513  0.38579  0.36191  1.0000
  C   C30       1.0  0.98486  0.88579  0.13809  1.0000
  C   C31       1.0  0.98487  0.61421  0.63809  1.0000
  C   C32       1.0  0.01514  0.11421  0.86191  1.0000
  C   C33       1.0  0.92689  0.34496  0.43558  1.0000
  C   C34       1.0  0.07311  0.84496  0.06442  1.0000
  C   C35       1.0  0.07311  0.65503  0.56442  1.0000
  C   C36       1.0  0.92690  0.15503  0.93558  1.0000
  C   C37       1.0  0.98946  0.32124  0.52239  1.0000
  C   C38       1.0  0.01054  0.82123  0.97761  1.0000
  C   C39       1.0  0.01054  0.67876  0.47760  1.0000
  C   C40       1.0  0.98946  0.17876  0.02239  1.0000
  C   C41       1.0  0.13560  0.33671  0.53378  1.0000
  C   C42       1.0  0.86440  0.83670  0.96623  1.0000
  C   C43       1.0  0.86441  0.66329  0.46622  1.0000
  C   C44       1.0  0.13560  0.16330  0.03378  1.0000
  C   C45       1.0  0.16174  0.39585  0.37843  1.0000
  C   C46       1.0  0.83826  0.89584  0.12158  1.0000
  C   C47       1.0  0.83826  0.60415  0.62157  1.0000
  C   C48       1.0  0.16175  0.10415  0.87843  1.0000
  I   I1        1.0  0.45848  0.01738  0.15968  1.0000
  I   I2        1.0  0.54151  0.51738  0.34031  1.0000
  I   I3        1.0  0.54152  0.98262  0.84032  1.0000
  I   I4        1.0  0.45848  0.48263  0.65968  1.0000
  N   N1        1.0  0.54755  0.28638  0.98727  1.0000
  N   N2        1.0  0.45245  0.78639  0.51273  1.0000
  N   N3        1.0  0.45244  0.71362  0.01273  1.0000
  N   N4        1.0  0.54755  0.21362  0.48727  1.0000
  N   N5        1.0  0.91392  0.54786  0.14628  1.0000
  N   N6        1.0  0.08608  0.04786  0.35373  1.0000
  N   N7        1.0  0.08608  0.45213  0.85372  1.0000
  N   N8        1.0  0.91392  0.95214  0.64628  1.0000
  N   N9        1.0  0.99489  0.53860  0.22506  1.0000
  N   N10       1.0  0.00511  0.03860  0.27495  1.0000
  N   N11       1.0  0.00511  0.46140  0.77494  1.0000
  N   N12       1.0  0.99489  0.96140  0.72506  1.0000
  N   N13       1.0  0.85305  0.36277  0.22162  1.0000
  N   N14       1.0  0.14695  0.86277  0.27838  1.0000
  N   N15       1.0  0.14695  0.63723  0.77838  1.0000
  N   N16       1.0  0.85305  0.13724  0.72162  1.0000
  N   N17       1.0  0.79452  0.24244  0.25223  1.0000
  N   N18       1.0  0.20547  0.74243  0.24777  1.0000
  N   N19       1.0  0.20547  0.75757  0.74777  1.0000
  N   N20       1.0  0.79453  0.25757  0.75223  1.0000
  N   N21       1.0  0.22174  0.37258  0.46267  1.0000
  N   N22       1.0  0.77826  0.87257  0.03733  1.0000
  N   N23       1.0  0.77826  0.62742  0.53733  1.0000
  N   N24       1.0  0.22174  0.12742  0.96267  1.0000
