data_image0
_chemical_formula_structural       Cu10H16C16Br6N24
_chemical_formula_sum              "Cu10 H16 C16 Br6 N24"
_cell_length_a       6.287
_cell_length_b       7.20406
_cell_length_c       20.6214
_cell_angle_alpha    90.0001
_cell_angle_beta     90.0003
_cell_angle_gamma    88.2903

_space_group_name_H-M_alt    "P 1"
_space_group_IT_number       1

loop_
  _space_group_symop_operation_xyz
  'x, y, z'

loop_
  _atom_site_type_symbol
  _atom_site_label
  _atom_site_symmetry_multiplicity
  _atom_site_fract_x
  _atom_site_fract_y
  _atom_site_fract_z
  _atom_site_occupancy
  Cu  Cu1       1.0  0.99999  0.50000  1.00000  1.0000
  Cu  Cu2       1.0  0.00000  0.50000  0.50000  1.0000
  Cu  Cu3       1.0  0.64922  0.74357  0.99868  1.0000
  Cu  Cu4       1.0  0.35078  0.25644  0.49868  1.0000
  Cu  Cu5       1.0  0.35077  0.25643  0.00132  1.0000
  Cu  Cu6       1.0  0.64923  0.74356  0.50132  1.0000
  Cu  Cu7       1.0  0.03146  0.51349  0.75000  1.0000
  Cu  Cu8       1.0  0.96854  0.48651  0.25000  1.0000
  Cu  Cu9       1.0  0.03030  0.98660  0.75000  1.0000
  Cu  Cu10      1.0  0.96971  0.01340  0.25000  1.0000
  H   H1        1.0  0.74601  0.04534  0.11018  1.0000
  H   H2        1.0  0.25398  0.95466  0.61018  1.0000
  H   H3        1.0  0.25399  0.95466  0.88983  1.0000
  H   H4        1.0  0.74604  0.04533  0.38983  1.0000
  H   H5        1.0  0.72440  0.46112  0.11560  1.0000
  H   H6        1.0  0.27560  0.53888  0.61561  1.0000
  H   H7        1.0  0.27558  0.53888  0.88440  1.0000
  H   H8        1.0  0.72440  0.46112  0.38439  1.0000
  H   H9        1.0  0.73875  0.46108  0.88370  1.0000
  H   H10       1.0  0.26122  0.53892  0.38371  1.0000
  H   H11       1.0  0.26123  0.53891  0.11629  1.0000
  H   H12       1.0  0.73874  0.46108  0.61630  1.0000
  H   H13       1.0  0.75014  0.04414  0.88885  1.0000
  H   H14       1.0  0.24988  0.95586  0.38886  1.0000
  H   H15       1.0  0.24987  0.95586  0.11115  1.0000
  H   H16       1.0  0.75015  0.04414  0.61114  1.0000
  C   C1        1.0  0.76471  0.90132  0.12489  1.0000
  C   C2        1.0  0.23528  0.09869  0.62489  1.0000
  C   C3        1.0  0.23528  0.09868  0.87511  1.0000
  C   C4        1.0  0.76472  0.90131  0.37511  1.0000
  C   C5        1.0  0.75455  0.60456  0.12741  1.0000
  C   C6        1.0  0.24544  0.39544  0.62741  1.0000
  C   C7        1.0  0.24544  0.39544  0.87259  1.0000
  C   C8        1.0  0.75457  0.60456  0.37258  1.0000
  C   C9        1.0  0.76533  0.60437  0.87090  1.0000
  C   C10       1.0  0.23466  0.39563  0.37089  1.0000
  C   C11       1.0  0.23466  0.39562  0.12910  1.0000
  C   C12       1.0  0.76532  0.60436  0.62910  1.0000
  C   C13       1.0  0.76961  0.90100  0.87327  1.0000
  C   C14       1.0  0.23039  0.09902  0.37327  1.0000
  C   C15       1.0  0.23038  0.09901  0.12673  1.0000
  C   C16       1.0  0.76963  0.90099  0.62673  1.0000
  Br  Br1       1.0  0.35217  0.74399  0.75001  1.0000
  Br  Br2       1.0  0.64782  0.25602  0.25000  1.0000
  Br  Br3       1.0  0.21473  0.74931  0.00050  1.0000
  Br  Br4       1.0  0.78527  0.25069  0.50050  1.0000
  Br  Br5       1.0  0.78525  0.25069  0.99950  1.0000
  Br  Br6       1.0  0.21474  0.74931  0.49949  1.0000
  N   N1        1.0  0.85671  0.84647  0.18015  1.0000
  N   N2        1.0  0.14329  0.15351  0.68015  1.0000
  N   N3        1.0  0.14329  0.15351  0.81985  1.0000
  N   N4        1.0  0.85671  0.84647  0.31985  1.0000
  N   N5        1.0  0.85039  0.65725  0.18154  1.0000
  N   N6        1.0  0.14961  0.34276  0.68155  1.0000
  N   N7        1.0  0.14960  0.34276  0.81846  1.0000
  N   N8        1.0  0.85040  0.65725  0.31846  1.0000
  N   N9        1.0  0.69950  0.75369  0.08987  1.0000
  N   N10       1.0  0.30049  0.24632  0.58987  1.0000
  N   N11       1.0  0.30050  0.24631  0.91013  1.0000
  N   N12       1.0  0.69952  0.75368  0.41013  1.0000
  N   N13       1.0  0.86655  0.65788  0.81791  1.0000
  N   N14       1.0  0.13344  0.34211  0.31791  1.0000
  N   N15       1.0  0.13344  0.34211  0.18209  1.0000
  N   N16       1.0  0.86656  0.65788  0.68209  1.0000
  N   N17       1.0  0.86866  0.84702  0.81916  1.0000
  N   N18       1.0  0.13135  0.15300  0.31916  1.0000
  N   N19       1.0  0.13134  0.15300  0.18084  1.0000
  N   N20       1.0  0.86867  0.84702  0.68084  1.0000
  N   N21       1.0  0.70299  0.75283  0.90778  1.0000
  N   N22       1.0  0.29700  0.24717  0.40778  1.0000
  N   N23       1.0  0.29701  0.24717  0.09222  1.0000
  N   N24       1.0  0.70300  0.75283  0.59222  1.0000
