data_image0
_chemical_formula_structural       Cd2H10C4S2N6O10
_chemical_formula_sum              "Cd2 H10 C4 S2 N6 O10"
_cell_length_a       5.49839
_cell_length_b       7.98446
_cell_length_c       9.40384
_cell_angle_alpha    79.1516
_cell_angle_beta     73.2077
_cell_angle_gamma    87.0659

_space_group_name_H-M_alt    "P 1"
_space_group_IT_number       1

loop_
  _space_group_symop_operation_xyz
  'x, y, z'

loop_
  _atom_site_type_symbol
  _atom_site_label
  _atom_site_symmetry_multiplicity
  _atom_site_fract_x
  _atom_site_fract_y
  _atom_site_fract_z
  _atom_site_occupancy
  Cd  Cd1       1.0  1.00000  0.00000  0.00000  1.0000
  Cd  Cd2       1.0  0.50000  0.50000  0.50000  1.0000
  H   H1        1.0  0.47088  0.81499  0.72410  1.0000
  H   H2        1.0  0.52911  0.18502  0.27589  1.0000
  H   H3        1.0  0.89536  0.47082  0.75052  1.0000
  H   H4        1.0  0.10465  0.52917  0.24948  1.0000
  H   H5        1.0  0.73197  0.66477  0.95607  1.0000
  H   H6        1.0  0.26803  0.33523  0.04393  1.0000
  H   H7        1.0  0.03143  0.27808  0.56799  1.0000
  H   H8        1.0  0.96857  0.72193  0.43200  1.0000
  H   H9        1.0  0.25476  0.20011  0.62932  1.0000
  H   H10       1.0  0.74524  0.79989  0.37067  1.0000
  C   C1        1.0  0.29310  0.74493  0.75924  1.0000
  C   C2        1.0  0.70689  0.25508  0.24076  1.0000
  C   C3        1.0  0.00383  0.56886  0.77077  1.0000
  C   C4        1.0  0.99618  0.43114  0.22924  1.0000
  S   S1        1.0  0.42659  0.79182  0.19130  1.0000
  S   S2        1.0  0.57341  0.20818  0.80870  1.0000
  N   N1        1.0  0.24405  0.61629  0.69487  1.0000
  N   N2        1.0  0.75595  0.38371  0.30513  1.0000
  N   N3        1.0  0.09449  0.77637  0.87065  1.0000
  N   N4        1.0  0.90552  0.22362  0.12935  1.0000
  N   N5        1.0  0.91337  0.66428  0.87628  1.0000
  N   N6        1.0  0.08664  0.33572  0.12372  1.0000
  O   O1        1.0  0.21908  0.26610  0.53687  1.0000
  O   O2        1.0  0.78092  0.73391  0.46312  1.0000
  O   O3        1.0  0.29578  0.69269  0.34588  1.0000
  O   O4        1.0  0.70422  0.30731  0.65412  1.0000
  O   O5        1.0  0.67768  0.85223  0.19736  1.0000
  O   O6        1.0  0.32231  0.14777  0.80264  1.0000
  O   O7        1.0  0.26727  0.94036  0.15748  1.0000
  O   O8        1.0  0.73272  0.05964  0.84252  1.0000
  O   O9        1.0  0.46674  0.67783  0.07929  1.0000
  O   O10       1.0  0.53325  0.32217  0.92071  1.0000
