data_image0
_chemical_formula_structural       Zn4H12C8S4N12O16
_chemical_formula_sum              "Zn4 H12 C8 S4 N12 O16"
_cell_length_a       5.19156
_cell_length_b       7.81388
_cell_length_c       14.9892
_cell_angle_alpha    87.5784
_cell_angle_beta     88.2834
_cell_angle_gamma    85.7497

_space_group_name_H-M_alt    "P 1"
_space_group_IT_number       1

loop_
  _space_group_symop_operation_xyz
  'x, y, z'

loop_
  _atom_site_type_symbol
  _atom_site_label
  _atom_site_symmetry_multiplicity
  _atom_site_fract_x
  _atom_site_fract_y
  _atom_site_fract_z
  _atom_site_occupancy
  Zn  Zn1       1.0  0.50000  0.50000  0.00000  1.0000
  Zn  Zn2       1.0  0.17388  0.10046  0.73417  1.0000
  Zn  Zn3       1.0  0.82611  0.89954  0.26583  1.0000
  Zn  Zn4       1.0  0.50000  1.00000  0.50000  1.0000
  H   H1        1.0  0.67291  0.09645  0.85645  1.0000
  H   H2        1.0  0.32709  0.90356  0.14355  1.0000
  H   H3        1.0  0.13854  0.71792  0.83889  1.0000
  H   H4        1.0  0.86146  0.28209  0.16111  1.0000
  H   H5        1.0  0.14761  0.66684  0.48218  1.0000
  H   H6        1.0  0.85238  0.33316  0.51781  1.0000
  H   H7        1.0  0.59224  0.54996  0.24883  1.0000
  H   H8        1.0  0.40776  0.45004  0.75117  1.0000
  H   H9        1.0  0.77821  0.84619  0.97443  1.0000
  H   H10       1.0  0.22179  0.15381  0.02557  1.0000
  H   H11       1.0  0.20927  0.45377  0.35206  1.0000
  H   H12       1.0  0.79073  0.54623  0.64794  1.0000
  C   C1        1.0  0.56794  0.98225  0.86709  1.0000
  C   C2        1.0  0.43205  0.01774  0.13291  1.0000
  C   C3        1.0  0.29763  0.78834  0.85947  1.0000
  C   C4        1.0  0.70237  0.21166  0.14053  1.0000
  C   C5        1.0  0.29529  0.66939  0.42968  1.0000
  C   C6        1.0  0.70471  0.33061  0.57032  1.0000
  C   C7        1.0  0.52046  0.60896  0.30980  1.0000
  C   C8        1.0  0.47954  0.39104  0.69020  1.0000
  S   S1        1.0  0.02855  0.33139  0.89481  1.0000
  S   S2        1.0  0.97145  0.66861  0.10519  1.0000
  S   S3        1.0  0.00114  0.84150  0.62593  1.0000
  S   S4        1.0  0.99886  0.15849  0.37407  1.0000
  N   N1        1.0  0.45611  0.73407  0.92410  1.0000
  N   N2        1.0  0.54389  0.26593  0.07590  1.0000
  N   N3        1.0  0.62537  0.85780  0.92793  1.0000
  N   N4        1.0  0.37462  0.14221  0.07206  1.0000
  N   N5        1.0  0.36125  0.94239  0.82256  1.0000
  N   N6        1.0  0.63875  0.05762  0.17744  1.0000
  N   N7        1.0  0.45990  0.78991  0.41720  1.0000
  N   N8        1.0  0.54009  0.21009  0.58280  1.0000
  N   N9        1.0  0.60291  0.75117  0.34104  1.0000
  N   N10       1.0  0.39709  0.24882  0.65896  1.0000
  N   N11       1.0  0.32914  0.55484  0.36415  1.0000
  N   N12       1.0  0.67086  0.44516  0.63585  1.0000
  O   O1        1.0  0.84448  0.47719  0.91822  1.0000
  O   O2        1.0  0.15552  0.52281  0.08178  1.0000
  O   O3        1.0  0.29995  0.38389  0.89468  1.0000
  O   O4        1.0  0.70005  0.61611  0.10532  1.0000
  O   O5        1.0  0.00119  0.17890  0.95570  1.0000
  O   O6        1.0  0.99881  0.82110  0.04430  1.0000
  O   O7        1.0  0.97052  0.28417  0.80104  1.0000
  O   O8        1.0  0.02949  0.71583  0.19896  1.0000
  O   O9        1.0  0.89210  0.97597  0.68945  1.0000
  O   O10       1.0  0.10790  0.02403  0.31055  1.0000
  O   O11       1.0  0.00258  0.66948  0.67136  1.0000
  O   O12       1.0  0.99742  0.33052  0.32865  1.0000
  O   O13       1.0  0.84155  0.84775  0.54530  1.0000
  O   O14       1.0  0.15845  0.15224  0.45470  1.0000
  O   O15       1.0  0.27402  0.87965  0.60317  1.0000
  O   O16       1.0  0.72598  0.12034  0.39683  1.0000
