data_image0
_chemical_formula_structural       Zn4H12C8N16O14
_chemical_formula_sum              "Zn4 H12 C8 N16 O14"
_cell_length_a       8.06011
_cell_length_b       9.05157
_cell_length_c       9.80628
_cell_angle_alpha    77.455
_cell_angle_beta     68.463
_cell_angle_gamma    66.6899

_space_group_name_H-M_alt    "P 1"
_space_group_IT_number       1

loop_
  _space_group_symop_operation_xyz
  'x, y, z'

loop_
  _atom_site_type_symbol
  _atom_site_label
  _atom_site_symmetry_multiplicity
  _atom_site_fract_x
  _atom_site_fract_y
  _atom_site_fract_z
  _atom_site_occupancy
  Zn  Zn1       1.0  0.17200  0.98803  0.08235  1.0000
  Zn  Zn2       1.0  0.82800  0.01197  0.91765  1.0000
  Zn  Zn3       1.0  0.60451  0.62924  0.52337  1.0000
  Zn  Zn4       1.0  0.39549  0.37076  0.47663  1.0000
  H   H1        1.0  0.13721  0.82554  0.63419  1.0000
  H   H2        1.0  0.86279  0.17446  0.36581  1.0000
  H   H3        1.0  0.53747  0.76107  0.84267  1.0000
  H   H4        1.0  0.46253  0.23893  0.15733  1.0000
  H   H5        1.0  0.21940  0.61737  0.21264  1.0000
  H   H6        1.0  0.78059  0.38263  0.78736  1.0000
  H   H7        1.0  0.42590  0.93650  0.29885  1.0000
  H   H8        1.0  0.57410  0.06350  0.70115  1.0000
  H   H9        1.0  0.85282  0.57223  0.24630  1.0000
  H   H10       1.0  0.14718  0.42777  0.75370  1.0000
  H   H11       1.0  0.95823  0.44468  0.35700  1.0000
  H   H12       1.0  0.04177  0.55532  0.64300  1.0000
  C   C1        1.0  0.20394  0.83045  0.71037  1.0000
  C   C2        1.0  0.79606  0.16955  0.28963  1.0000
  C   C3        1.0  0.40656  0.79835  0.81582  1.0000
  C   C4        1.0  0.59344  0.20165  0.18418  1.0000
  C   C5        1.0  0.28556  0.66960  0.25859  1.0000
  C   C6        1.0  0.71444  0.33040  0.74141  1.0000
  C   C7        1.0  0.39009  0.83209  0.30203  1.0000
  C   C8        1.0  0.60991  0.16791  0.69797  1.0000
  N   N1        1.0  0.39109  0.76093  0.69615  1.0000
  N   N2        1.0  0.60891  0.23908  0.30385  1.0000
  N   N3        1.0  0.10777  0.90797  0.83205  1.0000
  N   N4        1.0  0.89223  0.09203  0.16795  1.0000
  N   N5        1.0  0.23799  0.88773  0.89993  1.0000
  N   N6        1.0  0.76201  0.11227  0.10007  1.0000
  N   N7        1.0  0.29523  0.81987  0.21848  1.0000
  N   N8        1.0  0.70477  0.18013  0.78152  1.0000
  N   N9        1.0  0.36921  0.59369  0.36082  1.0000
  N   N10       1.0  0.63079  0.40631  0.63918  1.0000
  N   N11       1.0  0.43645  0.69758  0.38847  1.0000
  N   N12       1.0  0.56355  0.30243  0.61153  1.0000
  N   N13       1.0  0.22903  0.28602  0.98921  1.0000
  N   N14       1.0  0.77096  0.71398  0.01079  1.0000
  N   N15       1.0  0.82665  0.79086  0.51684  1.0000
  N   N16       1.0  0.17335  0.20914  0.48316  1.0000
  O   O1        1.0  0.28090  0.15668  0.07719  1.0000
  O   O2        1.0  0.71910  0.84332  0.92281  1.0000
  O   O3        1.0  0.14080  0.28141  0.90795  1.0000
  O   O4        1.0  0.85920  0.71859  0.09205  1.0000
  O   O5        1.0  0.27069  0.40361  0.98939  1.0000
  O   O6        1.0  0.72931  0.59639  0.01061  1.0000
  O   O7        1.0  0.83128  0.65578  0.59780  1.0000
  O   O8        1.0  0.16872  0.34423  0.40220  1.0000
  O   O9        1.0  0.71202  0.84232  0.44194  1.0000
  O   O10       1.0  0.28798  0.15768  0.55806  1.0000
  O   O11       1.0  0.92903  0.86440  0.51435  1.0000
  O   O12       1.0  0.07097  0.13560  0.48565  1.0000
  O   O13       1.0  0.83272  0.50652  0.34191  1.0000
  O   O14       1.0  0.16729  0.49348  0.65809  1.0000
