data_image0
_chemical_formula_structural       Co2H32C40N4O8
_chemical_formula_sum              "Co2 H32 C40 N4 O8"
_cell_length_a       9.84922
_cell_length_b       10.1182
_cell_length_c       9.97898
_cell_angle_alpha    78.8433
_cell_angle_beta     86.4971
_cell_angle_gamma    68.4896

_space_group_name_H-M_alt    "P 1"
_space_group_IT_number       1

loop_
  _space_group_symop_operation_xyz
  'x, y, z'

loop_
  _atom_site_type_symbol
  _atom_site_label
  _atom_site_symmetry_multiplicity
  _atom_site_fract_x
  _atom_site_fract_y
  _atom_site_fract_z
  _atom_site_occupancy
  Co  Co1       1.0  0.53865  0.64070  0.62627  1.0000
  Co  Co2       1.0  0.46135  0.35931  0.37373  1.0000
  H   H1        1.0  0.31350  0.75291  0.07706  1.0000
  H   H2        1.0  0.68649  0.24710  0.92295  1.0000
  H   H3        1.0  0.28868  0.98421  0.92019  1.0000
  H   H4        1.0  0.71130  0.01580  0.07982  1.0000
  H   H5        1.0  0.32964  0.18148  0.00851  1.0000
  H   H6        1.0  0.67035  0.81853  0.99149  1.0000
  H   H7        1.0  0.42479  0.91334  0.40754  1.0000
  H   H8        1.0  0.57523  0.08667  0.59246  1.0000
  H   H9        1.0  0.23450  0.85213  0.65832  1.0000
  H   H10       1.0  0.76547  0.14788  0.34167  1.0000
  H   H11       1.0  0.02077  0.87838  0.81507  1.0000
  H   H12       1.0  0.97919  0.12160  0.18491  1.0000
  H   H13       1.0  0.27337  0.45863  0.04655  1.0000
  H   H14       1.0  0.72665  0.54140  0.95347  1.0000
  H   H15       1.0  0.47214  0.45146  0.88050  1.0000
  H   H16       1.0  0.52788  0.54858  0.11951  1.0000
  H   H17       1.0  0.92428  0.79314  0.02505  1.0000
  H   H18       1.0  0.07573  0.20687  0.97497  1.0000
  H   H19       1.0  0.94752  0.61200  0.02718  1.0000
  H   H20       1.0  0.05245  0.38803  0.97280  1.0000
  H   H21       1.0  0.10626  0.71727  0.21465  1.0000
  H   H22       1.0  0.89377  0.28268  0.78536  1.0000
  H   H23       1.0  0.14263  0.53347  0.21362  1.0000
  H   H24       1.0  0.85736  0.46649  0.78636  1.0000
  H   H25       1.0  0.86254  0.87036  0.30465  1.0000
  H   H26       1.0  0.13747  0.12962  0.69531  1.0000
  H   H27       1.0  0.66573  0.86153  0.46869  1.0000
  H   H28       1.0  0.33427  0.13847  0.53128  1.0000
  H   H29       1.0  0.76764  0.42473  0.47530  1.0000
  H   H30       1.0  0.23236  0.57526  0.52472  1.0000
  H   H31       1.0  0.97166  0.41511  0.31281  1.0000
  H   H32       1.0  0.02836  0.58485  0.68722  1.0000
  C   C1        1.0  0.33141  0.83928  0.11491  1.0000
  C   C2        1.0  0.66859  0.16072  0.88510  1.0000
  C   C3        1.0  0.31653  0.96950  0.02760  1.0000
  C   C4        1.0  0.68345  0.03050  0.97241  1.0000
  C   C5        1.0  0.33984  0.07997  0.07644  1.0000
  C   C6        1.0  0.66016  0.92004  0.92356  1.0000
  C   C7        1.0  0.38086  0.05895  0.21318  1.0000
  C   C8        1.0  0.61915  0.94105  0.78682  1.0000
  C   C9        1.0  0.39459  0.92889  0.30086  1.0000
  C   C10       1.0  0.60542  0.07111  0.69914  1.0000
  C   C11       1.0  0.36925  0.81878  0.25290  1.0000
  C   C12       1.0  0.63076  0.18123  0.74711  1.0000
  C   C13       1.0  0.38558  0.68115  0.34988  1.0000
  C   C14       1.0  0.61442  0.31886  0.65013  1.0000
  C   C15       1.0  0.41170  0.17183  0.26841  1.0000
  C   C16       1.0  0.58831  0.82818  0.73159  1.0000
  C   C17       1.0  0.23726  0.76778  0.74579  1.0000
  C   C18       1.0  0.76272  0.23224  0.25420  1.0000
  C   C19       1.0  0.11925  0.78129  0.83345  1.0000
  C   C20       1.0  0.88073  0.21870  0.16654  1.0000
  C   C21       1.0  0.12795  0.67071  0.94550  1.0000
  C   C22       1.0  0.87205  0.32930  0.05449  1.0000
  C   C23       1.0  0.25721  0.54892  0.96147  1.0000
  C   C24       1.0  0.74280  0.45110  0.03854  1.0000
  C   C25       1.0  0.37008  0.54416  0.86983  1.0000
  C   C26       1.0  0.62994  0.45588  0.13017  1.0000
  C   C27       1.0  0.00487  0.68252  0.04517  1.0000
  C   C28       1.0  0.99513  0.31748  0.95483  1.0000
  C   C29       1.0  0.05682  0.64132  0.19537  1.0000
  C   C30       1.0  0.94318  0.35865  0.80463  1.0000
  C   C31       1.0  0.93523  0.64258  0.29386  1.0000
  C   C32       1.0  0.06478  0.35739  0.70613  1.0000
  C   C33       1.0  0.84613  0.76828  0.34012  1.0000
  C   C34       1.0  0.15386  0.23171  0.65987  1.0000
  C   C35       1.0  0.73623  0.76384  0.43321  1.0000
  C   C36       1.0  0.26378  0.23614  0.56676  1.0000
  C   C37       1.0  0.79349  0.52083  0.43653  1.0000
  C   C38       1.0  0.20652  0.47916  0.56347  1.0000
  C   C39       1.0  0.90565  0.51696  0.34406  1.0000
  C   C40       1.0  0.09435  0.48302  0.65596  1.0000
  N   N1        1.0  0.36236  0.65155  0.76358  1.0000
  N   N2        1.0  0.63763  0.34847  0.23642  1.0000
  N   N3        1.0  0.70952  0.64180  0.48249  1.0000
  N   N4        1.0  0.29047  0.35821  0.51750  1.0000
  O   O1        1.0  0.33780  0.30564  0.22749  1.0000
  O   O2        1.0  0.66221  0.69436  0.77250  1.0000
  O   O3        1.0  0.51142  0.13279  0.35980  1.0000
  O   O4        1.0  0.48859  0.86722  0.64020  1.0000
  O   O5        1.0  0.40011  0.67803  0.47688  1.0000
  O   O6        1.0  0.59988  0.32197  0.52312  1.0000
  O   O7        1.0  0.37970  0.57536  0.30217  1.0000
  O   O8        1.0  0.62032  0.42464  0.69782  1.0000
