data_image0
_chemical_formula_structural       Zn2H32C40N4O8
_chemical_formula_sum              "Zn2 H32 C40 N4 O8"
_cell_length_a       8.29977
_cell_length_b       9.68808
_cell_length_c       11.5831
_cell_angle_alpha    66.6545
_cell_angle_beta     76.6898
_cell_angle_gamma    88.6323

_space_group_name_H-M_alt    "P 1"
_space_group_IT_number       1

loop_
  _space_group_symop_operation_xyz
  'x, y, z'

loop_
  _atom_site_type_symbol
  _atom_site_label
  _atom_site_symmetry_multiplicity
  _atom_site_fract_x
  _atom_site_fract_y
  _atom_site_fract_z
  _atom_site_occupancy
  Zn  Zn1       1.0  0.72920  0.22406  0.06797  1.0000
  Zn  Zn2       1.0  0.27080  0.77594  0.93203  1.0000
  H   H1        1.0  0.76352  0.67711  0.07096  1.0000
  H   H2        1.0  0.23649  0.32289  0.92903  1.0000
  H   H3        1.0  0.96693  0.38558  0.38254  1.0000
  H   H4        1.0  0.03308  0.61442  0.61746  1.0000
  H   H5        1.0  0.05420  0.60937  0.41684  1.0000
  H   H6        1.0  0.94581  0.39063  0.58316  1.0000
  H   H7        1.0  0.98664  0.86630  0.27914  1.0000
  H   H8        1.0  0.01336  0.13370  0.72086  1.0000
  H   H9        1.0  0.37955  0.24977  0.04877  1.0000
  H   H10       1.0  0.62044  0.75023  0.95123  1.0000
  H   H11       1.0  0.09396  0.15443  0.18980  1.0000
  H   H12       1.0  0.90604  0.84556  0.81020  1.0000
  H   H13       1.0  0.32302  0.90281  0.50252  1.0000
  H   H14       1.0  0.67697  0.09719  0.49749  1.0000
  H   H15       1.0  0.60142  0.01446  0.34737  1.0000
  H   H16       1.0  0.39858  0.98554  0.65264  1.0000
  H   H17       1.0  0.01117  0.84318  0.49837  1.0000
  H   H18       1.0  0.98883  0.15682  0.50164  1.0000
  H   H19       1.0  0.92235  0.99781  0.39277  1.0000
  H   H20       1.0  0.07765  0.00219  0.60723  1.0000
  H   H21       1.0  0.72006  0.53807  0.88387  1.0000
  H   H22       1.0  0.27994  0.46193  0.11613  1.0000
  H   H23       1.0  0.63885  0.67551  0.67481  1.0000
  H   H24       1.0  0.36116  0.32449  0.32519  1.0000
  H   H25       1.0  0.53787  0.24125  0.67316  1.0000
  H   H26       1.0  0.46213  0.75876  0.32683  1.0000
  H   H27       1.0  0.62418  0.12340  0.88106  1.0000
  H   H28       1.0  0.37581  0.87660  0.11894  1.0000
  H   H29       1.0  0.63471  0.62851  0.45799  1.0000
  H   H30       1.0  0.36529  0.37150  0.54201  1.0000
  H   H31       1.0  0.42943  0.62287  0.54633  1.0000
  H   H32       1.0  0.57057  0.37713  0.45367  1.0000
  C   C1        1.0  0.82666  0.66227  0.14693  1.0000
  C   C2        1.0  0.17335  0.33773  0.85307  1.0000
  C   C3        1.0  0.86261  0.51767  0.22314  1.0000
  C   C4        1.0  0.13740  0.48233  0.77686  1.0000
  C   C5        1.0  0.94050  0.49898  0.32317  1.0000
  C   C6        1.0  0.05950  0.50102  0.67682  1.0000
  C   C7        1.0  0.98696  0.62367  0.34292  1.0000
  C   C8        1.0  0.01304  0.37632  0.65708  1.0000
  C   C9        1.0  0.95076  0.76742  0.26606  1.0000
  C   C10       1.0  0.04924  0.23258  0.73394  1.0000
  C   C11       1.0  0.86661  0.78738  0.16952  1.0000
  C   C12       1.0  0.13340  0.21262  0.83048  1.0000
  C   C13       1.0  0.80831  0.93873  0.09834  1.0000
  C   C14       1.0  0.19170  0.06127  0.90165  1.0000
  C   C15       1.0  0.81565  0.38172  0.20237  1.0000
  C   C16       1.0  0.18435  0.61828  0.79763  1.0000
  C   C17       1.0  0.36108  0.17550  0.15052  1.0000
  C   C18       1.0  0.63892  0.82450  0.84948  1.0000
  C   C19       1.0  0.20290  0.12215  0.22931  1.0000
  C   C20       1.0  0.79710  0.87785  0.77069  1.0000
  C   C21       1.0  0.18608  0.02379  0.35870  1.0000
  C   C22       1.0  0.81392  0.97621  0.64130  1.0000
  C   C23       1.0  0.33160  0.98245  0.40278  1.0000
  C   C24       1.0  0.66840  0.01755  0.59723  1.0000
  C   C25       1.0  0.48493  0.04181  0.31796  1.0000
  C   C26       1.0  0.51507  0.95819  0.68205  1.0000
  C   C27       1.0  0.01781  0.96676  0.44839  1.0000
  C   C28       1.0  0.98219  0.03324  0.55160  1.0000
  C   C29       1.0  0.67803  0.47795  0.83295  1.0000
  C   C30       1.0  0.32198  0.52205  0.16705  1.0000
  C   C31       1.0  0.63308  0.55269  0.71662  1.0000
  C   C32       1.0  0.36692  0.44731  0.28338  1.0000
  C   C33       1.0  0.58050  0.47024  0.65408  1.0000
  C   C34       1.0  0.41950  0.52976  0.34592  1.0000
  C   C35       1.0  0.57813  0.31340  0.71452  1.0000
  C   C36       1.0  0.42187  0.68661  0.28548  1.0000
  C   C37       1.0  0.62521  0.24526  0.83106  1.0000
  C   C38       1.0  0.37479  0.75475  0.16894  1.0000
  C   C39       1.0  0.52895  0.55094  0.52865  1.0000
  C   C40       1.0  0.47105  0.44906  0.47135  1.0000
  N   N1        1.0  0.67392  0.32601  0.89029  1.0000
  N   N2        1.0  0.32608  0.67399  0.10971  1.0000
  N   N3        1.0  0.49972  0.13791  0.19340  1.0000
  N   N4        1.0  0.50028  0.86208  0.80660  1.0000
  O   O1        1.0  0.79414  0.40752  0.08830  1.0000
  O   O2        1.0  0.20586  0.59248  0.91170  1.0000
  O   O3        1.0  0.79993  0.25372  0.29346  1.0000
  O   O4        1.0  0.20006  0.74628  0.70654  1.0000
  O   O5        1.0  0.70423  0.94908  0.03321  1.0000
  O   O6        1.0  0.29578  0.05092  0.96679  1.0000
  O   O7        1.0  0.86548  0.05118  0.11616  1.0000
  O   O8        1.0  0.13452  0.94882  0.88384  1.0000
