data_image0
_chemical_formula_structural       Zn2H16C20N2Cl2O4
_chemical_formula_sum              "Zn2 H16 C20 N2 Cl2 O4"
_cell_length_a       7.09202
_cell_length_b       7.34547
_cell_length_c       10.1781
_cell_angle_alpha    75.4512
_cell_angle_beta     75.1131
_cell_angle_gamma    85.2932

_space_group_name_H-M_alt    "P 1"
_space_group_IT_number       1

loop_
  _space_group_symop_operation_xyz
  'x, y, z'

loop_
  _atom_site_type_symbol
  _atom_site_label
  _atom_site_symmetry_multiplicity
  _atom_site_fract_x
  _atom_site_fract_y
  _atom_site_fract_z
  _atom_site_occupancy
  Zn  Zn1       1.0  0.09906  0.66037  0.32151  1.0000
  Zn  Zn2       1.0  0.90095  0.33963  0.67849  1.0000
  H   H1        1.0  0.37282  0.67500  0.60292  1.0000
  H   H2        1.0  0.62718  0.32500  0.39708  1.0000
  H   H3        1.0  0.85512  0.05613  0.44838  1.0000
  H   H4        1.0  0.14488  0.94386  0.55163  1.0000
  H   H5        1.0  0.99842  0.04400  0.19636  1.0000
  H   H6        1.0  0.00158  0.95600  0.80363  1.0000
  H   H7        1.0  0.15627  0.35080  0.08800  1.0000
  H   H8        1.0  0.84373  0.64920  0.91200  1.0000
  H   H9        1.0  0.70632  0.06852  0.12806  1.0000
  H   H10       1.0  0.29368  0.93148  0.87194  1.0000
  H   H11       1.0  0.52434  0.77324  0.24051  1.0000
  H   H12       1.0  0.47566  0.22677  0.75949  1.0000
  H   H13       1.0  0.69328  0.38956  0.96226  1.0000
  H   H14       1.0  0.30671  0.61045  0.03774  1.0000
  H   H15       1.0  0.60436  0.45809  0.12012  1.0000
  H   H16       1.0  0.39564  0.54191  0.87987  1.0000
  C   C1        1.0  0.42779  0.81740  0.55827  1.0000
  C   C2        1.0  0.57221  0.18259  0.44174  1.0000
  C   C3        1.0  0.62864  0.84871  0.52723  1.0000
  C   C4        1.0  0.37136  0.15129  0.47277  1.0000
  C   C5        1.0  0.69983  0.03166  0.46888  1.0000
  C   C6        1.0  0.30017  0.96833  0.53112  1.0000
  C   C7        1.0  0.76720  0.68938  0.55769  1.0000
  C   C8        1.0  0.23280  0.31061  0.44231  1.0000
  C   C9        1.0  0.15524  0.05647  0.18054  1.0000
  C   C10       1.0  0.84476  0.94353  0.81946  1.0000
  C   C11       1.0  0.24579  0.22798  0.11911  1.0000
  C   C12       1.0  0.75421  0.77202  0.88089  1.0000
  C   C13       1.0  0.44790  0.23834  0.09912  1.0000
  C   C14       1.0  0.55209  0.76166  0.90088  1.0000
  C   C15       1.0  0.54854  0.07067  0.14278  1.0000
  C   C16       1.0  0.45146  0.92933  0.85722  1.0000
  C   C17       1.0  0.44847  0.90436  0.20488  1.0000
  C   C18       1.0  0.55153  0.09565  0.79512  1.0000
  C   C19       1.0  0.55711  0.41865  0.03585  1.0000
  C   C20       1.0  0.44289  0.58135  0.96415  1.0000
  N   N1        1.0  0.25347  0.89704  0.22376  1.0000
  N   N2        1.0  0.74653  0.10297  0.77624  1.0000
  Cl  Cl1       1.0  0.89308  0.62114  0.20007  1.0000
  Cl  Cl2       1.0  0.10692  0.37886  0.79993  1.0000
  O   O1        1.0  0.95009  0.71417  0.50490  1.0000
  O   O2        1.0  0.04991  0.28583  0.49510  1.0000
  O   O3        1.0  0.69735  0.53403  0.63878  1.0000
  O   O4        1.0  0.30266  0.46596  0.36121  1.0000
