data_image0
_chemical_formula_structural       Cu2H16C28N2O10F8
_chemical_formula_sum              "Cu2 H16 C28 N2 O10 F8"
_cell_length_a       7.48967
_cell_length_b       8.52316
_cell_length_c       11.7603
_cell_angle_alpha    99.5613
_cell_angle_beta     101.058
_cell_angle_gamma    106.392

_space_group_name_H-M_alt    "P 1"
_space_group_IT_number       1

loop_
  _space_group_symop_operation_xyz
  'x, y, z'

loop_
  _atom_site_type_symbol
  _atom_site_label
  _atom_site_symmetry_multiplicity
  _atom_site_fract_x
  _atom_site_fract_y
  _atom_site_fract_z
  _atom_site_occupancy
  Cu  Cu1       1.0  0.67203  0.64509  0.95129  1.0000
  Cu  Cu2       1.0  0.32797  0.35491  0.04871  1.0000
  H   H1        1.0  0.82857  0.98862  0.91378  1.0000
  H   H2        1.0  0.17144  0.01138  0.08622  1.0000
  H   H3        1.0  0.44746  0.53275  0.70403  1.0000
  H   H4        1.0  0.55254  0.46726  0.29597  1.0000
  H   H5        1.0  0.80999  0.12531  0.74358  1.0000
  H   H6        1.0  0.19001  0.87469  0.25642  1.0000
  H   H7        1.0  0.40953  0.65164  0.52469  1.0000
  H   H8        1.0  0.59047  0.34837  0.47531  1.0000
  H   H9        1.0  0.58913  0.88504  0.43176  1.0000
  H   H10       1.0  0.41087  0.11496  0.56824  1.0000
  H   H11       1.0  0.71833  0.08617  0.52612  1.0000
  H   H12       1.0  0.28167  0.91383  0.47387  1.0000
  H   H13       1.0  0.55976  0.34102  0.82673  1.0000
  H   H14       1.0  0.44024  0.65898  0.17327  1.0000
  H   H15       1.0  0.79309  0.41439  0.85881  1.0000
  H   H16       1.0  0.20691  0.58561  0.14118  1.0000
  C   C1        1.0  0.85985  0.52334  0.12271  1.0000
  C   C2        1.0  0.14015  0.47666  0.87729  1.0000
  C   C3        1.0  0.88313  0.39725  0.19549  1.0000
  C   C4        1.0  0.11687  0.60275  0.80451  1.0000
  C   C5        1.0  0.00693  0.44692  0.30958  1.0000
  C   C6        1.0  0.99308  0.55308  0.69042  1.0000
  C   C7        1.0  0.03201  0.33086  0.37637  1.0000
  C   C8        1.0  0.96800  0.66915  0.62364  1.0000
  C   C9        1.0  0.93267  0.16040  0.32805  1.0000
  C   C10       1.0  0.06733  0.83959  0.67196  1.0000
  C   C11       1.0  0.81248  0.10250  0.21301  1.0000
  C   C12       1.0  0.18752  0.89750  0.78700  1.0000
  C   C13       1.0  0.79087  0.22417  0.15019  1.0000
  C   C14       1.0  0.20912  0.77583  0.84982  1.0000
  C   C15       1.0  0.71320  0.91578  0.15971  1.0000
  C   C16       1.0  0.28679  0.08422  0.84029  1.0000
  C   C17       1.0  0.73761  0.91870  0.82599  1.0000
  C   C18       1.0  0.26239  0.08130  0.17401  1.0000
  C   C19       1.0  0.52306  0.66386  0.70869  1.0000
  C   C20       1.0  0.47694  0.33614  0.29131  1.0000
  C   C21       1.0  0.72509  0.99376  0.72986  1.0000
  C   C22       1.0  0.27491  0.00625  0.27014  1.0000
  C   C23       1.0  0.50403  0.73123  0.60926  1.0000
  C   C24       1.0  0.49597  0.26877  0.39074  1.0000
  C   C25       1.0  0.60820  0.89944  0.61796  1.0000
  C   C26       1.0  0.39180  0.10056  0.38204  1.0000
  C   C27       1.0  0.59196  0.97471  0.51152  1.0000
  C   C28       1.0  0.40804  0.02529  0.48848  1.0000
  N   N1        1.0  0.63884  0.75606  0.81573  1.0000
  N   N2        1.0  0.36116  0.24394  0.18427  1.0000
  O   O1        1.0  0.68612  0.51455  0.07655  1.0000
  O   O2        1.0  0.31388  0.48545  0.92344  1.0000
  O   O3        1.0  0.00660  0.62621  0.10900  1.0000
  O   O4        1.0  0.99340  0.37378  0.89100  1.0000
  O   O5        1.0  0.75311  0.86514  0.06189  1.0000
  O   O6        1.0  0.24689  0.13486  0.93811  1.0000
  O   O7        1.0  0.60808  0.83414  0.21473  1.0000
  O   O8        1.0  0.39191  0.16586  0.78528  1.0000
  O   O9        1.0  0.67264  0.44517  0.83582  1.0000
  O   O10       1.0  0.32736  0.55483  0.16417  1.0000
  F   F1        1.0  0.10415  0.61158  0.35944  1.0000
  F   F2        1.0  0.89585  0.38842  0.64056  1.0000
  F   F3        1.0  0.15245  0.38269  0.48682  1.0000
  F   F4        1.0  0.84756  0.61731  0.51318  1.0000
  F   F5        1.0  0.96020  0.05099  0.39471  1.0000
  F   F6        1.0  0.03980  0.94902  0.60530  1.0000
  F   F7        1.0  0.67463  0.17161  0.03837  1.0000
  F   F8        1.0  0.32536  0.82838  0.96163  1.0000
