data_image0
_chemical_formula_structural       Zn3H36C60N6O12F12
_chemical_formula_sum              "Zn3 H36 C60 N6 O12 F12"
_cell_length_a       10.4717
_cell_length_b       11.713
_cell_length_c       13.3425
_cell_angle_alpha    103.262
_cell_angle_beta     110.709
_cell_angle_gamma    107.009

_space_group_name_H-M_alt    "P 1"
_space_group_IT_number       1

loop_
  _space_group_symop_operation_xyz
  'x, y, z'

loop_
  _atom_site_type_symbol
  _atom_site_label
  _atom_site_symmetry_multiplicity
  _atom_site_fract_x
  _atom_site_fract_y
  _atom_site_fract_z
  _atom_site_occupancy
  Zn  Zn1       1.0  0.50000  0.50000  0.50000  1.0000
  Zn  Zn2       1.0  0.44378  0.66607  0.24773  1.0000
  Zn  Zn3       1.0  0.55622  0.33393  0.75227  1.0000
  H   H1        1.0  0.54943  0.32799  0.32000  1.0000
  H   H2        1.0  0.45057  0.67201  0.68000  1.0000
  H   H3        1.0  0.17733  0.35222  0.34910  1.0000
  H   H4        1.0  0.82267  0.64778  0.65090  1.0000
  H   H5        1.0  0.39135  0.13809  0.13525  1.0000
  H   H6        1.0  0.60865  0.86190  0.86475  1.0000
  H   H7        1.0  0.00403  0.16637  0.16706  1.0000
  H   H8        1.0  0.99597  0.83363  0.83294  1.0000
  H   H9        1.0  0.10960  0.93622  0.03849  1.0000
  H   H10       1.0  0.89040  0.06378  0.96151  1.0000
  H   H11       1.0  0.12142  0.03477  0.95876  1.0000
  H   H12       1.0  0.87858  0.96523  0.04124  1.0000
  H   H13       1.0  0.49073  0.46482  0.08864  1.0000
  H   H14       1.0  0.50927  0.53518  0.91136  1.0000
  H   H15       1.0  0.11270  0.49686  0.09908  1.0000
  H   H16       1.0  0.88730  0.50314  0.90092  1.0000
  H   H17       1.0  0.33984  0.26622  0.91145  1.0000
  H   H18       1.0  0.66016  0.73378  0.08855  1.0000
  H   H19       1.0  0.94288  0.29498  0.92559  1.0000
  H   H20       1.0  0.05713  0.70502  0.07441  1.0000
  H   H21       1.0  0.09183  0.09468  0.77086  1.0000
  H   H22       1.0  0.90817  0.90532  0.22914  1.0000
  H   H23       1.0  0.94865  0.07366  0.81540  1.0000
  H   H24       1.0  0.05135  0.92634  0.18460  1.0000
  H   H25       1.0  0.73061  0.87481  0.32151  1.0000
  H   H26       1.0  0.26939  0.12519  0.67850  1.0000
  H   H27       1.0  0.47057  0.81739  0.49261  1.0000
  H   H28       1.0  0.52943  0.18261  0.50739  1.0000
  H   H29       1.0  0.93254  0.07061  0.48947  1.0000
  H   H30       1.0  0.06746  0.92939  0.51053  1.0000
  H   H31       1.0  0.66051  0.01117  0.66772  1.0000
  H   H32       1.0  0.33949  0.98883  0.33228  1.0000
  H   H33       1.0  0.00813  0.23454  0.67374  1.0000
  H   H34       1.0  0.99187  0.76546  0.32626  1.0000
  H   H35       1.0  0.87669  0.22901  0.72982  1.0000
  H   H36       1.0  0.12331  0.77099  0.27018  1.0000
  C   C1        1.0  0.25844  0.60448  0.37625  1.0000
  C   C2        1.0  0.74156  0.39552  0.62375  1.0000
  C   C3        1.0  0.11085  0.58598  0.37964  1.0000
  C   C4        1.0  0.88915  0.41402  0.62036  1.0000
  C   C5        1.0  0.97337  0.50831  0.28261  1.0000
  C   C6        1.0  0.02663  0.49169  0.71739  1.0000
  C   C7        1.0  0.10664  0.65558  0.47768  1.0000
  C   C8        1.0  0.89336  0.34442  0.52232  1.0000
  C   C9        1.0  0.83917  0.50555  0.28127  1.0000
  C   C10       1.0  0.16083  0.49445  0.71873  1.0000
  C   C11       1.0  0.97231  0.65493  0.47559  1.0000
  C   C12       1.0  0.02770  0.34507  0.52441  1.0000
  C   C13       1.0  0.83563  0.58309  0.37627  1.0000
  C   C14       1.0  0.16437  0.41691  0.62373  1.0000
  C   C15       1.0  0.69340  0.59877  0.36661  1.0000
  C   C16       1.0  0.30661  0.40123  0.63339  1.0000
  C   C17       1.0  0.40650  0.84022  0.12512  1.0000
  C   C18       1.0  0.59350  0.15978  0.87488  1.0000
  C   C19       1.0  0.45614  0.92088  0.05987  1.0000
  C   C20       1.0  0.54386  0.07912  0.94012  1.0000
  C   C21       1.0  0.35697  0.90739  0.95102  1.0000
  C   C22       1.0  0.64303  0.09261  0.04898  1.0000
  C   C23       1.0  0.60103  0.01549  0.10716  1.0000
  C   C24       1.0  0.39897  0.98451  0.89284  1.0000
  C   C25       1.0  0.42772  0.28938  0.28169  1.0000
  C   C26       1.0  0.57228  0.71062  0.71831  1.0000
  C   C27       1.0  0.22007  0.30333  0.29796  1.0000
  C   C28       1.0  0.77993  0.69667  0.70204  1.0000
  C   C29       1.0  0.33854  0.18310  0.17932  1.0000
  C   C30       1.0  0.66146  0.81690  0.82068  1.0000
  C   C31       1.0  0.12377  0.19741  0.19622  1.0000
  C   C32       1.0  0.87623  0.80260  0.80378  1.0000
  C   C33       1.0  0.18189  0.13412  0.13380  1.0000
  C   C34       1.0  0.81811  0.86588  0.86620  1.0000
  C   C35       1.0  0.08404  0.01766  0.02356  1.0000
  C   C36       1.0  0.91596  0.98234  0.97644  1.0000
  C   C37       1.0  0.36893  0.42457  0.04869  1.0000
  C   C38       1.0  0.63107  0.57543  0.95131  1.0000
  C   C39       1.0  0.15753  0.44218  0.05468  1.0000
  C   C40       1.0  0.84247  0.55782  0.94532  1.0000
  C   C41       1.0  0.28299  0.31252  0.95015  1.0000
  C   C42       1.0  0.71700  0.68748  0.04985  1.0000
  C   C43       1.0  0.06414  0.33008  0.95795  1.0000
  C   C44       1.0  0.93585  0.66992  0.04205  1.0000
  C   C45       1.0  0.12677  0.26228  0.90340  1.0000
  C   C46       1.0  0.87323  0.73772  0.09659  1.0000
  C   C47       1.0  0.02608  0.14205  0.79711  1.0000
  C   C48       1.0  0.97392  0.85795  0.20289  1.0000
  C   C49       1.0  0.72035  0.90772  0.40039  1.0000
  C   C50       1.0  0.27966  0.09228  0.59961  1.0000
  C   C51       1.0  0.57444  0.87577  0.49516  1.0000
  C   C52       1.0  0.42556  0.12423  0.50484  1.0000
  C   C53       1.0  0.83247  0.01647  0.49464  1.0000
  C   C54       1.0  0.16754  0.98353  0.50536  1.0000
  C   C55       1.0  0.68143  0.98313  0.59312  1.0000
  C   C56       1.0  0.31857  0.01687  0.40688  1.0000
  C   C57       1.0  0.81466  0.05637  0.59420  1.0000
  C   C58       1.0  0.18534  0.94363  0.40580  1.0000
  C   C59       1.0  0.93203  0.17350  0.69783  1.0000
  C   C60       1.0  0.06797  0.82650  0.30217  1.0000
  N   N1        1.0  0.36967  0.34944  0.34069  1.0000
  N   N2        1.0  0.63033  0.65056  0.65931  1.0000
  N   N3        1.0  0.30808  0.48889  0.10100  1.0000
  N   N4        1.0  0.69192  0.51111  0.89900  1.0000
  N   N5        1.0  0.59257  0.83753  0.39986  1.0000
  N   N6        1.0  0.40743  0.16247  0.60014  1.0000
  O   O1        1.0  0.35725  0.59755  0.45880  1.0000
  O   O2        1.0  0.64276  0.40245  0.54120  1.0000
  O   O3        1.0  0.26857  0.63162  0.29159  1.0000
  O   O4        1.0  0.73143  0.36838  0.70841  1.0000
  O   O5        1.0  0.65991  0.59851  0.44787  1.0000
  O   O6        1.0  0.34009  0.40149  0.55213  1.0000
  O   O7        1.0  0.62413  0.61553  0.27520  1.0000
  O   O8        1.0  0.37587  0.38447  0.72480  1.0000
  O   O9        1.0  0.47418  0.76652  0.14466  1.0000
  O   O10       1.0  0.52582  0.23348  0.85534  1.0000
  O   O11       1.0  0.30878  0.85357  0.15341  1.0000
  O   O12       1.0  0.69122  0.14643  0.84659  1.0000
  F   F1        1.0  0.96873  0.43532  0.18583  1.0000
  F   F2        1.0  0.03127  0.56468  0.81417  1.0000
  F   F3        1.0  0.23524  0.73387  0.57519  1.0000
  F   F4        1.0  0.76476  0.26613  0.42481  1.0000
  F   F5        1.0  0.71074  0.42716  0.18394  1.0000
  F   F6        1.0  0.28926  0.57284  0.81606  1.0000
  F   F7        1.0  0.97958  0.73445  0.57108  1.0000
  F   F8        1.0  0.02042  0.26555  0.42892  1.0000
  F   F9        1.0  0.21478  0.81574  0.89852  1.0000
  F   F10       1.0  0.78522  0.18426  0.10148  1.0000
  F   F11       1.0  0.70491  0.03581  0.21326  1.0000
  F   F12       1.0  0.29509  0.96419  0.78674  1.0000
