data_image0
_chemical_formula_structural       Ag2H10C8S4N8
_chemical_formula_sum              "Ag2 H10 C8 S4 N8"
_cell_length_a       7.35117
_cell_length_b       7.62171
_cell_length_c       8.50957
_cell_angle_alpha    77.4083
_cell_angle_beta     82.1131
_cell_angle_gamma    61.4408

_space_group_name_H-M_alt    "P 1"
_space_group_IT_number       1

loop_
  _space_group_symop_operation_xyz
  'x, y, z'

loop_
  _atom_site_type_symbol
  _atom_site_label
  _atom_site_symmetry_multiplicity
  _atom_site_fract_x
  _atom_site_fract_y
  _atom_site_fract_z
  _atom_site_occupancy
  Ag  Ag1       1.0  0.43783  0.05377  0.18869  1.0000
  Ag  Ag2       1.0  0.56220  0.94622  0.81135  1.0000
  H   H1        1.0  0.79407  0.13508  0.15162  1.0000
  H   H2        1.0  0.20594  0.86492  0.84837  1.0000
  H   H3        1.0  0.03478  0.42251  0.78141  1.0000
  H   H4        1.0  0.96521  0.57748  0.21857  1.0000
  H   H5        1.0  0.64033  0.37795  0.59036  1.0000
  H   H6        1.0  0.35966  0.62205  0.40962  1.0000
  H   H7        1.0  0.78250  0.51945  0.56122  1.0000
  H   H8        1.0  0.21748  0.48055  0.43877  1.0000
  H   H9        1.0  0.52737  0.62040  0.65338  1.0000
  H   H10       1.0  0.47262  0.37960  0.34660  1.0000
  C   C1        1.0  0.67682  0.28815  0.91954  1.0000
  C   C2        1.0  0.32317  0.71185  0.08046  1.0000
  C   C3        1.0  0.93826  0.36006  0.85210  1.0000
  C   C4        1.0  0.06174  0.63994  0.14788  1.0000
  C   C5        1.0  0.67171  0.48117  0.64047  1.0000
  C   C6        1.0  0.32827  0.51883  0.35952  1.0000
  C   C7        1.0  0.21444  0.06666  0.54281  1.0000
  C   C8        1.0  0.78558  0.93335  0.45720  1.0000
  S   S1        1.0  0.44977  0.28130  0.91703  1.0000
  S   S2        1.0  0.55021  0.71870  0.08299  1.0000
  S   S3        1.0  0.11419  0.16188  0.36572  1.0000
  S   S4        1.0  0.88584  0.83812  0.63430  1.0000
  N   N1        1.0  0.80989  0.21566  0.03943  1.0000
  N   N2        1.0  0.19010  0.78435  0.96056  1.0000
  N   N3        1.0  0.97172  0.25947  0.00033  1.0000
  N   N4        1.0  0.02828  0.74053  0.99965  1.0000
  N   N5        1.0  0.76168  0.37971  0.79679  1.0000
  N   N6        1.0  0.23830  0.62029  0.20320  1.0000
  N   N7        1.0  0.28365  0.99737  0.67344  1.0000
  N   N8        1.0  0.71639  0.00263  0.32658  1.0000
