data_image0
_chemical_formula_structural       Mn4H52C32O18
_chemical_formula_sum              "Mn4 H52 C32 O18"
_cell_length_a       7.53917
_cell_length_b       9.06692
_cell_length_c       13.8194
_cell_angle_alpha    104.649
_cell_angle_beta     105.812
_cell_angle_gamma    90.0049

_space_group_name_H-M_alt    "P 1"
_space_group_IT_number       1

loop_
  _space_group_symop_operation_xyz
  'x, y, z'

loop_
  _atom_site_type_symbol
  _atom_site_label
  _atom_site_symmetry_multiplicity
  _atom_site_fract_x
  _atom_site_fract_y
  _atom_site_fract_z
  _atom_site_occupancy
  Mn  Mn1       1.0  0.22309  0.45757  0.03612  1.0000
  Mn  Mn2       1.0  0.81299  0.95757  0.03611  1.0000
  Mn  Mn3       1.0  0.77692  0.54243  0.96388  1.0000
  Mn  Mn4       1.0  0.18701  0.04243  0.96389  1.0000
  H   H1        1.0  0.31611  0.70048  0.24565  1.0000
  H   H2        1.0  0.92941  0.20073  0.24572  1.0000
  H   H3        1.0  0.68389  0.29953  0.75435  1.0000
  H   H4        1.0  0.07058  0.79927  0.75428  1.0000
  H   H5        1.0  0.12220  0.61621  0.26140  1.0000
  H   H6        1.0  0.13896  0.11639  0.26156  1.0000
  H   H7        1.0  0.87780  0.38379  0.73860  1.0000
  H   H8        1.0  0.86103  0.88361  0.73844  1.0000
  H   H9        1.0  0.26424  0.95523  0.35069  1.0000
  H   H10       1.0  0.08631  0.45546  0.35076  1.0000
  H   H11       1.0  0.73576  0.04478  0.64931  1.0000
  H   H12       1.0  0.91368  0.54454  0.64924  1.0000
  H   H13       1.0  0.04705  0.88735  0.35195  1.0000
  H   H14       1.0  0.30473  0.38754  0.35199  1.0000
  H   H15       1.0  0.95295  0.11266  0.64805  1.0000
  H   H16       1.0  0.69526  0.61246  0.64801  1.0000
  H   H17       1.0  0.19755  0.70665  0.45452  1.0000
  H   H18       1.0  0.25671  0.20687  0.45459  1.0000
  H   H19       1.0  0.80245  0.29335  0.54548  1.0000
  H   H20       1.0  0.74329  0.79313  0.54541  1.0000
  H   H21       1.0  0.41640  0.76979  0.45273  1.0000
  H   H22       1.0  0.03615  0.27010  0.45291  1.0000
  H   H23       1.0  0.58360  0.23022  0.54727  1.0000
  H   H24       1.0  0.96385  0.72990  0.54710  1.0000
  H   H25       1.0  0.37541  0.03422  0.55122  1.0000
  H   H26       1.0  0.17570  0.53446  0.55141  1.0000
  H   H27       1.0  0.62458  0.96578  0.44878  1.0000
  H   H28       1.0  0.82430  0.46555  0.44859  1.0000
  H   H29       1.0  0.15283  0.97525  0.55077  1.0000
  H   H30       1.0  0.39776  0.47551  0.55077  1.0000
  H   H31       1.0  0.84717  0.02475  0.44923  1.0000
  H   H32       1.0  0.60223  0.52449  0.44923  1.0000
  H   H33       1.0  0.28512  0.79254  0.65455  1.0000
  H   H34       1.0  0.36941  0.29276  0.65461  1.0000
  H   H35       1.0  0.71488  0.20746  0.34545  1.0000
  H   H36       1.0  0.63059  0.70724  0.34539  1.0000
  H   H37       1.0  0.50917  0.84124  0.65117  1.0000
  H   H38       1.0  0.14209  0.34151  0.65143  1.0000
  H   H39       1.0  0.49083  0.15876  0.34883  1.0000
  H   H40       1.0  0.85791  0.65849  0.34857  1.0000
  H   H41       1.0  0.48984  0.11198  0.74966  1.0000
  H   H42       1.0  0.26012  0.61228  0.74984  1.0000
  H   H43       1.0  0.51016  0.88802  0.25034  1.0000
  H   H44       1.0  0.73988  0.38772  0.25016  1.0000
  H   H45       1.0  0.26126  0.06408  0.75114  1.0000
  H   H46       1.0  0.49008  0.56418  0.75123  1.0000
  H   H47       1.0  0.73874  0.93592  0.24886  1.0000
  H   H48       1.0  0.50993  0.43582  0.24877  1.0000
  H   H49       1.0  0.50956  0.20743  0.04686  1.0000
  H   H50       1.0  0.53737  0.70753  0.04694  1.0000
  H   H51       1.0  0.49044  0.79256  0.95314  1.0000
  H   H52       1.0  0.46264  0.29246  0.95306  1.0000
  C   C1        1.0  0.05865  0.74757  0.15396  1.0000
  C   C2        1.0  0.09540  0.24757  0.15403  1.0000
  C   C3        1.0  0.94135  0.25244  0.84604  1.0000
  C   C4        1.0  0.90460  0.75243  0.84597  1.0000
  C   C5        1.0  0.17807  0.72481  0.25542  1.0000
  C   C6        1.0  0.07724  0.22501  0.25552  1.0000
  C   C7        1.0  0.82193  0.27519  0.74458  1.0000
  C   C8        1.0  0.92276  0.77499  0.74448  1.0000
  C   C9        1.0  0.18742  0.85312  0.35251  1.0000
  C   C10       1.0  0.16493  0.35334  0.35258  1.0000
  C   C11       1.0  0.81258  0.14688  0.64748  1.0000
  C   C12       1.0  0.83507  0.64666  0.64742  1.0000
  C   C13       1.0  0.27727  0.80750  0.45291  1.0000
  C   C14       1.0  0.17543  0.30774  0.45300  1.0000
  C   C15       1.0  0.72273  0.19250  0.54709  1.0000
  C   C16       1.0  0.82456  0.69226  0.54700  1.0000
  C   C17       1.0  0.29125  0.93501  0.55154  1.0000
  C   C18       1.0  0.26017  0.43524  0.55163  1.0000
  C   C19       1.0  0.70875  0.06499  0.44846  1.0000
  C   C20       1.0  0.73983  0.56476  0.44837  1.0000
  C   C21       1.0  0.37385  0.88696  0.65176  1.0000
  C   C22       1.0  0.27793  0.38718  0.65188  1.0000
  C   C23       1.0  0.62615  0.11304  0.34824  1.0000
  C   C24       1.0  0.72207  0.61282  0.34812  1.0000
  C   C25       1.0  0.39640  0.01936  0.74979  1.0000
  C   C26       1.0  0.35354  0.51957  0.74989  1.0000
  C   C27       1.0  0.60360  0.98064  0.25021  1.0000
  C   C28       1.0  0.64646  0.48043  0.25011  1.0000
  C   C29       1.0  0.47515  0.96796  0.84775  1.0000
  C   C30       1.0  0.37261  0.46809  0.84783  1.0000
  C   C31       1.0  0.52485  0.03204  0.15225  1.0000
  C   C32       1.0  0.62740  0.53190  0.15217  1.0000
  O   O1        1.0  0.05501  0.64469  0.06942  1.0000
  O   O2        1.0  0.01457  0.14465  0.06952  1.0000
  O   O3        1.0  0.94500  0.35531  0.93058  1.0000
  O   O4        1.0  0.98543  0.85535  0.93048  1.0000
  O   O5        1.0  0.96088  0.86097  0.15518  1.0000
  O   O6        1.0  0.19448  0.36089  0.15518  1.0000
  O   O7        1.0  0.03912  0.13903  0.84482  1.0000
  O   O8        1.0  0.80552  0.63911  0.84482  1.0000
  O   O9        1.0  0.36222  0.90139  0.88197  1.0000
  O   O10       1.0  0.51967  0.40146  0.88203  1.0000
  O   O11       1.0  0.63778  0.09862  0.11803  1.0000
  O   O12       1.0  0.48034  0.59854  0.11796  1.0000
  O   O13       1.0  0.64760  0.98813  0.89049  1.0000
  O   O14       1.0  0.24286  0.48824  0.89057  1.0000
  O   O15       1.0  0.35240  0.01187  0.10951  1.0000
  O   O16       1.0  0.75715  0.51175  0.10943  1.0000
  O   O17       1.0  0.40748  0.24989  0.99995  1.0000
  O   O18       1.0  0.59252  0.75011  0.00004  1.0000
