data_image0
_chemical_formula_structural       Cu2H32C44N4O12
_chemical_formula_sum              "Cu2 H32 C44 N4 O12"
_cell_length_a       8.20232
_cell_length_b       8.20232
_cell_length_c       15.1416
_cell_angle_alpha    76.3564
_cell_angle_beta     76.3563
_cell_angle_gamma    74.6247

_space_group_name_H-M_alt    "P 1"
_space_group_IT_number       1

loop_
  _space_group_symop_operation_xyz
  'x, y, z'

loop_
  _atom_site_type_symbol
  _atom_site_label
  _atom_site_symmetry_multiplicity
  _atom_site_fract_x
  _atom_site_fract_y
  _atom_site_fract_z
  _atom_site_occupancy
  Cu  Cu1       1.0  0.06779  0.93221  0.25000  1.0000
  Cu  Cu2       1.0  0.93221  0.06779  0.75000  1.0000
  H   H1        1.0  0.83720  0.79053  0.16191  1.0000
  H   H2        1.0  0.20946  0.16280  0.33809  1.0000
  H   H3        1.0  0.16281  0.20947  0.83809  1.0000
  H   H4        1.0  0.79053  0.83719  0.66191  1.0000
  H   H5        1.0  0.25691  0.66904  0.52722  1.0000
  H   H6        1.0  0.33096  0.74309  0.97278  1.0000
  H   H7        1.0  0.74309  0.33096  0.47278  1.0000
  H   H8        1.0  0.66904  0.25691  0.02722  1.0000
  H   H9        1.0  0.35955  0.52356  0.45117  1.0000
  H   H10       1.0  0.47644  0.64045  0.04883  1.0000
  H   H11       1.0  0.64045  0.47644  0.54883  1.0000
  H   H12       1.0  0.52356  0.35955  0.95117  1.0000
  H   H13       1.0  0.20978  0.95186  0.50709  1.0000
  H   H14       1.0  0.04814  0.79022  0.99291  1.0000
  H   H15       1.0  0.79023  0.04814  0.49291  1.0000
  H   H16       1.0  0.95187  0.20978  0.00709  1.0000
  H   H17       1.0  0.76567  0.79555  0.44286  1.0000
  H   H18       1.0  0.20446  0.23433  0.05714  1.0000
  H   H19       1.0  0.23434  0.20445  0.55715  1.0000
  H   H20       1.0  0.79555  0.76567  0.94285  1.0000
  H   H21       1.0  0.53241  0.90553  0.13169  1.0000
  H   H22       1.0  0.09447  0.46759  0.36830  1.0000
  H   H23       1.0  0.46760  0.09447  0.86830  1.0000
  H   H24       1.0  0.90553  0.53240  0.63170  1.0000
  H   H25       1.0  0.37200  0.19123  0.16679  1.0000
  H   H26       1.0  0.80877  0.62801  0.33321  1.0000
  H   H27       1.0  0.62800  0.80877  0.83321  1.0000
  H   H28       1.0  0.19123  0.37199  0.66679  1.0000
  H   H29       1.0  0.37418  0.46582  0.22242  1.0000
  H   H30       1.0  0.53418  0.62582  0.27759  1.0000
  H   H31       1.0  0.62582  0.53418  0.77759  1.0000
  H   H32       1.0  0.46582  0.37418  0.72242  1.0000
  C   C1        1.0  0.20762  0.75797  0.38944  1.0000
  C   C2        1.0  0.24202  0.79238  0.11057  1.0000
  C   C3        1.0  0.79238  0.24202  0.61056  1.0000
  C   C4        1.0  0.75798  0.20762  0.88944  1.0000
  C   C5        1.0  0.76036  0.91414  0.17799  1.0000
  C   C6        1.0  0.08586  0.23963  0.32201  1.0000
  C   C7        1.0  0.23964  0.08587  0.82201  1.0000
  C   C8        1.0  0.91413  0.76036  0.67799  1.0000
  C   C9        1.0  0.48708  0.85477  0.47082  1.0000
  C   C10       1.0  0.14523  0.51292  0.02918  1.0000
  C   C11       1.0  0.51292  0.14524  0.52919  1.0000
  C   C12       1.0  0.85477  0.48708  0.97081  1.0000
  C   C13       1.0  0.32767  0.66005  0.45667  1.0000
  C   C14       1.0  0.33995  0.67234  0.04333  1.0000
  C   C15       1.0  0.67234  0.33996  0.54333  1.0000
  C   C16       1.0  0.66004  0.32767  0.95667  1.0000
  C   C17       1.0  0.33789  0.97019  0.50393  1.0000
  C   C18       1.0  0.02980  0.66211  0.99607  1.0000
  C   C19       1.0  0.66211  0.02980  0.49607  1.0000
  C   C20       1.0  0.97020  0.33789  0.00393  1.0000
  C   C21       1.0  0.64852  0.88523  0.46733  1.0000
  C   C22       1.0  0.11477  0.35148  0.03267  1.0000
  C   C23       1.0  0.35148  0.11477  0.53268  1.0000
  C   C24       1.0  0.88523  0.64852  0.96733  1.0000
  C   C25       1.0  0.75067  0.15980  0.23195  1.0000
  C   C26       1.0  0.84020  0.24932  0.26805  1.0000
  C   C27       1.0  0.24932  0.84020  0.76805  1.0000
  C   C28       1.0  0.15981  0.75068  0.73195  1.0000
  C   C29       1.0  0.58126  0.23601  0.21642  1.0000
  C   C30       1.0  0.76399  0.41874  0.28358  1.0000
  C   C31       1.0  0.41874  0.76399  0.78358  1.0000
  C   C32       1.0  0.23601  0.58126  0.71642  1.0000
  C   C33       1.0  0.59161  0.97867  0.16141  1.0000
  C   C34       1.0  0.02134  0.40838  0.33859  1.0000
  C   C35       1.0  0.40839  0.02133  0.83859  1.0000
  C   C36       1.0  0.97866  0.59162  0.66142  1.0000
  C   C37       1.0  0.50166  0.13837  0.18110  1.0000
  C   C38       1.0  0.86163  0.49834  0.31890  1.0000
  C   C39       1.0  0.49834  0.86163  0.81890  1.0000
  C   C40       1.0  0.13837  0.50166  0.68110  1.0000
  C   C41       1.0  0.50462  0.40648  0.23473  1.0000
  C   C42       1.0  0.59352  0.49538  0.26527  1.0000
  C   C43       1.0  0.49538  0.59352  0.76528  1.0000
  C   C44       1.0  0.40648  0.50462  0.73473  1.0000
  N   N1        1.0  0.83673  0.00202  0.21343  1.0000
  N   N2        1.0  0.99797  0.16327  0.28657  1.0000
  N   N3        1.0  0.16327  0.99798  0.78657  1.0000
  N   N4        1.0  0.00202  0.83673  0.71343  1.0000
  O   O1        1.0  0.26902  0.85251  0.31452  1.0000
  O   O2        1.0  0.14749  0.73097  0.18548  1.0000
  O   O3        1.0  0.73097  0.14750  0.68548  1.0000
  O   O4        1.0  0.85250  0.26902  0.81452  1.0000
  O   O5        1.0  0.48804  0.70818  0.44095  1.0000
  O   O6        1.0  0.29182  0.51196  0.05905  1.0000
  O   O7        1.0  0.51196  0.29182  0.55906  1.0000
  O   O8        1.0  0.70818  0.48804  0.94095  1.0000
  O   O9        1.0  0.05636  0.73661  0.40956  1.0000
  O   O10       1.0  0.26338  0.94364  0.09044  1.0000
  O   O11       1.0  0.94364  0.26338  0.59044  1.0000
  O   O12       1.0  0.73662  0.05636  0.90956  1.0000
