data_image0
_chemical_formula_structural       Zn2B2H18C4N22Cl2
_chemical_formula_sum              "Zn2 B2 H18 C4 N22 Cl2"
_cell_length_a       4.64927
_cell_length_b       9.78546
_cell_length_c       11.7116
_cell_angle_alpha    90
_cell_angle_beta     90.0003
_cell_angle_gamma    90.0002

_space_group_name_H-M_alt    "P 1"
_space_group_IT_number       1

loop_
  _space_group_symop_operation_xyz
  'x, y, z'

loop_
  _atom_site_type_symbol
  _atom_site_label
  _atom_site_symmetry_multiplicity
  _atom_site_fract_x
  _atom_site_fract_y
  _atom_site_fract_z
  _atom_site_occupancy
  Zn  Zn1       1.0  0.97998  0.50000  0.74321  1.0000
  Zn  Zn2       1.0  0.02002  0.50000  0.24322  1.0000
  B   B1        1.0  0.53872  0.00000  0.63846  1.0000
  B   B2        1.0  0.46128  0.99999  0.13847  1.0000
  H   H1        1.0  0.63975  0.58402  0.90074  1.0000
  H   H2        1.0  0.36025  0.41598  0.40074  1.0000
  H   H3        1.0  0.63975  0.41598  0.90073  1.0000
  H   H4        1.0  0.36026  0.58402  0.40074  1.0000
  H   H5        1.0  0.79701  0.00000  0.64907  1.0000
  H   H6        1.0  0.20299  1.00000  0.14908  1.0000
  H   H7        1.0  0.46532  0.00001  0.53901  1.0000
  H   H8        1.0  0.53468  1.00000  0.03901  1.0000
  H   H9        1.0  0.93967  0.71258  0.53658  1.0000
  H   H10       1.0  0.06032  0.28742  0.03659  1.0000
  H   H11       1.0  0.93968  0.28743  0.53658  1.0000
  H   H12       1.0  0.06032  0.71257  0.03659  1.0000
  H   H13       1.0  0.15746  0.85009  0.49703  1.0000
  H   H14       1.0  0.84254  0.14991  0.99703  1.0000
  H   H15       1.0  0.15746  0.14992  0.49703  1.0000
  H   H16       1.0  0.84255  0.85008  0.99703  1.0000
  H   H17       1.0  0.91115  0.50000  0.96021  1.0000
  H   H18       1.0  0.08885  0.50000  0.46021  1.0000
  C   C1        1.0  0.23114  0.77404  0.65578  1.0000
  C   C2        1.0  0.76885  0.22596  0.15578  1.0000
  C   C3        1.0  0.23114  0.22597  0.65578  1.0000
  C   C4        1.0  0.76885  0.77403  0.15578  1.0000
  N   N1        1.0  0.48714  0.83299  0.80553  1.0000
  N   N2        1.0  0.51287  0.16701  0.30553  1.0000
  N   N3        1.0  0.48713  0.16702  0.80553  1.0000
  N   N4        1.0  0.51286  0.83298  0.30553  1.0000
  N   N5        1.0  0.11819  0.77065  0.55038  1.0000
  N   N6        1.0  0.88182  0.22935  0.05037  1.0000
  N   N7        1.0  0.11819  0.22936  0.55037  1.0000
  N   N8        1.0  0.88181  0.77065  0.05037  1.0000
  N   N9        1.0  0.77098  0.50000  0.89243  1.0000
  N   N10       1.0  0.22903  0.50000  0.39243  1.0000
  N   N11       1.0  0.41482  0.86994  0.69672  1.0000
  N   N12       1.0  0.58519  0.13006  0.19672  1.0000
  N   N13       1.0  0.41481  0.13006  0.69672  1.0000
  N   N14       1.0  0.58518  0.86994  0.19673  1.0000
  N   N15       1.0  0.19147  0.68006  0.73864  1.0000
  N   N16       1.0  0.80854  0.31994  0.23864  1.0000
  N   N17       1.0  0.19147  0.31995  0.73864  1.0000
  N   N18       1.0  0.80853  0.68005  0.23865  1.0000
  N   N19       1.0  0.35191  0.72193  0.83003  1.0000
  N   N20       1.0  0.64809  0.27807  0.33003  1.0000
  N   N21       1.0  0.35191  0.27808  0.83003  1.0000
  N   N22       1.0  0.64809  0.72192  0.33003  1.0000
  Cl  Cl1       1.0  0.70012  0.50000  0.58602  1.0000
  Cl  Cl2       1.0  0.29988  0.50000  0.08603  1.0000
