data_image0
_chemical_formula_structural       Li4H20C28O12
_chemical_formula_sum              "Li4 H20 C28 O12"
_cell_length_a       5.10534
_cell_length_b       8.15044
_cell_length_c       14.6354
_cell_angle_alpha    95.396
_cell_angle_beta     89.9995
_cell_angle_gamma    90.0002

_space_group_name_H-M_alt    "P 1"
_space_group_IT_number       1

loop_
  _space_group_symop_operation_xyz
  'x, y, z'

loop_
  _atom_site_type_symbol
  _atom_site_label
  _atom_site_symmetry_multiplicity
  _atom_site_fract_x
  _atom_site_fract_y
  _atom_site_fract_z
  _atom_site_occupancy
  Li  Li1       1.0  0.00983  0.49364  0.40819  1.0000
  Li  Li2       1.0  0.50984  0.50637  0.09181  1.0000
  Li  Li3       1.0  0.99015  0.50636  0.59181  1.0000
  Li  Li4       1.0  0.49019  0.49364  0.90819  1.0000
  H   H1        1.0  0.73739  0.42101  0.25989  1.0000
  H   H2        1.0  0.23739  0.57899  0.24011  1.0000
  H   H3        1.0  0.26262  0.57899  0.74010  1.0000
  H   H4        1.0  0.76262  0.42101  0.75989  1.0000
  H   H5        1.0  0.55853  0.51059  0.33851  1.0000
  H   H6        1.0  0.05852  0.48940  0.16149  1.0000
  H   H7        1.0  0.44147  0.48940  0.66149  1.0000
  H   H8        1.0  0.94151  0.51060  0.83851  1.0000
  H   H9        1.0  0.65228  0.77243  0.28567  1.0000
  H   H10       1.0  0.15231  0.22759  0.21433  1.0000
  H   H11       1.0  0.34768  0.22757  0.71433  1.0000
  H   H12       1.0  0.84772  0.77241  0.78567  1.0000
  H   H13       1.0  0.72776  0.07442  0.30318  1.0000
  H   H14       1.0  0.22777  0.92558  0.19683  1.0000
  H   H15       1.0  0.27220  0.92557  0.69682  1.0000
  H   H16       1.0  0.77222  0.07441  0.80318  1.0000
  H   H17       1.0  0.43846  0.25749  0.40258  1.0000
  H   H18       1.0  0.93847  0.74253  0.09743  1.0000
  H   H19       1.0  0.56154  0.74250  0.59742  1.0000
  H   H20       1.0  0.06155  0.25746  0.90257  1.0000
  C   C1        1.0  0.96279  0.82290  0.49693  1.0000
  C   C2        1.0  0.46279  0.17711  0.00305  1.0000
  C   C3        1.0  0.03720  0.17712  0.50305  1.0000
  C   C4        1.0  0.53726  0.82290  0.99695  1.0000
  C   C5        1.0  0.15431  0.88618  0.43664  1.0000
  C   C6        1.0  0.65434  0.11383  0.06336  1.0000
  C   C7        1.0  0.84564  0.11381  0.56335  1.0000
  C   C8        1.0  0.34569  0.88618  0.93664  1.0000
  C   C9        1.0  0.31549  0.77954  0.37551  1.0000
  C   C10       1.0  0.81553  0.22048  0.12450  1.0000
  C   C11       1.0  0.68445  0.22046  0.62449  1.0000
  C   C12       1.0  0.18451  0.77954  0.87551  1.0000
  C   C13       1.0  0.52480  0.85354  0.32941  1.0000
  C   C14       1.0  0.02480  0.14650  0.17059  1.0000
  C   C15       1.0  0.47521  0.14647  0.67059  1.0000
  C   C16       1.0  0.97522  0.85351  0.82941  1.0000
  C   C17       1.0  0.56579  0.02154  0.33895  1.0000
  C   C18       1.0  0.06577  0.97846  0.16104  1.0000
  C   C19       1.0  0.43420  0.97844  0.66105  1.0000
  C   C20       1.0  0.93421  0.02153  0.83896  1.0000
  C   C21       1.0  0.40105  0.12564  0.39476  1.0000
  C   C22       1.0  0.90105  0.87437  0.10524  1.0000
  C   C23       1.0  0.59893  0.87436  0.60525  1.0000
  C   C24       1.0  0.09894  0.12562  0.89475  1.0000
  C   C25       1.0  0.19762  0.05999  0.44290  1.0000
  C   C26       1.0  0.69765  0.94000  0.05711  1.0000
  C   C27       1.0  0.80233  0.94000  0.55710  1.0000
  C   C28       1.0  0.30234  0.05999  0.94290  1.0000
  O   O1        1.0  0.93035  0.66981  0.50259  1.0000
  O   O2        1.0  0.43035  0.33019  0.99741  1.0000
  O   O3        1.0  0.06960  0.33019  0.49742  1.0000
  O   O4        1.0  0.56967  0.66980  0.00259  1.0000
  O   O5        1.0  0.27794  0.62050  0.35937  1.0000
  O   O6        1.0  0.77796  0.37952  0.14063  1.0000
  O   O7        1.0  0.72205  0.37949  0.64065  1.0000
  O   O8        1.0  0.22208  0.62049  0.85936  1.0000
  O   O9        1.0  0.72259  0.44487  0.32738  1.0000
  O   O10       1.0  0.22262  0.55514  0.17261  1.0000
  O   O11       1.0  0.27741  0.55513  0.67262  1.0000
  O   O12       1.0  0.77743  0.44487  0.82739  1.0000
