data_image0
_chemical_formula_structural       Li4H28C64O24
_chemical_formula_sum              "Li4 H28 C64 O24"
_cell_length_a       8.12962
_cell_length_b       10.6416
_cell_length_c       14.5954
_cell_angle_alpha    90
_cell_angle_beta     103.49
_cell_angle_gamma    90.0001

_space_group_name_H-M_alt    "P 1"
_space_group_IT_number       1

loop_
  _space_group_symop_operation_xyz
  'x, y, z'

loop_
  _atom_site_type_symbol
  _atom_site_label
  _atom_site_symmetry_multiplicity
  _atom_site_fract_x
  _atom_site_fract_y
  _atom_site_fract_z
  _atom_site_occupancy
  Li  Li1       1.0  0.07330  0.90828  0.62920  1.0000
  Li  Li2       1.0  0.92671  0.40828  0.87080  1.0000
  Li  Li3       1.0  0.92670  0.09172  0.37080  1.0000
  Li  Li4       1.0  0.07329  0.59172  0.12920  1.0000
  H   H1        1.0  0.86704  0.84395  0.29705  1.0000
  H   H2        1.0  0.13296  0.34395  0.20295  1.0000
  H   H3        1.0  0.13296  0.15605  0.70295  1.0000
  H   H4        1.0  0.86704  0.65605  0.79705  1.0000
  H   H5        1.0  0.55702  0.36443  0.73023  1.0000
  H   H6        1.0  0.44298  0.86443  0.76977  1.0000
  H   H7        1.0  0.44298  0.63557  0.26977  1.0000
  H   H8        1.0  0.55702  0.13557  0.23023  1.0000
  H   H9        1.0  0.52020  0.13241  0.74670  1.0000
  H   H10       1.0  0.47980  0.63241  0.75330  1.0000
  H   H11       1.0  0.47981  0.86760  0.25330  1.0000
  H   H12       1.0  0.52019  0.36759  0.24670  1.0000
  H   H13       1.0  0.59459  0.98683  0.62851  1.0000
  H   H14       1.0  0.40541  0.48683  0.87149  1.0000
  H   H15       1.0  0.40541  0.01317  0.37149  1.0000
  H   H16       1.0  0.59459  0.51317  0.12851  1.0000
  H   H17       1.0  0.70326  0.07126  0.49613  1.0000
  H   H18       1.0  0.29674  0.57126  0.00387  1.0000
  H   H19       1.0  0.29674  0.92874  0.50387  1.0000
  H   H20       1.0  0.70326  0.42874  0.99613  1.0000
  H   H21       1.0  0.88120  0.43659  0.32751  1.0000
  H   H22       1.0  0.11880  0.93659  0.17249  1.0000
  H   H23       1.0  0.11880  0.56341  0.67249  1.0000
  H   H24       1.0  0.88120  0.06341  0.82751  1.0000
  H   H25       1.0  0.73947  0.72184  0.56552  1.0000
  H   H26       1.0  0.26053  0.22184  0.93448  1.0000
  H   H27       1.0  0.26053  0.27816  0.43448  1.0000
  H   H28       1.0  0.73947  0.77816  0.06552  1.0000
  C   C1        1.0  0.66349  0.48507  0.59514  1.0000
  C   C2        1.0  0.33651  0.98507  0.90486  1.0000
  C   C3        1.0  0.33652  0.51493  0.40486  1.0000
  C   C4        1.0  0.66349  0.01493  0.09514  1.0000
  C   C5        1.0  0.73931  0.53174  0.51825  1.0000
  C   C6        1.0  0.26069  0.03174  0.98176  1.0000
  C   C7        1.0  0.26069  0.46826  0.48176  1.0000
  C   C8        1.0  0.73931  0.96826  0.01824  1.0000
  C   C9        1.0  0.78124  0.44968  0.45134  1.0000
  C   C10       1.0  0.21876  0.94968  0.04866  1.0000
  C   C11       1.0  0.21876  0.55032  0.54866  1.0000
  C   C12       1.0  0.78124  0.05032  0.95134  1.0000
  C   C13       1.0  0.75818  0.31198  0.45832  1.0000
  C   C14       1.0  0.24182  0.81198  0.04168  1.0000
  C   C15       1.0  0.24182  0.68802  0.54168  1.0000
  C   C16       1.0  0.75818  0.18802  0.95832  1.0000
  C   C17       1.0  0.69060  0.26472  0.53751  1.0000
  C   C18       1.0  0.30940  0.76472  0.96249  1.0000
  C   C19       1.0  0.30939  0.73528  0.46249  1.0000
  C   C20       1.0  0.69061  0.23528  0.03751  1.0000
  C   C21       1.0  0.64852  0.34745  0.60449  1.0000
  C   C22       1.0  0.35148  0.84745  0.89551  1.0000
  C   C23       1.0  0.35148  0.65255  0.39551  1.0000
  C   C24       1.0  0.64852  0.15255  0.10449  1.0000
  C   C25       1.0  0.58818  0.29885  0.67946  1.0000
  C   C26       1.0  0.41182  0.79885  0.82054  1.0000
  C   C27       1.0  0.41182  0.70116  0.32054  1.0000
  C   C28       1.0  0.58818  0.20116  0.17946  1.0000
  C   C29       1.0  0.56855  0.16968  0.68857  1.0000
  C   C30       1.0  0.43145  0.66968  0.81143  1.0000
  C   C31       1.0  0.43145  0.83032  0.31143  1.0000
  C   C32       1.0  0.56855  0.33032  0.18857  1.0000
  C   C33       1.0  0.60908  0.08806  0.62189  1.0000
  C   C34       1.0  0.39092  0.58806  0.87811  1.0000
  C   C35       1.0  0.39092  0.91194  0.37811  1.0000
  C   C36       1.0  0.60908  0.41194  0.12189  1.0000
  C   C37       1.0  0.66887  0.13507  0.54677  1.0000
  C   C38       1.0  0.33113  0.63507  0.95323  1.0000
  C   C39       1.0  0.33113  0.86493  0.45323  1.0000
  C   C40       1.0  0.66888  0.36493  0.04677  1.0000
  C   C41       1.0  0.84546  0.49963  0.37848  1.0000
  C   C42       1.0  0.15454  0.99963  0.12152  1.0000
  C   C43       1.0  0.15454  0.50037  0.62152  1.0000
  C   C44       1.0  0.84546  0.00037  0.87848  1.0000
  C   C45       1.0  0.86628  0.62982  0.36897  1.0000
  C   C46       1.0  0.13372  0.12982  0.13103  1.0000
  C   C47       1.0  0.13372  0.37018  0.63103  1.0000
  C   C48       1.0  0.86627  0.87018  0.86897  1.0000
  C   C49       1.0  0.93373  0.66674  0.28454  1.0000
  C   C50       1.0  0.06628  0.16674  0.21546  1.0000
  C   C51       1.0  0.06627  0.33326  0.71546  1.0000
  C   C52       1.0  0.93372  0.83326  0.78454  1.0000
  C   C53       1.0  0.85043  0.85325  0.44429  1.0000
  C   C54       1.0  0.14957  0.35325  0.05571  1.0000
  C   C55       1.0  0.14957  0.14675  0.55571  1.0000
  C   C56       1.0  0.85043  0.64675  0.94429  1.0000
  C   C57       1.0  0.82805  0.71174  0.43789  1.0000
  C   C58       1.0  0.17195  0.21174  0.06211  1.0000
  C   C59       1.0  0.17195  0.28826  0.56211  1.0000
  C   C60       1.0  0.82805  0.78826  0.93789  1.0000
  C   C61       1.0  0.76671  0.65998  0.51160  1.0000
  C   C62       1.0  0.23329  0.15998  0.98840  1.0000
  C   C63       1.0  0.23329  0.34002  0.48840  1.0000
  C   C64       1.0  0.76671  0.84002  0.01160  1.0000
  O   O1        1.0  0.60977  0.55940  0.64650  1.0000
  O   O2        1.0  0.39023  0.05940  0.85350  1.0000
  O   O3        1.0  0.39023  0.44060  0.35350  1.0000
  O   O4        1.0  0.60977  0.94060  0.14650  1.0000
  O   O5        1.0  0.79796  0.23930  0.40030  1.0000
  O   O6        1.0  0.20204  0.73930  0.09970  1.0000
  O   O7        1.0  0.20204  0.76070  0.59970  1.0000
  O   O8        1.0  0.79796  0.26070  0.90030  1.0000
  O   O9        1.0  0.00250  0.58468  0.24568  1.0000
  O   O10       1.0  0.99750  0.08468  0.25432  1.0000
  O   O11       1.0  0.99750  0.41532  0.75432  1.0000
  O   O12       1.0  0.00249  0.91532  0.74568  1.0000
  O   O13       1.0  0.91581  0.78158  0.25194  1.0000
  O   O14       1.0  0.08419  0.28158  0.24806  1.0000
  O   O15       1.0  0.08419  0.21842  0.74806  1.0000
  O   O16       1.0  0.91581  0.71842  0.75194  1.0000
  O   O17       1.0  0.83395  0.91823  0.36823  1.0000
  O   O18       1.0  0.16605  0.41823  0.13177  1.0000
  O   O19       1.0  0.16605  0.08177  0.63177  1.0000
  O   O20       1.0  0.83395  0.58176  0.86823  1.0000
  O   O21       1.0  0.87903  0.90069  0.52491  1.0000
  O   O22       1.0  0.12097  0.40069  0.97509  1.0000
  O   O23       1.0  0.12097  0.09931  0.47509  1.0000
  O   O24       1.0  0.87902  0.59931  0.02491  1.0000
