data_image0
_chemical_formula_structural       Li8H32C64O28
_chemical_formula_sum              "Li8 H32 C64 O28"
_cell_length_a       7.39629
_cell_length_b       9.48492
_cell_length_c       18.8442
_cell_angle_alpha    90.0001
_cell_angle_beta     96.5863
_cell_angle_gamma    89.9997

_space_group_name_H-M_alt    "P 1"
_space_group_IT_number       1

loop_
  _space_group_symop_operation_xyz
  'x, y, z'

loop_
  _atom_site_type_symbol
  _atom_site_label
  _atom_site_symmetry_multiplicity
  _atom_site_fract_x
  _atom_site_fract_y
  _atom_site_fract_z
  _atom_site_occupancy
  Li  Li1       1.0  0.72839  0.79786  0.65691  1.0000
  Li  Li2       1.0  0.77162  0.29786  0.34309  1.0000
  Li  Li3       1.0  0.27160  0.20214  0.34310  1.0000
  Li  Li4       1.0  0.22839  0.70214  0.65691  1.0000
  Li  Li5       1.0  0.65968  0.49964  0.45344  1.0000
  Li  Li6       1.0  0.84032  0.99963  0.54656  1.0000
  Li  Li7       1.0  0.34032  0.50036  0.54656  1.0000
  Li  Li8       1.0  0.15968  0.00036  0.45344  1.0000
  H   H1        1.0  0.48631  0.85419  0.54106  1.0000
  H   H2        1.0  0.01370  0.35419  0.45894  1.0000
  H   H3        1.0  0.51370  0.14580  0.45894  1.0000
  H   H4        1.0  0.98629  0.64581  0.54106  1.0000
  H   H5        1.0  0.66730  0.78245  0.52491  1.0000
  H   H6        1.0  0.83271  0.28245  0.47509  1.0000
  H   H7        1.0  0.33271  0.21754  0.47509  1.0000
  H   H8        1.0  0.16729  0.71754  0.52491  1.0000
  H   H9        1.0  0.26745  0.11979  0.96369  1.0000
  H   H10       1.0  0.23255  0.61978  0.03630  1.0000
  H   H11       1.0  0.73255  0.88021  0.03631  1.0000
  H   H12       1.0  0.76745  0.38022  0.96369  1.0000
  H   H13       1.0  0.21638  0.87239  0.00424  1.0000
  H   H14       1.0  0.28362  0.37237  0.99576  1.0000
  H   H15       1.0  0.78361  0.12762  0.99577  1.0000
  H   H16       1.0  0.71639  0.62763  0.00423  1.0000
  H   H17       1.0  0.32281  0.67076  0.93452  1.0000
  H   H18       1.0  0.17720  0.17075  0.06548  1.0000
  H   H19       1.0  0.67718  0.32925  0.06548  1.0000
  H   H20       1.0  0.82283  0.82926  0.93452  1.0000
  H   H21       1.0  0.47491  0.71631  0.82545  1.0000
  H   H22       1.0  0.02510  0.21630  0.17455  1.0000
  H   H23       1.0  0.52508  0.28369  0.17456  1.0000
  H   H24       1.0  0.97493  0.78369  0.82544  1.0000
  H   H25       1.0  0.63483  0.04469  0.64091  1.0000
  H   H26       1.0  0.86518  0.54469  0.35909  1.0000
  H   H27       1.0  0.36516  0.95531  0.35909  1.0000
  H   H28       1.0  0.13483  0.45531  0.64091  1.0000
  H   H29       1.0  0.48615  0.45014  0.78991  1.0000
  H   H30       1.0  0.01385  0.95013  0.21008  1.0000
  H   H31       1.0  0.51385  0.54987  0.21008  1.0000
  H   H32       1.0  0.98615  0.04987  0.78992  1.0000
  C   C1        1.0  0.43117  0.20352  0.85221  1.0000
  C   C2        1.0  0.06882  0.70351  0.14778  1.0000
  C   C3        1.0  0.56882  0.79648  0.14778  1.0000
  C   C4        1.0  0.93118  0.29649  0.85222  1.0000
  C   C5        1.0  0.50337  0.22514  0.78261  1.0000
  C   C6        1.0  0.99663  0.72513  0.21739  1.0000
  C   C7        1.0  0.49663  0.77487  0.21739  1.0000
  C   C8        1.0  0.00337  0.27487  0.78261  1.0000
  C   C9        1.0  0.55050  0.10972  0.74129  1.0000
  C   C10       1.0  0.94950  0.60971  0.25871  1.0000
  C   C11       1.0  0.44949  0.89028  0.25871  1.0000
  C   C12       1.0  0.05050  0.39029  0.74129  1.0000
  C   C13       1.0  0.54772  0.96454  0.76915  1.0000
  C   C14       1.0  0.95229  0.46453  0.23085  1.0000
  C   C15       1.0  0.45227  0.03546  0.23085  1.0000
  C   C16       1.0  0.04772  0.53546  0.76915  1.0000
  C   C17       1.0  0.45781  0.94112  0.83427  1.0000
  C   C18       1.0  0.04219  0.44112  0.16573  1.0000
  C   C19       1.0  0.54217  0.05888  0.16574  1.0000
  C   C20       1.0  0.95783  0.55888  0.83427  1.0000
  C   C21       1.0  0.39994  0.05589  0.87385  1.0000
  C   C22       1.0  0.10006  0.55588  0.12615  1.0000
  C   C23       1.0  0.60005  0.94412  0.12615  1.0000
  C   C24       1.0  0.89995  0.44412  0.87385  1.0000
  C   C25       1.0  0.31272  0.02976  0.93463  1.0000
  C   C26       1.0  0.18728  0.52975  0.06537  1.0000
  C   C27       1.0  0.68727  0.97025  0.06537  1.0000
  C   C28       1.0  0.81272  0.47025  0.93463  1.0000
  C   C29       1.0  0.28441  0.89210  0.95675  1.0000
  C   C30       1.0  0.21559  0.39209  0.04325  1.0000
  C   C31       1.0  0.71558  0.10790  0.04326  1.0000
  C   C32       1.0  0.78442  0.60791  0.95675  1.0000
  C   C33       1.0  0.34424  0.77889  0.91781  1.0000
  C   C34       1.0  0.15576  0.27888  0.08219  1.0000
  C   C35       1.0  0.65575  0.22112  0.08220  1.0000
  C   C36       1.0  0.84426  0.72113  0.91780  1.0000
  C   C37       1.0  0.42974  0.80309  0.85685  1.0000
  C   C38       1.0  0.07026  0.30309  0.14315  1.0000
  C   C39       1.0  0.57024  0.19691  0.14315  1.0000
  C   C40       1.0  0.92976  0.69691  0.85685  1.0000
  C   C41       1.0  0.60395  0.13380  0.67367  1.0000
  C   C42       1.0  0.89606  0.63379  0.32633  1.0000
  C   C43       1.0  0.39605  0.86620  0.32633  1.0000
  C   C44       1.0  0.10395  0.36620  0.67367  1.0000
  C   C45       1.0  0.61369  0.26982  0.64651  1.0000
  C   C46       1.0  0.88632  0.76981  0.35349  1.0000
  C   C47       1.0  0.38632  0.73018  0.35349  1.0000
  C   C48       1.0  0.11369  0.23018  0.64651  1.0000
  C   C49       1.0  0.65474  0.29098  0.57100  1.0000
  C   C50       1.0  0.84526  0.79098  0.42900  1.0000
  C   C51       1.0  0.34526  0.70901  0.42900  1.0000
  C   C52       1.0  0.15474  0.20902  0.57100  1.0000
  C   C53       1.0  0.57597  0.38583  0.68943  1.0000
  C   C54       1.0  0.92403  0.88582  0.31057  1.0000
  C   C55       1.0  0.42404  0.61417  0.31057  1.0000
  C   C56       1.0  0.07596  0.11417  0.68943  1.0000
  C   C57       1.0  0.58752  0.53667  0.66504  1.0000
  C   C58       1.0  0.91248  0.03666  0.33495  1.0000
  C   C59       1.0  0.41248  0.46333  0.33496  1.0000
  C   C60       1.0  0.08753  0.96333  0.66505  1.0000
  C   C61       1.0  0.52074  0.36203  0.75687  1.0000
  C   C62       1.0  0.97927  0.86202  0.24313  1.0000
  C   C63       1.0  0.47927  0.63798  0.24313  1.0000
  C   C64       1.0  0.02073  0.13798  0.75687  1.0000
  O   O1        1.0  0.39437  0.30517  0.88940  1.0000
  O   O2        1.0  0.10560  0.80516  0.11060  1.0000
  O   O3        1.0  0.60561  0.69483  0.11060  1.0000
  O   O4        1.0  0.89440  0.19483  0.88941  1.0000
  O   O5        1.0  0.62255  0.86567  0.74054  1.0000
  O   O6        1.0  0.87746  0.36566  0.25946  1.0000
  O   O7        1.0  0.37744  0.13433  0.25946  1.0000
  O   O8        1.0  0.12255  0.63433  0.74054  1.0000
  O   O9        1.0  0.61667  0.85130  0.55765  1.0000
  O   O10       1.0  0.88334  0.35130  0.44235  1.0000
  O   O11       1.0  0.38334  0.14869  0.44235  1.0000
  O   O12       1.0  0.11665  0.64869  0.55764  1.0000
  O   O13       1.0  0.61135  0.40856  0.54220  1.0000
  O   O14       1.0  0.88866  0.90855  0.45780  1.0000
  O   O15       1.0  0.38866  0.59145  0.45780  1.0000
  O   O16       1.0  0.11134  0.09144  0.54220  1.0000
  O   O17       1.0  0.72571  0.18951  0.53857  1.0000
  O   O18       1.0  0.77429  0.68951  0.46143  1.0000
  O   O19       1.0  0.27428  0.81049  0.46144  1.0000
  O   O20       1.0  0.22572  0.31049  0.53857  1.0000
  O   O21       1.0  0.43705  0.59294  0.63959  1.0000
  O   O22       1.0  0.06294  0.09294  0.36041  1.0000
  O   O23       1.0  0.56294  0.40705  0.36041  1.0000
  O   O24       1.0  0.93706  0.90706  0.63959  1.0000
  O   O25       1.0  0.73921  0.59718  0.67444  1.0000
  O   O26       1.0  0.76078  0.09717  0.32555  1.0000
  O   O27       1.0  0.26079  0.40283  0.32556  1.0000
  O   O28       1.0  0.23921  0.90283  0.67445  1.0000
