data_image0
_chemical_formula_structural       CuB2H18C4N22
_chemical_formula_sum              "Cu1 B2 H18 C4 N22"
_cell_length_a       6.50246
_cell_length_b       7.18115
_cell_length_c       9.64142
_cell_angle_alpha    74.5875
_cell_angle_beta     82.2035
_cell_angle_gamma    79.7943

_space_group_name_H-M_alt    "P 1"
_space_group_IT_number       1

loop_
  _space_group_symop_operation_xyz
  'x, y, z'

loop_
  _atom_site_type_symbol
  _atom_site_label
  _atom_site_symmetry_multiplicity
  _atom_site_fract_x
  _atom_site_fract_y
  _atom_site_fract_z
  _atom_site_occupancy
  Cu  Cu1       1.0  0.50000  0.00000  0.50000  1.0000
  B   B1        1.0  0.15343  0.69261  0.11979  1.0000
  B   B2        1.0  0.84657  0.30739  0.88021  1.0000
  H   H1        1.0  0.67784  0.34380  0.27518  1.0000
  H   H2        1.0  0.32216  0.65620  0.72482  1.0000
  H   H3        1.0  0.57329  0.55838  0.16523  1.0000
  H   H4        1.0  0.42671  0.44161  0.83477  1.0000
  H   H5        1.0  0.36426  0.86130  0.32283  1.0000
  H   H6        1.0  0.63574  0.13871  0.67717  1.0000
  H   H7        1.0  0.17632  0.86017  0.45790  1.0000
  H   H8        1.0  0.82368  0.13983  0.54210  1.0000
  H   H9        1.0  0.38033  0.68328  0.47187  1.0000
  H   H10       1.0  0.61967  0.31672  0.52812  1.0000
  H   H11       1.0  0.59985  0.85439  0.93393  1.0000
  H   H12       1.0  0.40014  0.14561  0.06607  1.0000
  H   H13       1.0  0.84706  0.71527  0.94315  1.0000
  H   H14       1.0  0.15294  0.28473  0.05685  1.0000
  H   H15       1.0  0.14504  0.65867  0.00378  1.0000
  H   H16       1.0  0.85496  0.34133  0.99622  1.0000
  H   H17       1.0  0.30237  0.77323  0.11762  1.0000
  H   H18       1.0  0.69763  0.22677  0.88238  1.0000
  C   C1        1.0  0.36082  0.39559  0.29282  1.0000
  C   C2        1.0  0.63919  0.60441  0.70718  1.0000
  C   C3        1.0  0.76246  0.85779  0.09861  1.0000
  C   C4        1.0  0.23755  0.14221  0.90138  1.0000
  N   N1        1.0  0.31213  0.23324  0.39162  1.0000
  N   N2        1.0  0.68787  0.76676  0.60839  1.0000
  N   N3        1.0  0.10152  0.23816  0.39538  1.0000
  N   N4        1.0  0.89848  0.76185  0.60463  1.0000
  N   N5        1.0  0.18096  0.49763  0.23948  1.0000
  N   N6        1.0  0.81904  0.50238  0.76052  1.0000
  N   N7        1.0  0.02224  0.39383  0.30550  1.0000
  N   N8        1.0  0.97776  0.60617  0.69450  1.0000
  N   N9        1.0  0.55232  0.45200  0.25854  1.0000
  N   N10       1.0  0.44768  0.54800  0.74147  1.0000
  N   N11       1.0  0.33583  0.82976  0.43323  1.0000
  N   N12       1.0  0.66416  0.17024  0.56677  1.0000
  N   N13       1.0  0.94889  0.82205  0.15618  1.0000
  N   N14       1.0  0.05111  0.17795  0.84382  1.0000
  N   N15       1.0  0.92784  0.92681  0.25766  1.0000
  N   N16       1.0  0.07216  0.07319  0.74234  1.0000
  N   N17       1.0  0.62765  0.98057  0.16293  1.0000
  N   N18       1.0  0.37235  0.01943  0.83706  1.0000
  N   N19       1.0  0.71720  0.77354  0.99780  1.0000
  N   N20       1.0  0.28280  0.22646  0.00219  1.0000
  N   N21       1.0  0.73782  0.01949  0.26021  1.0000
  N   N22       1.0  0.26218  0.98051  0.73979  1.0000
