data_image0
_chemical_formula_structural       Li4H36C56O20
_chemical_formula_sum              "Li4 H36 C56 O20"
_cell_length_a       3.91587
_cell_length_b       15.5133
_cell_length_c       17.82
_cell_angle_alpha    90.0003
_cell_angle_beta     89.9989
_cell_angle_gamma    90

_space_group_name_H-M_alt    "P 1"
_space_group_IT_number       1

loop_
  _space_group_symop_operation_xyz
  'x, y, z'

loop_
  _atom_site_type_symbol
  _atom_site_label
  _atom_site_symmetry_multiplicity
  _atom_site_fract_x
  _atom_site_fract_y
  _atom_site_fract_z
  _atom_site_occupancy
  Li  Li1       1.0  0.01039  0.31143  0.53866  1.0000
  Li  Li2       1.0  0.48958  0.68856  0.03865  1.0000
  Li  Li3       1.0  0.51042  0.18856  0.46134  1.0000
  Li  Li4       1.0  0.98959  0.81143  0.96134  1.0000
  H   H1        1.0  0.27338  0.46808  0.17091  1.0000
  H   H2        1.0  0.22667  0.53191  0.67090  1.0000
  H   H3        1.0  0.77333  0.03193  0.82910  1.0000
  H   H4        1.0  0.72663  0.96809  0.32909  1.0000
  H   H5        1.0  0.54953  0.39912  0.57905  1.0000
  H   H6        1.0  0.95043  0.60088  0.07904  1.0000
  H   H7        1.0  0.04954  0.10089  0.42095  1.0000
  H   H8        1.0  0.45044  0.89911  0.92095  1.0000
  H   H9        1.0  0.79319  0.40871  0.65034  1.0000
  H   H10       1.0  0.70677  0.59128  0.15034  1.0000
  H   H11       1.0  0.29320  0.09129  0.34966  1.0000
  H   H12       1.0  0.20678  0.90872  0.84966  1.0000
  H   H13       1.0  0.75557  0.27940  0.19067  1.0000
  H   H14       1.0  0.74445  0.72059  0.69066  1.0000
  H   H15       1.0  0.25552  0.22061  0.80933  1.0000
  H   H16       1.0  0.24446  0.77941  0.30934  1.0000
  H   H17       1.0  0.62923  0.22223  0.31782  1.0000
  H   H18       1.0  0.87076  0.77777  0.81781  1.0000
  H   H19       1.0  0.12921  0.27778  0.68218  1.0000
  H   H20       1.0  0.37076  0.72223  0.18219  1.0000
  H   H21       1.0  0.69450  0.66207  0.28369  1.0000
  H   H22       1.0  0.80550  0.33792  0.78369  1.0000
  H   H23       1.0  0.19447  0.83793  0.71631  1.0000
  H   H24       1.0  0.30553  0.16207  0.21631  1.0000
  H   H25       1.0  0.86658  0.74833  0.39578  1.0000
  H   H26       1.0  0.63340  0.25167  0.89578  1.0000
  H   H27       1.0  0.36657  0.75168  0.60422  1.0000
  H   H28       1.0  0.13347  0.24833  0.10423  1.0000
  H   H29       1.0  0.78881  0.68737  0.52374  1.0000
  H   H30       1.0  0.71120  0.31263  0.02375  1.0000
  H   H31       1.0  0.28880  0.81264  0.47625  1.0000
  H   H32       1.0  0.21121  0.18737  0.97626  1.0000
  H   H33       1.0  0.51282  0.54494  0.54024  1.0000
  H   H34       1.0  0.98723  0.45505  0.04023  1.0000
  H   H35       1.0  0.01278  0.95506  0.45976  1.0000
  H   H36       1.0  0.48719  0.04495  0.95977  1.0000
  C   C1        1.0  0.37485  0.50785  0.28415  1.0000
  C   C2        1.0  0.12517  0.49214  0.78415  1.0000
  C   C3        1.0  0.87482  0.99215  0.71585  1.0000
  C   C4        1.0  0.62517  0.00786  0.21585  1.0000
  C   C5        1.0  0.18072  0.43012  0.29624  1.0000
  C   C6        1.0  0.31930  0.56987  0.79624  1.0000
  C   C7        1.0  0.68069  0.06988  0.70376  1.0000
  C   C8        1.0  0.81931  0.93012  0.20376  1.0000
  C   C9        1.0  0.05763  0.38596  0.23222  1.0000
  C   C10       1.0  0.44240  0.61403  0.73222  1.0000
  C   C11       1.0  0.55758  0.11405  0.76778  1.0000
  C   C12       1.0  0.94241  0.88597  0.26778  1.0000
  C   C13       1.0  0.85554  0.31076  0.24078  1.0000
  C   C14       1.0  0.64448  0.68923  0.74077  1.0000
  C   C15       1.0  0.35550  0.18924  0.75922  1.0000
  C   C16       1.0  0.14450  0.81077  0.25923  1.0000
  C   C17       1.0  0.78585  0.27970  0.31069  1.0000
  C   C18       1.0  0.71416  0.72030  0.81069  1.0000
  C   C19       1.0  0.28582  0.22031  0.68931  1.0000
  C   C20       1.0  0.21417  0.77970  0.18931  1.0000
  C   C21       1.0  0.91064  0.31995  0.37865  1.0000
  C   C22       1.0  0.58937  0.68005  0.87864  1.0000
  C   C23       1.0  0.41061  0.18006  0.62135  1.0000
  C   C24       1.0  0.08937  0.81995  0.12136  1.0000
  C   C25       1.0  0.26324  0.43996  0.43436  1.0000
  C   C26       1.0  0.23677  0.56004  0.93434  1.0000
  C   C27       1.0  0.76321  0.06004  0.56565  1.0000
  C   C28       1.0  0.73677  0.93996  0.06565  1.0000
  C   C29       1.0  0.11596  0.39658  0.37040  1.0000
  C   C30       1.0  0.38405  0.60342  0.87039  1.0000
  C   C31       1.0  0.61593  0.10343  0.62960  1.0000
  C   C32       1.0  0.88407  0.89658  0.12960  1.0000
  C   C33       1.0  0.43839  0.52344  0.42202  1.0000
  C   C34       1.0  0.06162  0.47655  0.92202  1.0000
  C   C35       1.0  0.93837  0.97656  0.57798  1.0000
  C   C36       1.0  0.56162  0.02344  0.07798  1.0000
  C   C37       1.0  0.49046  0.55714  0.34922  1.0000
  C   C38       1.0  0.00956  0.44286  0.84921  1.0000
  C   C39       1.0  0.99043  0.94286  0.65078  1.0000
  C   C40       1.0  0.50956  0.05714  0.15079  1.0000
  C   C41       1.0  0.65073  0.63756  0.34019  1.0000
  C   C42       1.0  0.84929  0.36243  0.84019  1.0000
  C   C43       1.0  0.15069  0.86243  0.65981  1.0000
  C   C44       1.0  0.34930  0.13757  0.15981  1.0000
  C   C45       1.0  0.75132  0.68489  0.40266  1.0000
  C   C46       1.0  0.74868  0.31511  0.90266  1.0000
  C   C47       1.0  0.25130  0.81512  0.59733  1.0000
  C   C48       1.0  0.24872  0.18489  0.09734  1.0000
  C   C49       1.0  0.70419  0.65098  0.47481  1.0000
  C   C50       1.0  0.79583  0.34902  0.97481  1.0000
  C   C51       1.0  0.20417  0.84902  0.52519  1.0000
  C   C52       1.0  0.29584  0.15099  0.02520  1.0000
  C   C53       1.0  0.55129  0.57089  0.48425  1.0000
  C   C54       1.0  0.94874  0.42911  0.98424  1.0000
  C   C55       1.0  0.05126  0.92911  0.51576  1.0000
  C   C56       1.0  0.44873  0.07089  0.01576  1.0000
  O   O1        1.0  0.43865  0.53452  0.21737  1.0000
  O   O2        1.0  0.06139  0.46547  0.71737  1.0000
  O   O3        1.0  0.93862  0.96549  0.78263  1.0000
  O   O4        1.0  0.56135  0.03452  0.28263  1.0000
  O   O5        1.0  0.12690  0.41281  0.16256  1.0000
  O   O6        1.0  0.37313  0.58718  0.66256  1.0000
  O   O7        1.0  0.62685  0.08720  0.83744  1.0000
  O   O8        1.0  0.87313  0.91282  0.33744  1.0000
  O   O9        1.0  0.82695  0.28541  0.44169  1.0000
  O   O10       1.0  0.67305  0.71459  0.94168  1.0000
  O   O11       1.0  0.32695  0.21459  0.55831  1.0000
  O   O12       1.0  0.17305  0.78541  0.05831  1.0000
  O   O13       1.0  0.24903  0.41060  0.50064  1.0000
  O   O14       1.0  0.25095  0.58940  0.00064  1.0000
  O   O15       1.0  0.74904  0.08940  0.49936  1.0000
  O   O16       1.0  0.75094  0.91059  0.99936  1.0000
  O   O17       1.0  0.70919  0.36817  0.61231  1.0000
  O   O18       1.0  0.79079  0.63183  0.11230  1.0000
  O   O19       1.0  0.20921  0.13183  0.38769  1.0000
  O   O20       1.0  0.29078  0.86817  0.88769  1.0000
