data_image0
_chemical_formula_structural       Li8H40C56O24
_chemical_formula_sum              "Li8 H40 C56 O24"
_cell_length_a       7.13906
_cell_length_b       10.4867
_cell_length_c       16.1714
_cell_angle_alpha    90.0001
_cell_angle_beta     90.0001
_cell_angle_gamma    90

_space_group_name_H-M_alt    "P 1"
_space_group_IT_number       1

loop_
  _space_group_symop_operation_xyz
  'x, y, z'

loop_
  _atom_site_type_symbol
  _atom_site_label
  _atom_site_symmetry_multiplicity
  _atom_site_fract_x
  _atom_site_fract_y
  _atom_site_fract_z
  _atom_site_occupancy
  Li  Li1       1.0  0.18863  0.51989  0.49121  1.0000
  Li  Li2       1.0  0.68863  0.98011  0.00879  1.0000
  Li  Li3       1.0  0.81137  0.48011  0.99121  1.0000
  Li  Li4       1.0  0.31137  0.01989  0.50879  1.0000
  Li  Li5       1.0  0.81137  0.48011  0.50879  1.0000
  Li  Li6       1.0  0.31137  0.01989  0.99121  1.0000
  Li  Li7       1.0  0.18863  0.51989  0.00879  1.0000
  Li  Li8       1.0  0.68863  0.98011  0.49121  1.0000
  H   H1        1.0  0.30876  0.74209  0.53638  1.0000
  H   H2        1.0  0.80876  0.75792  0.96362  1.0000
  H   H3        1.0  0.69124  0.25791  0.03638  1.0000
  H   H4        1.0  0.19124  0.24209  0.46362  1.0000
  H   H5        1.0  0.69124  0.25791  0.46362  1.0000
  H   H6        1.0  0.19124  0.24209  0.03638  1.0000
  H   H7        1.0  0.30876  0.74209  0.96362  1.0000
  H   H8        1.0  0.80876  0.75791  0.53638  1.0000
  H   H9        1.0  0.48123  0.64616  0.54170  1.0000
  H   H10       1.0  0.98123  0.85384  0.95830  1.0000
  H   H11       1.0  0.51877  0.35384  0.04170  1.0000
  H   H12       1.0  0.01877  0.14616  0.45830  1.0000
  H   H13       1.0  0.51877  0.35384  0.45830  1.0000
  H   H14       1.0  0.01877  0.14616  0.04170  1.0000
  H   H15       1.0  0.48123  0.64616  0.95829  1.0000
  H   H16       1.0  0.98123  0.85384  0.54170  1.0000
  H   H17       1.0  0.65710  0.61010  0.40336  1.0000
  H   H18       1.0  0.15710  0.88990  0.09664  1.0000
  H   H19       1.0  0.34290  0.38990  0.90336  1.0000
  H   H20       1.0  0.84290  0.11010  0.59664  1.0000
  H   H21       1.0  0.34290  0.38990  0.59664  1.0000
  H   H22       1.0  0.84290  0.11010  0.90337  1.0000
  H   H23       1.0  0.65710  0.61010  0.09664  1.0000
  H   H24       1.0  0.15710  0.88990  0.40336  1.0000
  H   H25       1.0  0.38077  0.68712  0.32761  1.0000
  H   H26       1.0  0.88077  0.81288  0.17239  1.0000
  H   H27       1.0  0.61923  0.31288  0.82761  1.0000
  H   H28       1.0  0.11923  0.18711  0.67239  1.0000
  H   H29       1.0  0.61923  0.31288  0.67239  1.0000
  H   H30       1.0  0.11923  0.18712  0.82761  1.0000
  H   H31       1.0  0.38077  0.68712  0.17239  1.0000
  H   H32       1.0  0.88078  0.81288  0.32761  1.0000
  H   H33       1.0  0.53095  0.28322  0.32596  1.0000
  H   H34       1.0  0.03095  0.21678  0.17403  1.0000
  H   H35       1.0  0.46905  0.71678  0.82597  1.0000
  H   H36       1.0  0.96905  0.78321  0.67403  1.0000
  H   H37       1.0  0.46905  0.71678  0.67404  1.0000
  H   H38       1.0  0.96905  0.78322  0.82596  1.0000
  H   H39       1.0  0.53095  0.28322  0.17403  1.0000
  H   H40       1.0  0.03095  0.21678  0.32597  1.0000
  C   C1        1.0  0.28060  0.39704  0.33976  1.0000
  C   C2        1.0  0.78060  0.10296  0.16024  1.0000
  C   C3        1.0  0.71940  0.60296  0.83976  1.0000
  C   C4        1.0  0.21940  0.89704  0.66024  1.0000
  C   C5        1.0  0.71940  0.60296  0.66024  1.0000
  C   C6        1.0  0.21940  0.89704  0.83976  1.0000
  C   C7        1.0  0.28060  0.39704  0.16024  1.0000
  C   C8        1.0  0.78060  0.10296  0.33976  1.0000
  C   C9        1.0  0.97788  0.51537  0.33953  1.0000
  C   C10       1.0  0.47788  0.98463  0.16047  1.0000
  C   C11       1.0  0.02212  0.48463  0.83953  1.0000
  C   C12       1.0  0.52212  0.01537  0.66047  1.0000
  C   C13       1.0  0.02212  0.48463  0.66047  1.0000
  C   C14       1.0  0.52212  0.01538  0.83953  1.0000
  C   C15       1.0  0.97788  0.51537  0.16047  1.0000
  C   C16       1.0  0.47788  0.98463  0.33953  1.0000
  C   C17       1.0  0.13281  0.45961  0.29499  1.0000
  C   C18       1.0  0.63281  0.04038  0.20502  1.0000
  C   C19       1.0  0.86719  0.54038  0.79498  1.0000
  C   C20       1.0  0.36719  0.95962  0.70502  1.0000
  C   C21       1.0  0.86719  0.54039  0.70502  1.0000
  C   C22       1.0  0.36719  0.95962  0.79498  1.0000
  C   C23       1.0  0.13281  0.45961  0.20502  1.0000
  C   C24       1.0  0.63281  0.04038  0.29499  1.0000
  C   C25       1.0  0.81160  0.55773  0.29357  1.0000
  C   C26       1.0  0.31160  0.94227  0.20643  1.0000
  C   C27       1.0  0.18840  0.44227  0.79357  1.0000
  C   C28       1.0  0.68840  0.05772  0.70643  1.0000
  C   C29       1.0  0.18840  0.44227  0.70643  1.0000
  C   C30       1.0  0.68840  0.05773  0.79357  1.0000
  C   C31       1.0  0.81160  0.55773  0.20643  1.0000
  C   C32       1.0  0.31160  0.94227  0.29357  1.0000
  C   C33       1.0  0.65565  0.60623  0.33618  1.0000
  C   C34       1.0  0.15565  0.89377  0.16382  1.0000
  C   C35       1.0  0.34435  0.39377  0.83618  1.0000
  C   C36       1.0  0.84435  0.10623  0.66382  1.0000
  C   C37       1.0  0.34435  0.39377  0.66382  1.0000
  C   C38       1.0  0.84435  0.10623  0.83618  1.0000
  C   C39       1.0  0.65565  0.60623  0.16382  1.0000
  C   C40       1.0  0.15565  0.89377  0.33618  1.0000
  C   C41       1.0  0.50116  0.65182  0.29336  1.0000
  C   C42       1.0  0.00116  0.84818  0.20665  1.0000
  C   C43       1.0  0.49884  0.34818  0.79335  1.0000
  C   C44       1.0  0.99884  0.15182  0.70664  1.0000
  C   C45       1.0  0.49884  0.34818  0.70664  1.0000
  C   C46       1.0  0.99884  0.15182  0.79336  1.0000
  C   C47       1.0  0.50116  0.65182  0.20664  1.0000
  C   C48       1.0  0.00116  0.84818  0.29336  1.0000
  C   C49       1.0  0.42016  0.33146  0.29202  1.0000
  C   C50       1.0  0.92016  0.16854  0.20798  1.0000
  C   C51       1.0  0.57984  0.66854  0.79202  1.0000
  C   C52       1.0  0.07984  0.83146  0.70798  1.0000
  C   C53       1.0  0.57983  0.66854  0.70798  1.0000
  C   C54       1.0  0.07983  0.83146  0.79202  1.0000
  C   C55       1.0  0.42016  0.33146  0.20798  1.0000
  C   C56       1.0  0.92017  0.16854  0.29202  1.0000
  O   O1        1.0  0.29623  0.39261  0.42024  1.0000
  O   O2        1.0  0.79623  0.10739  0.07976  1.0000
  O   O3        1.0  0.70377  0.60739  0.92024  1.0000
  O   O4        1.0  0.20377  0.89261  0.57976  1.0000
  O   O5        1.0  0.70377  0.60739  0.57976  1.0000
  O   O6        1.0  0.20377  0.89261  0.92024  1.0000
  O   O7        1.0  0.29623  0.39261  0.07976  1.0000
  O   O8        1.0  0.79623  0.10739  0.42024  1.0000
  O   O9        1.0  0.97723  0.52900  0.41784  1.0000
  O   O10       1.0  0.47723  0.97100  0.08217  1.0000
  O   O11       1.0  0.02277  0.47100  0.91783  1.0000
  O   O12       1.0  0.52277  0.02900  0.58217  1.0000
  O   O13       1.0  0.02277  0.47100  0.58217  1.0000
  O   O14       1.0  0.52277  0.02900  0.91783  1.0000
  O   O15       1.0  0.97723  0.52900  0.08217  1.0000
  O   O16       1.0  0.47723  0.97100  0.41784  1.0000
  O   O17       1.0  0.35456  0.65867  0.51690  1.0000
  O   O18       1.0  0.85456  0.84133  0.98310  1.0000
  O   O19       1.0  0.64544  0.34133  0.01690  1.0000
  O   O20       1.0  0.14544  0.15867  0.48310  1.0000
  O   O21       1.0  0.64544  0.34133  0.48310  1.0000
  O   O22       1.0  0.14544  0.15867  0.01690  1.0000
  O   O23       1.0  0.35456  0.65867  0.98310  1.0000
  O   O24       1.0  0.85457  0.84133  0.51690  1.0000
