data_image0
_chemical_formula_structural       Li4H32C56N4O24
_chemical_formula_sum              "Li4 H32 C56 N4 O24"
_cell_length_a       4.86173
_cell_length_b       13.06
_cell_length_c       18.8858
_cell_angle_alpha    89.9997
_cell_angle_beta     90
_cell_angle_gamma    90.0002

_space_group_name_H-M_alt    "P 1"
_space_group_IT_number       1

loop_
  _space_group_symop_operation_xyz
  'x, y, z'

loop_
  _atom_site_type_symbol
  _atom_site_label
  _atom_site_symmetry_multiplicity
  _atom_site_fract_x
  _atom_site_fract_y
  _atom_site_fract_z
  _atom_site_occupancy
  Li  Li1       1.0  0.68432  0.30314  0.46824  1.0000
  Li  Li2       1.0  0.18432  0.19685  0.53178  1.0000
  Li  Li3       1.0  0.31570  0.80315  0.03176  1.0000
  Li  Li4       1.0  0.81568  0.69688  0.96823  1.0000
  H   H1        1.0  0.41692  0.38043  0.35495  1.0000
  H   H2        1.0  0.91688  0.11956  0.64505  1.0000
  H   H3        1.0  0.58307  0.88046  0.14505  1.0000
  H   H4        1.0  0.08309  0.61956  0.85496  1.0000
  H   H5        1.0  0.23898  0.36913  0.42385  1.0000
  H   H6        1.0  0.73897  0.13086  0.57615  1.0000
  H   H7        1.0  0.76104  0.86914  0.07617  1.0000
  H   H8        1.0  0.26102  0.63087  0.92385  1.0000
  H   H9        1.0  0.28876  0.33717  0.78573  1.0000
  H   H10       1.0  0.78875  0.16283  0.21428  1.0000
  H   H11       1.0  0.71123  0.83717  0.71427  1.0000
  H   H12       1.0  0.21130  0.66282  0.28572  1.0000
  H   H13       1.0  0.20544  0.25937  0.66806  1.0000
  H   H14       1.0  0.70539  0.24061  0.33195  1.0000
  H   H15       1.0  0.79457  0.75938  0.83194  1.0000
  H   H16       1.0  0.29459  0.74063  0.16806  1.0000
  H   H17       1.0  0.58718  0.67382  0.48218  1.0000
  H   H18       1.0  0.08719  0.82617  0.51782  1.0000
  H   H19       1.0  0.41279  0.17383  0.01781  1.0000
  H   H20       1.0  0.91284  0.32618  0.98217  1.0000
  H   H21       1.0  0.25546  0.53110  0.46700  1.0000
  H   H22       1.0  0.75548  0.96889  0.53300  1.0000
  H   H23       1.0  0.74451  0.03110  0.03299  1.0000
  H   H24       1.0  0.24456  0.46891  0.96700  1.0000
  H   H25       1.0  0.63185  0.76116  0.59882  1.0000
  H   H26       1.0  0.13184  0.73883  0.40119  1.0000
  H   H27       1.0  0.36815  0.26117  0.90117  1.0000
  H   H28       1.0  0.86818  0.23883  0.09881  1.0000
  H   H29       1.0  0.34182  0.70212  0.70143  1.0000
  H   H30       1.0  0.84181  0.79788  0.29858  1.0000
  H   H31       1.0  0.65817  0.20212  0.79856  1.0000
  H   H32       1.0  0.15820  0.29787  0.20142  1.0000
  C   C1        1.0  0.91943  0.44984  0.56478  1.0000
  C   C2        1.0  0.41943  0.05015  0.43523  1.0000
  C   C3        1.0  0.08056  0.94984  0.93521  1.0000
  C   C4        1.0  0.58056  0.55017  0.06478  1.0000
  C   C5        1.0  0.11422  0.53615  0.57505  1.0000
  C   C6        1.0  0.61422  0.96384  0.42496  1.0000
  C   C7        1.0  0.88576  0.03615  0.92495  1.0000
  C   C8        1.0  0.38579  0.46385  0.07504  1.0000
  C   C9        1.0  0.74128  0.41910  0.62323  1.0000
  C   C10       1.0  0.24128  0.08089  0.37678  1.0000
  C   C11       1.0  0.25871  0.91910  0.87677  1.0000
  C   C12       1.0  0.75872  0.58091  0.12323  1.0000
  C   C13       1.0  0.62864  0.42916  0.74855  1.0000
  C   C14       1.0  0.12865  0.07084  0.25146  1.0000
  C   C15       1.0  0.37133  0.92916  0.75144  1.0000
  C   C16       1.0  0.87139  0.57083  0.24855  1.0000
  C   C17       1.0  0.13999  0.58521  0.64104  1.0000
  C   C18       1.0  0.63999  0.91478  0.35897  1.0000
  C   C19       1.0  0.85998  0.08521  0.85895  1.0000
  C   C20       1.0  0.36001  0.41479  0.14104  1.0000
  C   C21       1.0  0.97223  0.55181  0.70173  1.0000
  C   C22       1.0  0.47224  0.94820  0.29828  1.0000
  C   C23       1.0  0.02774  0.05180  0.79827  1.0000
  C   C24       1.0  0.52778  0.44820  0.20172  1.0000
  C   C25       1.0  0.41581  0.35765  0.74034  1.0000
  C   C26       1.0  0.91579  0.14235  0.25967  1.0000
  C   C27       1.0  0.58418  0.85765  0.75966  1.0000
  C   C28       1.0  0.08422  0.64235  0.24033  1.0000
  C   C29       1.0  0.36920  0.31530  0.67493  1.0000
  C   C30       1.0  0.86917  0.18469  0.32508  1.0000
  C   C31       1.0  0.63080  0.81531  0.82507  1.0000
  C   C32       1.0  0.13083  0.68470  0.17493  1.0000
  C   C33       1.0  0.46076  0.64958  0.52680  1.0000
  C   C34       1.0  0.96075  0.85041  0.47321  1.0000
  C   C35       1.0  0.53922  0.14958  0.97319  1.0000
  C   C36       1.0  0.03928  0.35043  0.02679  1.0000
  C   C37       1.0  0.52963  0.34159  0.61378  1.0000
  C   C38       1.0  0.02961  0.15839  0.38624  1.0000
  C   C39       1.0  0.47036  0.84160  0.88622  1.0000
  C   C40       1.0  0.97037  0.65842  0.11377  1.0000
  C   C41       1.0  0.78338  0.46391  0.69133  1.0000
  C   C42       1.0  0.28339  0.03608  0.30868  1.0000
  C   C43       1.0  0.21659  0.96391  0.80866  1.0000
  C   C44       1.0  0.71661  0.53609  0.19133  1.0000
  C   C45       1.0  0.27565  0.56921  0.51797  1.0000
  C   C46       1.0  0.77566  0.93078  0.48203  1.0000
  C   C47       1.0  0.72432  0.06921  0.98202  1.0000
  C   C48       1.0  0.22437  0.43080  0.01797  1.0000
  C   C49       1.0  0.48598  0.69837  0.59257  1.0000
  C   C50       1.0  0.98597  0.80163  0.40743  1.0000
  C   C51       1.0  0.51401  0.19838  0.90742  1.0000
  C   C52       1.0  0.01405  0.30163  0.09257  1.0000
  C   C53       1.0  0.32588  0.66634  0.64949  1.0000
  C   C54       1.0  0.82588  0.83366  0.35052  1.0000
  C   C55       1.0  0.67410  0.16634  0.85050  1.0000
  C   C56       1.0  0.17414  0.33366  0.14948  1.0000
  N   N1        1.0  0.68292  0.45993  0.82206  1.0000
  N   N2        1.0  0.18296  0.04009  0.17794  1.0000
  N   N3        1.0  0.31705  0.95992  0.67793  1.0000
  N   N4        1.0  0.81713  0.54006  0.32206  1.0000
  O   O1        1.0  0.47336  0.29793  0.55447  1.0000
  O   O2        1.0  0.97334  0.20207  0.44554  1.0000
  O   O3        1.0  0.52665  0.79794  0.94552  1.0000
  O   O4        1.0  0.02663  0.70209  0.05447  1.0000
  O   O5        1.0  0.92181  0.40469  0.50619  1.0000
  O   O6        1.0  0.42181  0.09530  0.49382  1.0000
  O   O7        1.0  0.07820  0.90470  0.99381  1.0000
  O   O8        1.0  0.57816  0.59532  0.00619  1.0000
  O   O9        1.0  0.98029  0.59847  0.75914  1.0000
  O   O10       1.0  0.48029  0.90154  0.24087  1.0000
  O   O11       1.0  0.01966  0.09846  0.74085  1.0000
  O   O12       1.0  0.51973  0.40154  0.25914  1.0000
  O   O13       1.0  0.41390  0.34979  0.40220  1.0000
  O   O14       1.0  0.91389  0.15019  0.59780  1.0000
  O   O15       1.0  0.58609  0.84983  0.09780  1.0000
  O   O16       1.0  0.08611  0.65020  0.90220  1.0000
  O   O17       1.0  0.88765  0.42247  0.85157  1.0000
  O   O18       1.0  0.38772  0.07755  0.14845  1.0000
  O   O19       1.0  0.11231  0.92245  0.64843  1.0000
  O   O20       1.0  0.61239  0.57752  0.35157  1.0000
  O   O21       1.0  0.50541  0.51232  0.85193  1.0000
  O   O22       1.0  0.00547  0.98770  0.14807  1.0000
  O   O23       1.0  0.49453  0.01232  0.64807  1.0000
  O   O24       1.0  0.99462  0.48766  0.35191  1.0000
