data_image0
_chemical_formula_structural       Li4H28C56O16
_chemical_formula_sum              "Li4 H28 C56 O16"
_cell_length_a       3.57463
_cell_length_b       15.7392
_cell_length_c       18.0623
_cell_angle_alpha    89.9992
_cell_angle_beta     90.0001
_cell_angle_gamma    89.9999

_space_group_name_H-M_alt    "P 1"
_space_group_IT_number       1

loop_
  _space_group_symop_operation_xyz
  'x, y, z'

loop_
  _atom_site_type_symbol
  _atom_site_label
  _atom_site_symmetry_multiplicity
  _atom_site_fract_x
  _atom_site_fract_y
  _atom_site_fract_z
  _atom_site_occupancy
  Li  Li1       1.0  0.02977  0.30003  0.53458  1.0000
  Li  Li2       1.0  0.47023  0.69997  0.03458  1.0000
  Li  Li3       1.0  0.52977  0.19997  0.46542  1.0000
  Li  Li4       1.0  0.97023  0.80003  0.96542  1.0000
  H   H1        1.0  0.23167  0.48243  0.17815  1.0000
  H   H2        1.0  0.26828  0.51757  0.67815  1.0000
  H   H3        1.0  0.73171  0.01757  0.82185  1.0000
  H   H4        1.0  0.76827  0.98243  0.32185  1.0000
  H   H5        1.0  0.64873  0.66946  0.30098  1.0000
  H   H6        1.0  0.85129  0.33053  0.80098  1.0000
  H   H7        1.0  0.14870  0.83053  0.69902  1.0000
  H   H8        1.0  0.35129  0.16947  0.19902  1.0000
  H   H9        1.0  0.80634  0.19738  0.30735  1.0000
  H   H10       1.0  0.69364  0.80262  0.80735  1.0000
  H   H11       1.0  0.30634  0.30262  0.69265  1.0000
  H   H12       1.0  0.19367  0.69739  0.19265  1.0000
  H   H13       1.0  0.85751  0.74543  0.41561  1.0000
  H   H14       1.0  0.64250  0.25457  0.91562  1.0000
  H   H15       1.0  0.35747  0.75457  0.58438  1.0000
  H   H16       1.0  0.14252  0.24543  0.08439  1.0000
  H   H17       1.0  0.83537  0.27409  0.18734  1.0000
  H   H18       1.0  0.66456  0.72591  0.68733  1.0000
  H   H19       1.0  0.33543  0.22591  0.81267  1.0000
  H   H20       1.0  0.16459  0.77409  0.31267  1.0000
  H   H21       1.0  0.54303  0.52775  0.54592  1.0000
  H   H22       1.0  0.95698  0.47225  0.04592  1.0000
  H   H23       1.0  0.04304  0.97226  0.45408  1.0000
  H   H24       1.0  0.45699  0.02775  0.95408  1.0000
  H   H25       1.0  0.82243  0.67178  0.53748  1.0000
  H   H26       1.0  0.67758  0.32821  0.03749  1.0000
  H   H27       1.0  0.32241  0.82821  0.46251  1.0000
  H   H28       1.0  0.17760  0.17179  0.96252  1.0000
  C   C1        1.0  0.47201  0.55797  0.35969  1.0000
  C   C2        1.0  0.02801  0.44203  0.85969  1.0000
  C   C3        1.0  0.97200  0.94202  0.64031  1.0000
  C   C4        1.0  0.52801  0.05798  0.14031  1.0000
  C   C5        1.0  0.20216  0.42833  0.29922  1.0000
  C   C6        1.0  0.29783  0.57166  0.79921  1.0000
  C   C7        1.0  0.70217  0.07166  0.70079  1.0000
  C   C8        1.0  0.79782  0.92834  0.20079  1.0000
  C   C9        1.0  0.43778  0.51790  0.42915  1.0000
  C   C10       1.0  0.06221  0.48210  0.92916  1.0000
  C   C11       1.0  0.93777  0.98210  0.57084  1.0000
  C   C12       1.0  0.56225  0.01791  0.07084  1.0000
  C   C13       1.0  0.16951  0.38632  0.36965  1.0000
  C   C14       1.0  0.33050  0.61367  0.86964  1.0000
  C   C15       1.0  0.66950  0.11367  0.63036  1.0000
  C   C16       1.0  0.83049  0.88633  0.13036  1.0000
  C   C17       1.0  0.26719  0.43258  0.43672  1.0000
  C   C18       1.0  0.23281  0.56742  0.93672  1.0000
  C   C19       1.0  0.76721  0.06742  0.56327  1.0000
  C   C20       1.0  0.73282  0.93259  0.06328  1.0000
  C   C21       1.0  0.35089  0.51369  0.29236  1.0000
  C   C22       1.0  0.14911  0.48630  0.79235  1.0000
  C   C23       1.0  0.85089  0.98630  0.70764  1.0000
  C   C24       1.0  0.64911  0.01369  0.20765  1.0000
  C   C25       1.0  0.03386  0.30091  0.37260  1.0000
  C   C26       1.0  0.46614  0.69909  0.87260  1.0000
  C   C27       1.0  0.53387  0.19909  0.62740  1.0000
  C   C28       1.0  0.96615  0.80091  0.12740  1.0000
  C   C29       1.0  0.62298  0.63998  0.35526  1.0000
  C   C30       1.0  0.87704  0.36002  0.85526  1.0000
  C   C31       1.0  0.12295  0.86001  0.64474  1.0000
  C   C32       1.0  0.37705  0.13999  0.14474  1.0000
  C   C33       1.0  0.91424  0.26229  0.30464  1.0000
  C   C34       1.0  0.58574  0.73771  0.80464  1.0000
  C   C35       1.0  0.41425  0.23771  0.69536  1.0000
  C   C36       1.0  0.08576  0.76229  0.19536  1.0000
  C   C37       1.0  0.74089  0.68157  0.41903  1.0000
  C   C38       1.0  0.75915  0.31842  0.91903  1.0000
  C   C39       1.0  0.24084  0.81842  0.58096  1.0000
  C   C40       1.0  0.25917  0.18158  0.08097  1.0000
  C   C41       1.0  0.93380  0.30391  0.23813  1.0000
  C   C42       1.0  0.56616  0.69609  0.73813  1.0000
  C   C43       1.0  0.43383  0.19609  0.76187  1.0000
  C   C44       1.0  0.06618  0.80391  0.26187  1.0000
  C   C45       1.0  0.56448  0.55978  0.49282  1.0000
  C   C46       1.0  0.93553  0.44022  0.99282  1.0000
  C   C47       1.0  0.06447  0.94022  0.50718  1.0000
  C   C48       1.0  0.43555  0.05979  0.00718  1.0000
  C   C49       1.0  0.08649  0.38673  0.23378  1.0000
  C   C50       1.0  0.41349  0.61328  0.73378  1.0000
  C   C51       1.0  0.58651  0.11328  0.76622  1.0000
  C   C52       1.0  0.91350  0.88672  0.26623  1.0000
  C   C53       1.0  0.71708  0.64076  0.48775  1.0000
  C   C54       1.0  0.78291  0.35924  0.98776  1.0000
  C   C55       1.0  0.21707  0.85924  0.51225  1.0000
  C   C56       1.0  0.28294  0.14077  0.01225  1.0000
  O   O1        1.0  0.20886  0.40483  0.50104  1.0000
  O   O2        1.0  0.29113  0.59517  0.00104  1.0000
  O   O3        1.0  0.70886  0.09517  0.49896  1.0000
  O   O4        1.0  0.79114  0.90483  0.99896  1.0000
  O   O5        1.0  0.01407  0.25512  0.43350  1.0000
  O   O6        1.0  0.48596  0.74488  0.93350  1.0000
  O   O7        1.0  0.51406  0.24488  0.56650  1.0000
  O   O8        1.0  0.98596  0.75512  0.06650  1.0000
  O   O9        1.0  0.37908  0.54989  0.22962  1.0000
  O   O10       1.0  0.12089  0.45010  0.72962  1.0000
  O   O11       1.0  0.87910  0.95010  0.77038  1.0000
  O   O12       1.0  0.62088  0.04990  0.27038  1.0000
  O   O13       1.0  0.11651  0.42324  0.16717  1.0000
  O   O14       1.0  0.38344  0.57677  0.66717  1.0000
  O   O15       1.0  0.61655  0.07676  0.83283  1.0000
  O   O16       1.0  0.88344  0.92323  0.33283  1.0000
