data_image0
_chemical_formula_structural       Cd2H16C24N20
_chemical_formula_sum              "Cd2 H16 C24 N20"
_cell_length_a       6.92078
_cell_length_b       10.1264
_cell_length_c       10.1264
_cell_angle_alpha    70.0983
_cell_angle_beta     81.6403
_cell_angle_gamma    81.6403

_space_group_name_H-M_alt    "P 1"
_space_group_IT_number       1

loop_
  _space_group_symop_operation_xyz
  'x, y, z'

loop_
  _atom_site_type_symbol
  _atom_site_label
  _atom_site_symmetry_multiplicity
  _atom_site_fract_x
  _atom_site_fract_y
  _atom_site_fract_z
  _atom_site_occupancy
  Cd  Cd1       1.0  0.25000  0.38124  0.61876  1.0000
  Cd  Cd2       1.0  0.75000  0.61876  0.38124  1.0000
  H   H1        1.0  0.82349  0.95724  0.92182  1.0000
  H   H2        1.0  0.67651  0.07818  0.04276  1.0000
  H   H3        1.0  0.17651  0.04276  0.07818  1.0000
  H   H4        1.0  0.32349  0.92182  0.95723  1.0000
  H   H5        1.0  0.96149  0.78337  0.79810  1.0000
  H   H6        1.0  0.53851  0.20190  0.21663  1.0000
  H   H7        1.0  0.03851  0.21663  0.20190  1.0000
  H   H8        1.0  0.46149  0.79810  0.78337  1.0000
  H   H9        1.0  0.31683  0.09960  0.51217  1.0000
  H   H10       1.0  0.18318  0.48784  0.90040  1.0000
  H   H11       1.0  0.68318  0.90040  0.48783  1.0000
  H   H12       1.0  0.81682  0.51217  0.09960  1.0000
  H   H13       1.0  0.95070  0.19699  0.83536  1.0000
  H   H14       1.0  0.54930  0.16464  0.80301  1.0000
  H   H15       1.0  0.04930  0.80301  0.16464  1.0000
  H   H16       1.0  0.45070  0.83537  0.19699  1.0000
  C   C1        1.0  0.93347  0.98551  0.83130  1.0000
  C   C2        1.0  0.56652  0.16869  0.01450  1.0000
  C   C3        1.0  0.06653  0.01450  0.16869  1.0000
  C   C4        1.0  0.43347  0.83131  0.98550  1.0000
  C   C5        1.0  0.00793  0.88903  0.76220  1.0000
  C   C6        1.0  0.49207  0.23780  0.11097  1.0000
  C   C7        1.0  0.99207  0.11097  0.23780  1.0000
  C   C8        1.0  0.50793  0.76220  0.88903  1.0000
  C   C9        1.0  0.14886  0.92727  0.64516  1.0000
  C   C10       1.0  0.35114  0.35484  0.07273  1.0000
  C   C11       1.0  0.85114  0.07273  0.35484  1.0000
  C   C12       1.0  0.64886  0.64516  0.92727  1.0000
  C   C13       1.0  0.20791  0.06364  0.60213  1.0000
  C   C14       1.0  0.29209  0.39787  0.93636  1.0000
  C   C15       1.0  0.79209  0.93636  0.39787  1.0000
  C   C16       1.0  0.70791  0.60213  0.06364  1.0000
  C   C17       1.0  0.00308  0.11774  0.78401  1.0000
  C   C18       1.0  0.49692  0.21600  0.88226  1.0000
  C   C19       1.0  0.99692  0.88226  0.21600  1.0000
  C   C20       1.0  0.50308  0.78401  0.11773  1.0000
  C   C21       1.0  0.23734  0.82076  0.58079  1.0000
  C   C22       1.0  0.26266  0.41921  0.17924  1.0000
  C   C23       1.0  0.76267  0.17924  0.41921  1.0000
  C   C24       1.0  0.73733  0.58079  0.82076  1.0000
  N   N1        1.0  0.13809  0.15543  0.67162  1.0000
  N   N2        1.0  0.36191  0.32838  0.84457  1.0000
  N   N3        1.0  0.86191  0.84457  0.32837  1.0000
  N   N4        1.0  0.63809  0.67162  0.15543  1.0000
  N   N5        1.0  0.37046  0.83767  0.46627  1.0000
  N   N6        1.0  0.12953  0.53372  0.16233  1.0000
  N   N7        1.0  0.62954  0.16233  0.53373  1.0000
  N   N8        1.0  0.87046  0.46628  0.83767  1.0000
  N   N9        1.0  0.41665  0.70807  0.45693  1.0000
  N   N10       1.0  0.08335  0.54307  0.29193  1.0000
  N   N11       1.0  0.58335  0.29193  0.54307  1.0000
  N   N12       1.0  0.91665  0.45693  0.70807  1.0000
  N   N13       1.0  0.31390  0.61727  0.56191  1.0000
  N   N14       1.0  0.18610  0.43809  0.38273  1.0000
  N   N15       1.0  0.68610  0.38273  0.43809  1.0000
  N   N16       1.0  0.81390  0.56191  0.61727  1.0000
  N   N17       1.0  0.20086  0.68445  0.64104  1.0000
  N   N18       1.0  0.29914  0.35895  0.31556  1.0000
  N   N19       1.0  0.79914  0.31555  0.35896  1.0000
  N   N20       1.0  0.70086  0.64104  0.68445  1.0000
