data_image0
_chemical_formula_structural       Cu3H4C10O10
_chemical_formula_sum              "Cu3 H4 C10 O10"
_cell_length_a       5.03034
_cell_length_b       5.86271
_cell_length_c       9.69884
_cell_angle_alpha    98.3683
_cell_angle_beta     91.2849
_cell_angle_gamma    95.404

_space_group_name_H-M_alt    "P 1"
_space_group_IT_number       1

loop_
  _space_group_symop_operation_xyz
  'x, y, z'

loop_
  _atom_site_type_symbol
  _atom_site_label
  _atom_site_symmetry_multiplicity
  _atom_site_fract_x
  _atom_site_fract_y
  _atom_site_fract_z
  _atom_site_occupancy
  Cu  Cu1       1.0  1.00000  0.50000  0.00000  1.0000
  Cu  Cu2       1.0  0.18570  0.04113  0.12543  1.0000
  Cu  Cu3       1.0  0.81430  0.95887  0.87457  1.0000
  H   H1        1.0  0.22178  0.83018  0.54848  1.0000
  H   H2        1.0  0.77822  0.16982  0.45152  1.0000
  H   H3        1.0  0.71679  0.79138  0.09362  1.0000
  H   H4        1.0  0.28321  0.20861  0.90638  1.0000
  C   C1        1.0  0.35299  0.74665  0.27728  1.0000
  C   C2        1.0  0.64701  0.25336  0.72272  1.0000
  C   C3        1.0  0.67623  0.35647  0.22040  1.0000
  C   C4        1.0  0.32376  0.64353  0.77959  1.0000
  C   C5        1.0  0.42590  0.62002  0.39283  1.0000
  C   C6        1.0  0.57410  0.37997  0.60717  1.0000
  C   C7        1.0  0.58154  0.43225  0.36412  1.0000
  C   C8        1.0  0.41845  0.56775  0.63588  1.0000
  C   C9        1.0  0.34437  0.68588  0.52848  1.0000
  C   C10       1.0  0.65563  0.31412  0.47152  1.0000
  O   O1        1.0  0.21514  0.92084  0.30349  1.0000
  O   O2        1.0  0.78486  0.07916  0.69652  1.0000
  O   O3        1.0  0.43214  0.67862  0.15611  1.0000
  O   O4        1.0  0.56787  0.32139  0.84389  1.0000
  O   O5        1.0  0.90687  0.44625  0.19255  1.0000
  O   O6        1.0  0.09313  0.55375  0.80745  1.0000
  O   O7        1.0  0.54799  0.19358  0.13763  1.0000
  O   O8        1.0  0.45201  0.80642  0.86236  1.0000
  O   O9        1.0  0.88521  0.81286  0.04185  1.0000
  O   O10       1.0  0.11479  0.18714  0.95815  1.0000
