data_image0
_chemical_formula_structural       Zn4H24C36N20Cl4
_chemical_formula_sum              "Zn4 H24 C36 N20 Cl4"
_cell_length_a       8.91518
_cell_length_b       11.1814
_cell_length_c       11.3191
_cell_angle_alpha    95.1068
_cell_angle_beta     108.195
_cell_angle_gamma    92.0346

_space_group_name_H-M_alt    "P 1"
_space_group_IT_number       1

loop_
  _space_group_symop_operation_xyz
  'x, y, z'

loop_
  _atom_site_type_symbol
  _atom_site_label
  _atom_site_symmetry_multiplicity
  _atom_site_fract_x
  _atom_site_fract_y
  _atom_site_fract_z
  _atom_site_occupancy
  Zn  Zn1       1.0  0.31037  0.80540  0.14859  1.0000
  Zn  Zn2       1.0  0.68963  0.19461  0.85141  1.0000
  Zn  Zn3       1.0  0.32992  0.31072  0.34345  1.0000
  Zn  Zn4       1.0  0.67008  0.68928  0.65655  1.0000
  H   H1        1.0  0.06475  0.87721  0.89631  1.0000
  H   H2        1.0  0.93525  0.12279  0.10369  1.0000
  H   H3        1.0  0.00568  0.83355  0.66802  1.0000
  H   H4        1.0  0.99432  0.16645  0.33198  1.0000
  H   H5        1.0  0.14108  0.95818  0.55382  1.0000
  H   H6        1.0  0.85893  0.04182  0.44618  1.0000
  H   H7        1.0  0.39717  0.16887  0.90207  1.0000
  H   H8        1.0  0.60283  0.83113  0.09793  1.0000
  H   H9        1.0  0.19540  0.82101  0.37316  1.0000
  H   H10       1.0  0.80460  0.17899  0.62684  1.0000
  H   H11       1.0  0.97836  0.72125  0.43299  1.0000
  H   H12       1.0  0.02164  0.27875  0.56701  1.0000
  H   H13       1.0  0.79901  0.54797  0.05478  1.0000
  H   H14       1.0  0.20099  0.45203  0.94522  1.0000
  H   H15       1.0  0.02200  0.65569  0.00927  1.0000
  H   H16       1.0  0.97799  0.34431  0.99073  1.0000
  H   H17       1.0  0.56227  0.57704  0.10183  1.0000
  H   H18       1.0  0.43773  0.42296  0.89817  1.0000
  H   H19       1.0  0.35926  0.45235  0.15228  1.0000
  H   H20       1.0  0.64074  0.54765  0.84771  1.0000
  H   H21       1.0  0.88590  0.52380  0.46531  1.0000
  H   H22       1.0  0.11410  0.47619  0.53469  1.0000
  H   H23       1.0  0.67143  0.39778  0.49890  1.0000
  H   H24       1.0  0.32856  0.60222  0.50110  1.0000
  C   C1        1.0  0.23584  0.02570  0.91322  1.0000
  C   C2        1.0  0.76416  0.97430  0.08678  1.0000
  C   C3        1.0  0.12593  0.93098  0.84757  1.0000
  C   C4        1.0  0.87407  0.06901  0.15243  1.0000
  C   C5        1.0  0.09241  0.90645  0.71853  1.0000
  C   C6        1.0  0.90759  0.09354  0.28147  1.0000
  C   C7        1.0  0.16821  0.97555  0.65488  1.0000
  C   C8        1.0  0.83179  0.02444  0.34512  1.0000
  C   C9        1.0  0.28016  0.06965  0.72034  1.0000
  C   C10       1.0  0.71984  0.93035  0.27966  1.0000
  C   C11       1.0  0.31333  0.09463  0.84952  1.0000
  C   C12       1.0  0.68668  0.90537  0.15048  1.0000
  C   C13       1.0  0.26868  0.05918  0.04726  1.0000
  C   C14       1.0  0.73132  0.94082  0.95274  1.0000
  C   C15       1.0  0.35364  0.14487  0.65172  1.0000
  C   C16       1.0  0.64636  0.85513  0.34828  1.0000
  C   C17       1.0  0.10480  0.75973  0.30574  1.0000
  C   C18       1.0  0.89520  0.24027  0.69426  1.0000
  C   C19       1.0  0.98478  0.70332  0.33852  1.0000
  C   C20       1.0  0.01522  0.29668  0.66148  1.0000
  C   C21       1.0  0.87104  0.62534  0.24803  1.0000
  C   C22       1.0  0.12896  0.37466  0.75197  1.0000
  C   C23       1.0  0.88213  0.61024  0.12691  1.0000
  C   C24       1.0  0.11787  0.38976  0.87309  1.0000
  C   C25       1.0  0.00694  0.66823  0.10157  1.0000
  C   C26       1.0  0.99306  0.33177  0.89842  1.0000
  C   C27       1.0  0.74507  0.55736  0.27754  1.0000
  C   C28       1.0  0.25493  0.44264  0.72246  1.0000
  C   C29       1.0  0.59371  0.53697  0.18983  1.0000
  C   C30       1.0  0.40629  0.46303  0.81017  1.0000
  C   C31       1.0  0.47896  0.46843  0.21750  1.0000
  C   C32       1.0  0.52104  0.53157  0.78250  1.0000
  C   C33       1.0  0.77263  0.50837  0.39161  1.0000
  C   C34       1.0  0.22737  0.49162  0.60838  1.0000
  C   C35       1.0  0.65301  0.43839  0.41176  1.0000
  C   C36       1.0  0.34699  0.56161  0.58824  1.0000
  N   N1        1.0  0.28929  0.98319  0.13740  1.0000
  N   N2        1.0  0.71071  0.01681  0.86260  1.0000
  N   N3        1.0  0.31765  0.05111  0.24679  1.0000
  N   N4        1.0  0.68236  0.94889  0.75321  1.0000
  N   N5        1.0  0.31359  0.16371  0.22142  1.0000
  N   N6        1.0  0.68641  0.83630  0.77858  1.0000
  N   N7        1.0  0.28373  0.17332  0.09902  1.0000
  N   N8        1.0  0.71628  0.82668  0.90098  1.0000
  N   N9        1.0  0.50181  0.20022  0.69373  1.0000
  N   N10       1.0  0.49819  0.79978  0.30627  1.0000
  N   N11       1.0  0.51849  0.26307  0.60275  1.0000
  N   N12       1.0  0.48151  0.73693  0.39725  1.0000
  N   N13       1.0  0.38411  0.24524  0.50998  1.0000
  N   N14       1.0  0.61589  0.75476  0.49002  1.0000
  N   N15       1.0  0.27859  0.17262  0.53609  1.0000
  N   N16       1.0  0.72141  0.82738  0.46391  1.0000
  N   N17       1.0  0.11776  0.74080  0.18997  1.0000
  N   N18       1.0  0.88224  0.25920  0.81003  1.0000
  N   N19       1.0  0.50832  0.41802  0.32561  1.0000
  N   N20       1.0  0.49168  0.58198  0.67438  1.0000
  Cl  Cl1       1.0  0.32669  0.69713  0.98027  1.0000
  Cl  Cl2       1.0  0.67331  0.30288  0.01973  1.0000
  Cl  Cl3       1.0  0.10553  0.39996  0.28373  1.0000
  Cl  Cl4       1.0  0.89447  0.60004  0.71628  1.0000
