data_image0
_chemical_formula_structural       Zn8H24C32N32O8
_chemical_formula_sum              "Zn8 H24 C32 N32 O8"
_cell_length_a       8.06557
_cell_length_b       9.58633
_cell_length_c       16.0572
_cell_angle_alpha    89.9998
_cell_angle_beta     90.0003
_cell_angle_gamma    110.889

_space_group_name_H-M_alt    "P 1"
_space_group_IT_number       1

loop_
  _space_group_symop_operation_xyz
  'x, y, z'

loop_
  _atom_site_type_symbol
  _atom_site_label
  _atom_site_symmetry_multiplicity
  _atom_site_fract_x
  _atom_site_fract_y
  _atom_site_fract_z
  _atom_site_occupancy
  Zn  Zn1       1.0  0.71709  0.00852  0.80892  1.0000
  Zn  Zn2       1.0  0.78291  0.49148  0.30892  1.0000
  Zn  Zn3       1.0  0.28291  0.99148  0.19108  1.0000
  Zn  Zn4       1.0  0.21709  0.50852  0.69108  1.0000
  Zn  Zn5       1.0  0.79865  0.25702  0.64008  1.0000
  Zn  Zn6       1.0  0.70135  0.24298  0.14008  1.0000
  Zn  Zn7       1.0  0.20135  0.74298  0.35992  1.0000
  Zn  Zn8       1.0  0.29865  0.75702  0.85992  1.0000
  H   H1        1.0  0.61904  0.48913  0.08270  1.0000
  H   H2        1.0  0.88096  0.01087  0.58270  1.0000
  H   H3        1.0  0.38096  0.51087  0.91730  1.0000
  H   H4        1.0  0.11904  0.98913  0.41730  1.0000
  H   H5        1.0  0.65963  0.75608  0.09818  1.0000
  H   H6        1.0  0.84037  0.74392  0.59818  1.0000
  H   H7        1.0  0.34037  0.24392  0.90182  1.0000
  H   H8        1.0  0.15963  0.25608  0.40182  1.0000
  H   H9        1.0  0.83052  0.94114  0.99332  1.0000
  H   H10       1.0  0.66948  0.55886  0.49332  1.0000
  H   H11       1.0  0.16948  0.05886  0.00667  1.0000
  H   H12       1.0  0.33052  0.44114  0.50668  1.0000
  H   H13       1.0  0.91592  0.58965  0.85316  1.0000
  H   H14       1.0  0.58408  0.91035  0.35316  1.0000
  H   H15       1.0  0.08408  0.41035  0.14684  1.0000
  H   H16       1.0  0.41592  0.08965  0.64684  1.0000
  H   H17       1.0  0.56836  0.73182  0.79447  1.0000
  H   H18       1.0  0.93164  0.76818  0.29447  1.0000
  H   H19       1.0  0.43164  0.26818  0.20553  1.0000
  H   H20       1.0  0.06836  0.23182  0.70553  1.0000
  H   H21       1.0  0.59041  0.98549  0.66866  1.0000
  H   H22       1.0  0.90959  0.51451  0.16866  1.0000
  H   H23       1.0  0.40959  0.01451  0.33134  1.0000
  H   H24       1.0  0.09041  0.48549  0.83134  1.0000
  C   C1        1.0  0.77055  0.52181  0.96824  1.0000
  C   C2        1.0  0.72946  0.97819  0.46824  1.0000
  C   C3        1.0  0.22945  0.47820  0.03176  1.0000
  C   C4        1.0  0.27055  0.02180  0.53176  1.0000
  C   C5        1.0  0.69736  0.56963  0.03707  1.0000
  C   C6        1.0  0.80263  0.93037  0.53707  1.0000
  C   C7        1.0  0.30264  0.43038  0.96293  1.0000
  C   C8        1.0  0.19737  0.06963  0.46293  1.0000
  C   C9        1.0  0.71981  0.72008  0.04556  1.0000
  C   C10       1.0  0.78019  0.77992  0.54556  1.0000
  C   C11       1.0  0.28019  0.27992  0.95444  1.0000
  C   C12       1.0  0.21981  0.22008  0.45444  1.0000
  C   C13       1.0  0.81686  0.82445  0.98687  1.0000
  C   C14       1.0  0.68314  0.67555  0.48686  1.0000
  C   C15       1.0  0.18314  0.17555  0.01313  1.0000
  C   C16       1.0  0.31686  0.32445  0.51314  1.0000
  C   C17       1.0  0.89346  0.77778  0.91883  1.0000
  C   C18       1.0  0.60654  0.72222  0.41883  1.0000
  C   C19       1.0  0.10654  0.22222  0.08117  1.0000
  C   C20       1.0  0.39346  0.27778  0.58117  1.0000
  C   C21       1.0  0.86702  0.62661  0.90899  1.0000
  C   C22       1.0  0.63298  0.87339  0.40898  1.0000
  C   C23       1.0  0.13298  0.37339  0.09101  1.0000
  C   C24       1.0  0.36702  0.12660  0.59102  1.0000
  C   C25       1.0  0.74381  0.36448  0.95454  1.0000
  C   C26       1.0  0.75619  0.13552  0.45454  1.0000
  C   C27       1.0  0.25619  0.63552  0.04545  1.0000
  C   C28       1.0  0.24381  0.86448  0.54546  1.0000
  C   C29       1.0  0.00345  0.88601  0.85821  1.0000
  C   C30       1.0  0.49655  0.61399  0.35821  1.0000
  C   C31       1.0  0.99655  0.11399  0.14178  1.0000
  C   C32       1.0  0.50345  0.38601  0.64179  1.0000
  N   N1        1.0  0.75056  0.30569  0.87922  1.0000
  N   N2        1.0  0.74944  0.19431  0.37922  1.0000
  N   N3        1.0  0.24944  0.69431  0.12078  1.0000
  N   N4        1.0  0.25056  0.80569  0.62078  1.0000
  N   N5        1.0  0.71704  0.16067  0.89467  1.0000
  N   N6        1.0  0.78296  0.33933  0.39467  1.0000
  N   N7        1.0  0.28296  0.83933  0.10533  1.0000
  N   N8        1.0  0.21704  0.66067  0.60533  1.0000
  N   N9        1.0  0.69277  0.12905  0.97462  1.0000
  N   N10       1.0  0.80722  0.37095  0.47462  1.0000
  N   N11       1.0  0.30723  0.87095  0.02538  1.0000
  N   N12       1.0  0.19278  0.62905  0.52538  1.0000
  N   N13       1.0  0.70898  0.25633  0.01368  1.0000
  N   N14       1.0  0.79102  0.24367  0.51368  1.0000
  N   N15       1.0  0.29102  0.74368  0.98632  1.0000
  N   N16       1.0  0.20898  0.75632  0.48632  1.0000
  N   N17       1.0  0.95980  0.99180  0.81918  1.0000
  N   N18       1.0  0.54020  0.50821  0.31918  1.0000
  N   N19       1.0  0.04020  0.00821  0.18082  1.0000
  N   N20       1.0  0.45979  0.49179  0.68083  1.0000
  N   N21       1.0  0.10078  0.07018  0.77135  1.0000
  N   N22       1.0  0.39922  0.42982  0.27135  1.0000
  N   N23       1.0  0.89922  0.92982  0.22865  1.0000
  N   N24       1.0  0.60078  0.57018  0.72865  1.0000
  N   N25       1.0  0.22604  0.01508  0.78052  1.0000
  N   N26       1.0  0.27396  0.48492  0.28052  1.0000
  N   N27       1.0  0.77396  0.98492  0.21948  1.0000
  N   N28       1.0  0.72604  0.51508  0.71948  1.0000
  N   N29       1.0  0.16866  0.89879  0.83421  1.0000
  N   N30       1.0  0.33134  0.60121  0.33421  1.0000
  N   N31       1.0  0.83134  0.10121  0.16579  1.0000
  N   N32       1.0  0.66866  0.39879  0.66579  1.0000
  O   O1        1.0  0.68355  0.06623  0.69612  1.0000
  O   O2        1.0  0.81645  0.43377  0.19612  1.0000
  O   O3        1.0  0.31645  0.93377  0.30389  1.0000
  O   O4        1.0  0.18354  0.56623  0.80389  1.0000
  O   O5        1.0  0.54142  0.81170  0.82359  1.0000
  O   O6        1.0  0.95858  0.68830  0.32359  1.0000
  O   O7        1.0  0.45858  0.18830  0.17641  1.0000
  O   O8        1.0  0.04141  0.31170  0.67641  1.0000
