data_image0
_chemical_formula_structural       K4H20C16N16O16
_chemical_formula_sum              "K4 H20 C16 N16 O16"
_cell_length_a       5.05111
_cell_length_b       11.6272
_cell_length_c       13.3746
_cell_angle_alpha    90
_cell_angle_beta     90.0001
_cell_angle_gamma    99.9012

_space_group_name_H-M_alt    "P 1"
_space_group_IT_number       1

loop_
  _space_group_symop_operation_xyz
  'x, y, z'

loop_
  _atom_site_type_symbol
  _atom_site_label
  _atom_site_symmetry_multiplicity
  _atom_site_fract_x
  _atom_site_fract_y
  _atom_site_fract_z
  _atom_site_occupancy
  K   K1        1.0  0.92929  0.36725  0.13007  1.0000
  K   K2        1.0  0.57071  0.13276  0.63007  1.0000
  K   K3        1.0  0.07070  0.63275  0.86993  1.0000
  K   K4        1.0  0.42929  0.86725  0.36993  1.0000
  H   H1        1.0  0.16406  0.31052  0.73892  1.0000
  H   H2        1.0  0.33594  0.18948  0.23892  1.0000
  H   H3        1.0  0.83594  0.68948  0.26108  1.0000
  H   H4        1.0  0.66406  0.81052  0.76108  1.0000
  H   H5        1.0  0.20552  0.49165  0.64396  1.0000
  H   H6        1.0  0.29448  0.00835  0.14396  1.0000
  H   H7        1.0  0.79448  0.50835  0.35604  1.0000
  H   H8        1.0  0.70552  0.99165  0.85604  1.0000
  H   H9        1.0  0.32110  0.39416  0.55698  1.0000
  H   H10       1.0  0.17890  0.10584  0.05698  1.0000
  H   H11       1.0  0.67891  0.60584  0.44302  1.0000
  H   H12       1.0  0.82110  0.89416  0.94302  1.0000
  H   H13       1.0  0.78520  0.47303  0.59144  1.0000
  H   H14       1.0  0.71480  0.02697  0.09144  1.0000
  H   H15       1.0  0.21480  0.52697  0.40856  1.0000
  H   H16       1.0  0.28520  0.97303  0.90856  1.0000
  H   H17       1.0  0.65380  0.59812  0.63186  1.0000
  H   H18       1.0  0.84620  0.90188  0.13186  1.0000
  H   H19       1.0  0.34620  0.40188  0.36814  1.0000
  H   H20       1.0  0.15380  0.09812  0.86814  1.0000
  C   C1        1.0  0.35658  0.43569  0.63032  1.0000
  C   C2        1.0  0.14342  0.06431  0.13032  1.0000
  C   C3        1.0  0.64342  0.56431  0.36968  1.0000
  C   C4        1.0  0.85658  0.93569  0.86968  1.0000
  C   C5        1.0  0.64404  0.50417  0.64361  1.0000
  C   C6        1.0  0.85596  0.99583  0.14361  1.0000
  C   C7        1.0  0.35596  0.49583  0.35639  1.0000
  C   C8        1.0  0.14404  0.00417  0.85638  1.0000
  C   C9        1.0  0.56403  0.33597  0.87515  1.0000
  C   C10       1.0  0.93597  0.16404  0.37515  1.0000
  C   C11       1.0  0.43597  0.66404  0.12485  1.0000
  C   C12       1.0  0.06402  0.83596  0.62485  1.0000
  C   C13       1.0  0.54605  0.39241  0.77699  1.0000
  C   C14       1.0  0.95395  0.10759  0.27699  1.0000
  C   C15       1.0  0.45395  0.60759  0.22301  1.0000
  C   C16       1.0  0.04605  0.89241  0.72301  1.0000
  N   N1        1.0  0.73323  0.25435  0.88382  1.0000
  N   N2        1.0  0.76677  0.24565  0.38382  1.0000
  N   N3        1.0  0.26677  0.74565  0.11618  1.0000
  N   N4        1.0  0.23323  0.75435  0.61618  1.0000
  N   N5        1.0  0.40416  0.36211  0.95304  1.0000
  N   N6        1.0  0.09584  0.13789  0.45304  1.0000
  N   N7        1.0  0.59584  0.63789  0.04696  1.0000
  N   N8        1.0  0.90416  0.86211  0.54696  1.0000
  N   N9        1.0  0.34676  0.34768  0.71019  1.0000
  N   N10       1.0  0.15324  0.15232  0.21019  1.0000
  N   N11       1.0  0.65324  0.65232  0.28981  1.0000
  N   N12       1.0  0.84676  0.84768  0.78981  1.0000
  N   N13       1.0  0.72249  0.47997  0.74713  1.0000
  N   N14       1.0  0.77751  0.02004  0.24713  1.0000
  N   N15       1.0  0.27751  0.52004  0.25287  1.0000
  N   N16       1.0  0.22249  0.97996  0.75287  1.0000
  O   O1        1.0  0.41438  0.32095  0.03977  1.0000
  O   O2        1.0  0.08562  0.17905  0.53977  1.0000
  O   O3        1.0  0.58562  0.67905  0.96023  1.0000
  O   O4        1.0  0.91439  0.82095  0.46023  1.0000
  O   O5        1.0  0.83417  0.22539  0.80174  1.0000
  O   O6        1.0  0.66582  0.27461  0.30174  1.0000
  O   O7        1.0  0.16583  0.77461  0.19826  1.0000
  O   O8        1.0  0.33417  0.72539  0.69826  1.0000
  O   O9        1.0  0.23920  0.43002  0.93222  1.0000
  O   O10       1.0  0.26079  0.06998  0.43222  1.0000
  O   O11       1.0  0.76079  0.56998  0.06778  1.0000
  O   O12       1.0  0.73921  0.93002  0.56778  1.0000
  O   O13       1.0  0.78575  0.20993  0.96520  1.0000
  O   O14       1.0  0.71424  0.29007  0.46520  1.0000
  O   O15       1.0  0.21424  0.79007  0.03480  1.0000
  O   O16       1.0  0.28576  0.70993  0.53480  1.0000
