data_image0
_chemical_formula_structural       K4H52C48S4N8O20
_chemical_formula_sum              "K4 H52 C48 S4 N8 O20"
_cell_length_a       7.18102
_cell_length_b       12.9031
_cell_length_c       15.8725
_cell_angle_alpha    109.675
_cell_angle_beta     89.9999
_cell_angle_gamma    90

_space_group_name_H-M_alt    "P 1"
_space_group_IT_number       1

loop_
  _space_group_symop_operation_xyz
  'x, y, z'

loop_
  _atom_site_type_symbol
  _atom_site_label
  _atom_site_symmetry_multiplicity
  _atom_site_fract_x
  _atom_site_fract_y
  _atom_site_fract_z
  _atom_site_occupancy
  K   K1        1.0  0.32014  0.41362  0.05542  1.0000
  K   K2        1.0  0.82014  0.08638  0.94458  1.0000
  K   K3        1.0  0.67987  0.58638  0.94457  1.0000
  K   K4        1.0  0.17986  0.91362  0.05542  1.0000
  H   H1        1.0  0.65972  0.76451  0.39874  1.0000
  H   H2        1.0  0.15972  0.73549  0.60126  1.0000
  H   H3        1.0  0.34028  0.23549  0.60126  1.0000
  H   H4        1.0  0.84028  0.26451  0.39874  1.0000
  H   H5        1.0  0.94583  0.76372  0.48666  1.0000
  H   H6        1.0  0.44583  0.73628  0.51334  1.0000
  H   H7        1.0  0.05417  0.23628  0.51334  1.0000
  H   H8        1.0  0.55417  0.26372  0.48666  1.0000
  H   H9        1.0  0.10379  0.58506  0.46838  1.0000
  H   H10       1.0  0.60378  0.91494  0.53162  1.0000
  H   H11       1.0  0.89622  0.41494  0.53162  1.0000
  H   H12       1.0  0.39622  0.08506  0.46838  1.0000
  H   H13       1.0  0.97063  0.41118  0.36636  1.0000
  H   H14       1.0  0.47063  0.08882  0.63364  1.0000
  H   H15       1.0  0.02937  0.58882  0.63364  1.0000
  H   H16       1.0  0.52937  0.91118  0.36636  1.0000
  H   H17       1.0  0.30445  0.45887  0.36847  1.0000
  H   H18       1.0  0.80445  0.04114  0.63153  1.0000
  H   H19       1.0  0.69555  0.54114  0.63153  1.0000
  H   H20       1.0  0.19555  0.95886  0.36847  1.0000
  H   H21       1.0  0.50336  0.44667  0.43053  1.0000
  H   H22       1.0  0.00336  0.05333  0.56947  1.0000
  H   H23       1.0  0.49664  0.55333  0.56946  1.0000
  H   H24       1.0  0.99664  0.94667  0.43053  1.0000
  H   H25       1.0  0.32417  0.34429  0.40573  1.0000
  H   H26       1.0  0.82418  0.15571  0.59427  1.0000
  H   H27       1.0  0.67582  0.65571  0.59427  1.0000
  H   H28       1.0  0.17583  0.84429  0.40573  1.0000
  H   H29       1.0  0.27362  0.70044  0.28392  1.0000
  H   H30       1.0  0.77362  0.79956  0.71608  1.0000
  H   H31       1.0  0.72638  0.29956  0.71608  1.0000
  H   H32       1.0  0.22638  0.20044  0.28392  1.0000
  H   H33       1.0  0.75760  0.38319  0.99797  1.0000
  H   H34       1.0  0.25759  0.11681  0.00203  1.0000
  H   H35       1.0  0.24241  0.61681  0.00203  1.0000
  H   H36       1.0  0.74241  0.88319  0.99797  1.0000
  H   H37       1.0  0.78045  0.48598  0.08348  1.0000
  H   H38       1.0  0.28045  0.01402  0.91652  1.0000
  H   H39       1.0  0.21955  0.51402  0.91652  1.0000
  H   H40       1.0  0.71955  0.98598  0.08348  1.0000
  H   H41       1.0  0.97691  0.30741  0.09897  1.0000
  H   H42       1.0  0.47691  0.19259  0.90103  1.0000
  H   H43       1.0  0.02309  0.69259  0.90103  1.0000
  H   H44       1.0  0.52309  0.80740  0.09897  1.0000
  H   H45       1.0  0.98217  0.42859  0.19616  1.0000
  H   H46       1.0  0.48217  0.07141  0.80384  1.0000
  H   H47       1.0  0.01783  0.57141  0.80384  1.0000
  H   H48       1.0  0.51783  0.92859  0.19616  1.0000
  H   H49       1.0  0.06325  0.30067  0.20135  1.0000
  H   H50       1.0  0.56325  0.19934  0.79865  1.0000
  H   H51       1.0  0.93675  0.69933  0.79865  1.0000
  H   H52       1.0  0.43675  0.80066  0.20135  1.0000
  C   C1        1.0  0.47566  0.59717  0.28585  1.0000
  C   C2        1.0  0.97567  0.90283  0.71416  1.0000
  C   C3        1.0  0.52434  0.40283  0.71415  1.0000
  C   C4        1.0  0.02434  0.09717  0.28584  1.0000
  C   C5        1.0  0.65020  0.58915  0.33493  1.0000
  C   C6        1.0  0.15020  0.91085  0.66507  1.0000
  C   C7        1.0  0.34980  0.41085  0.66507  1.0000
  C   C8        1.0  0.84980  0.08915  0.33493  1.0000
  C   C9        1.0  0.72820  0.68721  0.39285  1.0000
  C   C10       1.0  0.22820  0.81279  0.60715  1.0000
  C   C11       1.0  0.27180  0.31279  0.60716  1.0000
  C   C12       1.0  0.77180  0.18721  0.39285  1.0000
  C   C13       1.0  0.88952  0.68697  0.44112  1.0000
  C   C14       1.0  0.38952  0.81303  0.55888  1.0000
  C   C15       1.0  0.11048  0.31303  0.55888  1.0000
  C   C16       1.0  0.61048  0.18697  0.44112  1.0000
  C   C17       1.0  0.97740  0.58712  0.43092  1.0000
  C   C18       1.0  0.47740  0.91288  0.56908  1.0000
  C   C19       1.0  0.02260  0.41288  0.56908  1.0000
  C   C20       1.0  0.52260  0.08712  0.43092  1.0000
  C   C21       1.0  0.90233  0.48920  0.37354  1.0000
  C   C22       1.0  0.40233  0.01080  0.62646  1.0000
  C   C23       1.0  0.09767  0.51080  0.62647  1.0000
  C   C24       1.0  0.59768  0.98920  0.37354  1.0000
  C   C25       1.0  0.73826  0.48710  0.32473  1.0000
  C   C26       1.0  0.23826  0.01290  0.67527  1.0000
  C   C27       1.0  0.26174  0.51290  0.67527  1.0000
  C   C28       1.0  0.76174  0.98710  0.32473  1.0000
  C   C29       1.0  0.66352  0.37843  0.26781  1.0000
  C   C30       1.0  0.16352  0.12157  0.73219  1.0000
  C   C31       1.0  0.33648  0.62157  0.73219  1.0000
  C   C32       1.0  0.83648  0.87843  0.26781  1.0000
  C   C33       1.0  0.49849  0.33770  0.29353  1.0000
  C   C34       1.0  0.99849  0.16230  0.70647  1.0000
  C   C35       1.0  0.50150  0.66230  0.70647  1.0000
  C   C36       1.0  0.00151  0.83770  0.29353  1.0000
  C   C37       1.0  0.40315  0.39984  0.38001  1.0000
  C   C38       1.0  0.90315  0.10016  0.61999  1.0000
  C   C39       1.0  0.59685  0.60016  0.61999  1.0000
  C   C40       1.0  0.09685  0.89984  0.38001  1.0000
  C   C41       1.0  0.76586  0.31045  0.19356  1.0000
  C   C42       1.0  0.26587  0.18955  0.80644  1.0000
  C   C43       1.0  0.23414  0.68955  0.80644  1.0000
  C   C44       1.0  0.73414  0.81045  0.19356  1.0000
  C   C45       1.0  0.95775  0.33971  0.17175  1.0000
  C   C46       1.0  0.45775  0.16028  0.82825  1.0000
  C   C47       1.0  0.04225  0.66028  0.82825  1.0000
  C   C48       1.0  0.54225  0.83972  0.17175  1.0000
  S   S1        1.0  0.49204  0.17971  0.14525  1.0000
  S   S2        1.0  0.99204  0.32029  0.85475  1.0000
  S   S3        1.0  0.50796  0.82029  0.85475  1.0000
  S   S4        1.0  0.00796  0.67971  0.14525  1.0000
  N   N1        1.0  0.70477  0.21282  0.13835  1.0000
  N   N2        1.0  0.20477  0.28719  0.86165  1.0000
  N   N3        1.0  0.29523  0.78719  0.86165  1.0000
  N   N4        1.0  0.79523  0.71281  0.13835  1.0000
  N   N5        1.0  0.41740  0.24169  0.24622  1.0000
  N   N6        1.0  0.91740  0.25832  0.75378  1.0000
  N   N7        1.0  0.58260  0.75832  0.75378  1.0000
  N   N8        1.0  0.08260  0.74169  0.24622  1.0000
  O   O1        1.0  0.48058  0.06093  0.12486  1.0000
  O   O2        1.0  0.98058  0.43907  0.87514  1.0000
  O   O3        1.0  0.51941  0.93907  0.87514  1.0000
  O   O4        1.0  0.01942  0.56093  0.12486  1.0000
  O   O5        1.0  0.37945  0.21760  0.08349  1.0000
  O   O6        1.0  0.87945  0.28241  0.91651  1.0000
  O   O7        1.0  0.62055  0.78241  0.91651  1.0000
  O   O8        1.0  0.12055  0.71759  0.08349  1.0000
  O   O9        1.0  0.39448  0.69626  0.31824  1.0000
  O   O10       1.0  0.89448  0.80374  0.68176  1.0000
  O   O11       1.0  0.60552  0.30374  0.68176  1.0000
  O   O12       1.0  0.10552  0.19626  0.31824  1.0000
  O   O13       1.0  0.41083  0.52150  0.22267  1.0000
  O   O14       1.0  0.91084  0.97850  0.77733  1.0000
  O   O15       1.0  0.58917  0.47850  0.77733  1.0000
  O   O16       1.0  0.08916  0.02150  0.22267  1.0000
  O   O17       1.0  0.68603  0.44267  0.04179  1.0000
  O   O18       1.0  0.18603  0.05733  0.95821  1.0000
  O   O19       1.0  0.31397  0.55733  0.95821  1.0000
  O   O20       1.0  0.81397  0.94267  0.04179  1.0000
