data_image0
_chemical_formula_structural       Cu2H40C48N4O18
_chemical_formula_sum              "Cu2 H40 C48 N4 O18"
_cell_length_a       7.64087
_cell_length_b       12.2899
_cell_length_c       12.2898
_cell_angle_alpha    78.189
_cell_angle_beta     76.1382
_cell_angle_gamma    76.139

_space_group_name_H-M_alt    "P 1"
_space_group_IT_number       1

loop_
  _space_group_symop_operation_xyz
  'x, y, z'

loop_
  _atom_site_type_symbol
  _atom_site_label
  _atom_site_symmetry_multiplicity
  _atom_site_fract_x
  _atom_site_fract_y
  _atom_site_fract_z
  _atom_site_occupancy
  Cu  Cu1       1.0  0.31323  0.89755  0.66269  1.0000
  Cu  Cu2       1.0  0.81323  0.66269  0.89755  1.0000
  H   H1        1.0  0.89205  0.72575  0.47353  1.0000
  H   H2        1.0  0.39206  0.47352  0.72575  1.0000
  H   H3        1.0  0.91882  0.83370  0.61351  1.0000
  H   H4        1.0  0.41882  0.61350  0.83369  1.0000
  H   H5        1.0  0.24643  0.92411  0.21955  1.0000
  H   H6        1.0  0.74643  0.21954  0.92410  1.0000
  H   H7        1.0  0.24726  0.02828  0.37308  1.0000
  H   H8        1.0  0.74725  0.37308  0.02828  1.0000
  H   H9        1.0  0.21235  0.83978  0.09662  1.0000
  H   H10       1.0  0.71236  0.09662  0.83977  1.0000
  H   H11       1.0  0.20276  0.71460  0.96606  1.0000
  H   H12       1.0  0.70276  0.96606  0.71459  1.0000
  H   H13       1.0  0.95530  0.60936  0.37108  1.0000
  H   H14       1.0  0.45530  0.37107  0.60935  1.0000
  H   H15       1.0  0.95574  0.49408  0.22882  1.0000
  H   H16       1.0  0.45574  0.22881  0.49408  1.0000
  H   H17       1.0  0.56118  0.75112  0.36585  1.0000
  H   H18       1.0  0.06119  0.36585  0.75112  1.0000
  H   H19       1.0  0.61617  0.65749  0.19534  1.0000
  H   H20       1.0  0.11617  0.19534  0.65749  1.0000
  H   H21       1.0  0.29279  0.41407  0.39101  1.0000
  H   H22       1.0  0.79280  0.39100  0.41407  1.0000
  H   H23       1.0  0.26007  0.19167  0.80332  1.0000
  H   H24       1.0  0.76007  0.80332  0.19168  1.0000
  H   H25       1.0  0.53929  0.52330  0.12199  1.0000
  H   H26       1.0  0.03930  0.12198  0.52330  1.0000
  H   H27       1.0  0.20106  0.34536  0.92049  1.0000
  H   H28       1.0  0.70106  0.92049  0.34536  1.0000
  H   H29       1.0  0.88203  0.15052  0.19350  1.0000
  H   H30       1.0  0.38203  0.19350  0.15053  1.0000
  H   H31       1.0  0.23336  0.51219  0.55911  1.0000
  H   H32       1.0  0.73336  0.55910  0.51219  1.0000
  H   H33       1.0  0.03446  0.41306  0.08152  1.0000
  H   H34       1.0  0.53446  0.08152  0.41307  1.0000
  H   H35       1.0  0.93287  0.00080  0.07249  1.0000
  H   H36       1.0  0.43288  0.07249  0.00080  1.0000
  H   H37       1.0  0.50769  0.83451  0.82309  1.0000
  H   H38       1.0  0.00768  0.82309  0.83451  1.0000
  H   H39       1.0  0.58751  0.75234  0.72435  1.0000
  H   H40       1.0  0.08751  0.72435  0.75234  1.0000
  C   C1        1.0  0.97601  0.79009  0.44373  1.0000
  C   C2        1.0  0.47601  0.44373  0.79008  1.0000
  C   C3        1.0  0.07462  0.81019  0.33152  1.0000
  C   C4        1.0  0.57463  0.33151  0.81019  1.0000
  C   C5        1.0  0.98367  0.85080  0.52453  1.0000
  C   C6        1.0  0.48367  0.52453  0.85079  1.0000
  C   C7        1.0  0.16892  0.90063  0.30437  1.0000
  C   C8        1.0  0.66892  0.30437  0.90062  1.0000
  C   C9        1.0  0.17312  0.95995  0.38716  1.0000
  C   C10       1.0  0.67312  0.38716  0.95994  1.0000
  C   C11       1.0  0.08064  0.73838  0.24852  1.0000
  C   C12       1.0  0.58065  0.24852  0.73838  1.0000
  C   C13       1.0  0.15487  0.76424  0.13222  1.0000
  C   C14       1.0  0.65487  0.13222  0.76423  1.0000
  C   C15       1.0  0.15232  0.69580  0.05676  1.0000
  C   C16       1.0  0.65232  0.05677  0.69580  1.0000
  C   C17       1.0  0.01025  0.63830  0.28262  1.0000
  C   C18       1.0  0.51026  0.28261  0.63829  1.0000
  C   C19       1.0  0.00987  0.57156  0.20551  1.0000
  C   C20       1.0  0.50987  0.20551  0.57155  1.0000
  C   C21       1.0  0.50632  0.67585  0.37131  1.0000
  C   C22       1.0  0.00632  0.37131  0.67585  1.0000
  C   C23       1.0  0.53757  0.62345  0.27651  1.0000
  C   C24       1.0  0.03757  0.27651  0.62345  1.0000
  C   C25       1.0  0.39825  0.63610  0.47443  1.0000
  C   C26       1.0  0.89825  0.47442  0.63610  1.0000
  C   C27       1.0  0.46053  0.52850  0.28355  1.0000
  C   C28       1.0  0.96053  0.28355  0.52850  1.0000
  C   C29       1.0  0.35551  0.48603  0.38720  1.0000
  C   C30       1.0  0.85551  0.38720  0.48603  1.0000
  C   C31       1.0  0.34889  0.69909  0.57241  1.0000
  C   C32       1.0  0.84889  0.57241  0.69909  1.0000
  C   C33       1.0  0.17663  0.18355  0.88844  1.0000
  C   C34       1.0  0.67663  0.88844  0.18356  1.0000
  C   C35       1.0  0.14587  0.26849  0.95394  1.0000
  C   C36       1.0  0.64587  0.95394  0.26850  1.0000
  C   C37       1.0  0.03798  0.25727  0.06413  1.0000
  C   C38       1.0  0.53798  0.06413  0.25727  1.0000
  C   C39       1.0  0.96546  0.15856  0.10792  1.0000
  C   C40       1.0  0.46547  0.10792  0.15857  1.0000
  C   C41       1.0  0.32365  0.54058  0.48068  1.0000
  C   C42       1.0  0.82365  0.48068  0.54057  1.0000
  C   C43       1.0  0.99471  0.07527  0.04036  1.0000
  C   C44       1.0  0.49472  0.04037  0.07528  1.0000
  C   C45       1.0  0.12779  0.99825  0.85640  1.0000
  C   C46       1.0  0.62779  0.85640  0.99826  1.0000
  C   C47       1.0  0.09995  0.08660  0.92935  1.0000
  C   C48       1.0  0.59996  0.92936  0.08661  1.0000
  N   N1        1.0  0.08603  0.93216  0.49589  1.0000
  N   N2        1.0  0.58602  0.49588  0.93216  1.0000
  N   N3        1.0  0.07887  0.60078  0.09282  1.0000
  N   N4        1.0  0.57888  0.09282  0.60077  1.0000
  O   O1        1.0  0.23332  0.01459  0.75717  1.0000
  O   O2        1.0  0.73331  0.75717  0.01460  1.0000
  O   O3        1.0  0.10725  0.98362  0.57728  1.0000
  O   O4        1.0  0.60724  0.57728  0.98362  1.0000
  O   O5        1.0  0.07231  0.53904  0.01867  1.0000
  O   O6        1.0  0.57232  0.01867  0.53903  1.0000
  O   O7        1.0  0.40136  0.79526  0.55311  1.0000
  O   O8        1.0  0.90136  0.55311  0.79526  1.0000
  O   O9        1.0  0.47839  0.47830  0.19232  1.0000
  O   O10       1.0  0.97840  0.19232  0.47830  1.0000
  O   O11       1.0  0.99563  0.34116  0.12799  1.0000
  O   O12       1.0  0.49564  0.12799  0.34117  1.0000
  O   O13       1.0  0.25510  0.65925  0.66500  1.0000
  O   O14       1.0  0.75510  0.66500  0.65925  1.0000
  O   O15       1.0  0.47282  0.79921  0.76549  1.0000
  O   O16       1.0  0.97282  0.76549  0.79921  1.0000
  O   O17       1.0  0.04826  0.91524  0.89377  1.0000
  O   O18       1.0  0.54826  0.89378  0.91525  1.0000
