data_image0
_chemical_formula_structural       Cu2H16C24Br2N4
_chemical_formula_sum              "Cu2 H16 C24 Br2 N4"
_cell_length_a       3.84005
_cell_length_b       10.0333
_cell_length_c       13.732
_cell_angle_alpha    104.308
_cell_angle_beta     93.9174
_cell_angle_gamma    96.7225

_space_group_name_H-M_alt    "P 1"
_space_group_IT_number       1

loop_
  _space_group_symop_operation_xyz
  'x, y, z'

loop_
  _atom_site_type_symbol
  _atom_site_label
  _atom_site_symmetry_multiplicity
  _atom_site_fract_x
  _atom_site_fract_y
  _atom_site_fract_z
  _atom_site_occupancy
  Cu  Cu1       1.0  0.20923  0.12098  0.53406  1.0000
  Cu  Cu2       1.0  0.79079  0.87902  0.46594  1.0000
  H   H1        1.0  0.56904  0.87444  0.02346  1.0000
  H   H2        1.0  0.43093  0.12557  0.97654  1.0000
  H   H3        1.0  0.87743  0.98921  0.90506  1.0000
  H   H4        1.0  0.12256  0.01079  0.09494  1.0000
  H   H5        1.0  0.93388  0.84658  0.72954  1.0000
  H   H6        1.0  0.06613  0.15343  0.27046  1.0000
  H   H7        1.0  0.80869  0.61902  0.60259  1.0000
  H   H8        1.0  0.19135  0.38097  0.39742  1.0000
  H   H9        1.0  0.55140  0.36883  0.55637  1.0000
  H   H10       1.0  0.44864  0.63117  0.44364  1.0000
  H   H11       1.0  0.92435  0.07622  0.71035  1.0000
  H   H12       1.0  0.07564  0.92377  0.28965  1.0000
  H   H13       1.0  0.86337  0.21154  0.88694  1.0000
  H   H14       1.0  0.13662  0.78845  0.11306  1.0000
  H   H15       1.0  0.14090  0.46022  0.94478  1.0000
  H   H16       1.0  0.85908  0.53978  0.05522  1.0000
  C   C1        1.0  0.59388  0.81475  0.94653  1.0000
  C   C2        1.0  0.40608  0.18525  0.05347  1.0000
  C   C3        1.0  0.76694  0.87989  0.87999  1.0000
  C   C4        1.0  0.23303  0.12012  0.12000  1.0000
  C   C5        1.0  0.79713  0.80208  0.78362  1.0000
  C   C6        1.0  0.20285  0.19792  0.21638  1.0000
  C   C7        1.0  0.67223  0.57349  0.65631  1.0000
  C   C8        1.0  0.32780  0.42650  0.34369  1.0000
  C   C9        1.0  0.53065  0.43662  0.63072  1.0000
  C   C10       1.0  0.46940  0.56337  0.36928  1.0000
  C   C11       1.0  0.04115  0.18479  0.73822  1.0000
  C   C12       1.0  0.95884  0.81521  0.26178  1.0000
  C   C13       1.0  0.00886  0.26028  0.83668  1.0000
  C   C14       1.0  0.99114  0.73972  0.16332  1.0000
  C   C15       1.0  0.15630  0.39821  0.86861  1.0000
  C   C16       1.0  0.84368  0.60179  0.13139  1.0000
  C   C17       1.0  0.33051  0.45969  0.80058  1.0000
  C   C18       1.0  0.66948  0.54031  0.19941  1.0000
  C   C19       1.0  0.48218  0.60458  0.82793  1.0000
  C   C20       1.0  0.51780  0.39543  0.17207  1.0000
  C   C21       1.0  0.65177  0.66058  0.75487  1.0000
  C   C22       1.0  0.34823  0.33942  0.24513  1.0000
  C   C23       1.0  0.35452  0.37692  0.70147  1.0000
  C   C24       1.0  0.64549  0.62308  0.29853  1.0000
  Br  Br1       1.0  0.68460  0.11825  0.42192  1.0000
  Br  Br2       1.0  0.31543  0.88176  0.57808  1.0000
  N   N1        1.0  0.45603  0.68183  0.92264  1.0000
  N   N2        1.0  0.54394  0.31817  0.07735  1.0000
  N   N3        1.0  0.21094  0.23947  0.67188  1.0000
  N   N4        1.0  0.78907  0.76053  0.32812  1.0000
