data_image0
_chemical_formula_structural       Cu4H32C52S4N12
_chemical_formula_sum              "Cu4 H32 C52 S4 N12"
_cell_length_a       5.71125
_cell_length_b       11.0624
_cell_length_c       17.8655
_cell_angle_alpha    89.9993
_cell_angle_beta     96.1301
_cell_angle_gamma    90.0008

_space_group_name_H-M_alt    "P 1"
_space_group_IT_number       1

loop_
  _space_group_symop_operation_xyz
  'x, y, z'

loop_
  _atom_site_type_symbol
  _atom_site_label
  _atom_site_symmetry_multiplicity
  _atom_site_fract_x
  _atom_site_fract_y
  _atom_site_fract_z
  _atom_site_occupancy
  Cu  Cu1       1.0  0.57676  0.45764  0.43549  1.0000
  Cu  Cu2       1.0  0.57676  0.04236  0.93549  1.0000
  Cu  Cu3       1.0  0.42324  0.54235  0.56451  1.0000
  Cu  Cu4       1.0  0.42324  0.95764  0.06451  1.0000
  H   H1        1.0  0.88326  0.78359  0.28114  1.0000
  H   H2        1.0  0.88326  0.71641  0.78114  1.0000
  H   H3        1.0  0.11674  0.21641  0.71886  1.0000
  H   H4        1.0  0.11673  0.28359  0.21886  1.0000
  H   H5        1.0  0.61020  0.81390  0.37956  1.0000
  H   H6        1.0  0.61020  0.68608  0.87956  1.0000
  H   H7        1.0  0.38981  0.18609  0.62044  1.0000
  H   H8        1.0  0.38980  0.31393  0.12044  1.0000
  H   H9        1.0  0.65726  0.00088  0.46027  1.0000
  H   H10       1.0  0.65728  0.49911  0.96027  1.0000
  H   H11       1.0  0.34275  0.99911  0.53973  1.0000
  H   H12       1.0  0.34272  0.50091  0.03973  1.0000
  H   H13       1.0  0.87084  0.19471  0.49118  1.0000
  H   H14       1.0  0.87084  0.30528  0.99118  1.0000
  H   H15       1.0  0.12919  0.80529  0.50883  1.0000
  H   H16       1.0  0.12914  0.69473  0.00882  1.0000
  H   H17       1.0  0.18809  0.33792  0.46856  1.0000
  H   H18       1.0  0.18809  0.16207  0.96856  1.0000
  H   H19       1.0  0.81194  0.66207  0.53144  1.0000
  H   H20       1.0  0.81188  0.83794  0.03144  1.0000
  H   H21       1.0  0.75855  0.36267  0.30588  1.0000
  H   H22       1.0  0.75854  0.13734  0.80587  1.0000
  H   H23       1.0  0.24146  0.63732  0.69412  1.0000
  H   H24       1.0  0.24142  0.86267  0.19412  1.0000
  H   H25       1.0  0.70623  0.18768  0.21851  1.0000
  H   H26       1.0  0.70622  0.31234  0.71851  1.0000
  H   H27       1.0  0.29378  0.81232  0.78149  1.0000
  H   H28       1.0  0.29375  0.68767  0.28149  1.0000
  H   H29       1.0  0.39479  0.03339  0.23697  1.0000
  H   H30       1.0  0.39479  0.46662  0.73697  1.0000
  H   H31       1.0  0.60523  0.96661  0.76303  1.0000
  H   H32       1.0  0.60520  0.53339  0.26303  1.0000
  C   C1        1.0  0.89873  0.86464  0.31623  1.0000
  C   C2        1.0  0.89873  0.63535  0.81623  1.0000
  C   C3        1.0  0.10128  0.13536  0.68377  1.0000
  C   C4        1.0  0.10126  0.36465  0.18377  1.0000
  C   C5        1.0  0.74473  0.88130  0.37190  1.0000
  C   C6        1.0  0.74473  0.61869  0.87190  1.0000
  C   C7        1.0  0.25528  0.11870  0.62810  1.0000
  C   C8        1.0  0.25526  0.38132  0.12810  1.0000
  C   C9        1.0  0.77084  0.98385  0.41602  1.0000
  C   C10       1.0  0.77084  0.51614  0.91602  1.0000
  C   C11       1.0  0.22918  0.01614  0.58398  1.0000
  C   C12       1.0  0.22914  0.48388  0.08397  1.0000
  C   C13       1.0  0.98599  0.17602  0.44764  1.0000
  C   C14       1.0  0.98600  0.32397  0.94764  1.0000
  C   C15       1.0  0.01403  0.82397  0.55237  1.0000
  C   C16       1.0  0.01398  0.67604  0.05236  1.0000
  C   C17       1.0  0.16057  0.25561  0.43524  1.0000
  C   C18       1.0  0.16057  0.24438  0.93524  1.0000
  C   C19       1.0  0.83946  0.74438  0.56477  1.0000
  C   C20       1.0  0.83941  0.75562  0.06476  1.0000
  C   C21       1.0  0.62134  0.29604  0.31236  1.0000
  C   C22       1.0  0.62134  0.20397  0.81236  1.0000
  C   C23       1.0  0.37867  0.70396  0.68764  1.0000
  C   C24       1.0  0.37863  0.79603  0.18764  1.0000
  C   C25       1.0  0.59334  0.19667  0.26360  1.0000
  C   C26       1.0  0.59334  0.30334  0.76359  1.0000
  C   C27       1.0  0.40668  0.80333  0.73640  1.0000
  C   C28       1.0  0.40665  0.69666  0.23640  1.0000
  C   C29       1.0  0.42150  0.11195  0.27345  1.0000
  C   C30       1.0  0.42149  0.38806  0.77345  1.0000
  C   C31       1.0  0.57852  0.88805  0.72655  1.0000
  C   C32       1.0  0.57850  0.61195  0.22656  1.0000
  C   C33       1.0  0.27601  0.12879  0.33153  1.0000
  C   C34       1.0  0.27602  0.37121  0.83153  1.0000
  C   C35       1.0  0.72401  0.87120  0.66847  1.0000
  C   C36       1.0  0.72397  0.62880  0.16848  1.0000
  C   C37       1.0  0.09334  0.04345  0.34567  1.0000
  C   C38       1.0  0.09334  0.45655  0.84567  1.0000
  C   C39       1.0  0.90667  0.95655  0.65433  1.0000
  C   C40       1.0  0.90664  0.54345  0.15433  1.0000
  C   C41       1.0  0.94848  0.06822  0.40405  1.0000
  C   C42       1.0  0.94848  0.43177  0.90405  1.0000
  C   C43       1.0  0.05154  0.93177  0.59596  1.0000
  C   C44       1.0  0.05150  0.56823  0.09595  1.0000
  C   C45       1.0  0.31032  0.23380  0.37765  1.0000
  C   C46       1.0  0.31033  0.26620  0.87765  1.0000
  C   C47       1.0  0.68971  0.76619  0.62235  1.0000
  C   C48       1.0  0.68966  0.73380  0.12235  1.0000
  C   C49       1.0  0.06258  0.56876  0.42065  1.0000
  C   C50       1.0  0.06257  0.93124  0.92065  1.0000
  C   C51       1.0  0.93743  0.43123  0.57934  1.0000
  C   C52       1.0  0.93742  0.06877  0.07934  1.0000
  S   S1        1.0  0.33165  0.62256  0.43791  1.0000
  S   S2        1.0  0.33166  0.87744  0.93791  1.0000
  S   S3        1.0  0.66832  0.37743  0.56209  1.0000
  S   S4        1.0  0.66834  0.12256  0.06208  1.0000
  N   N1        1.0  0.06698  0.94224  0.30281  1.0000
  N   N2        1.0  0.06699  0.55775  0.80281  1.0000
  N   N3        1.0  0.93303  0.05775  0.69719  1.0000
  N   N4        1.0  0.93301  0.44226  0.19719  1.0000
  N   N5        1.0  0.48570  0.31543  0.36786  1.0000
  N   N6        1.0  0.48570  0.18457  0.86786  1.0000
  N   N7        1.0  0.51432  0.68456  0.63214  1.0000
  N   N8        1.0  0.51428  0.81543  0.13214  1.0000
  N   N9        1.0  0.86922  0.52962  0.41024  1.0000
  N   N10       1.0  0.86924  0.97037  0.91024  1.0000
  N   N11       1.0  0.13078  0.47037  0.58976  1.0000
  N   N12       1.0  0.13080  0.02962  0.08976  1.0000
