data_image0
_chemical_formula_structural       Cu8H32C48I8N8
_chemical_formula_sum              "Cu8 H32 C48 I8 N8"
_cell_length_a       4.17138
_cell_length_b       11.9287
_cell_length_c       25.1062
_cell_angle_alpha    90.0003
_cell_angle_beta     90.0008
_cell_angle_gamma    90.0011

_space_group_name_H-M_alt    "P 1"
_space_group_IT_number       1

loop_
  _space_group_symop_operation_xyz
  'x, y, z'

loop_
  _atom_site_type_symbol
  _atom_site_label
  _atom_site_symmetry_multiplicity
  _atom_site_fract_x
  _atom_site_fract_y
  _atom_site_fract_z
  _atom_site_occupancy
  Cu  Cu1       1.0  0.59367  0.39513  0.89398  1.0000
  Cu  Cu2       1.0  0.90634  0.60487  0.39398  1.0000
  Cu  Cu3       1.0  0.40634  0.89513  0.60602  1.0000
  Cu  Cu4       1.0  0.09367  0.10487  0.10601  1.0000
  Cu  Cu5       1.0  0.26644  0.28929  0.96658  1.0000
  Cu  Cu6       1.0  0.23358  0.71071  0.46658  1.0000
  Cu  Cu7       1.0  0.73354  0.78930  0.53342  1.0000
  Cu  Cu8       1.0  0.76644  0.21070  0.03342  1.0000
  H   H1        1.0  0.29007  0.55937  0.94465  1.0000
  H   H2        1.0  0.20993  0.44063  0.44465  1.0000
  H   H3        1.0  0.70991  0.05937  0.55536  1.0000
  H   H4        1.0  0.79010  0.94062  0.05535  1.0000
  H   H5        1.0  0.82395  0.46300  0.79136  1.0000
  H   H6        1.0  0.67605  0.53701  0.29136  1.0000
  H   H7        1.0  0.17607  0.96299  0.70865  1.0000
  H   H8        1.0  0.32395  0.03701  0.20864  1.0000
  H   H9        1.0  0.94664  0.71759  0.97459  1.0000
  H   H10       1.0  0.55334  0.28241  0.47459  1.0000
  H   H11       1.0  0.05334  0.21759  0.52541  1.0000
  H   H12       1.0  0.44666  0.78240  0.02540  1.0000
  H   H13       1.0  0.38910  0.77989  0.75064  1.0000
  H   H14       1.0  0.11090  0.22012  0.25063  1.0000
  H   H15       1.0  0.61090  0.27989  0.74937  1.0000
  H   H16       1.0  0.88910  0.72011  0.24936  1.0000
  H   H17       1.0  0.73560  0.61582  0.72548  1.0000
  H   H18       1.0  0.76441  0.38419  0.22548  1.0000
  H   H19       1.0  0.26443  0.11582  0.77453  1.0000
  H   H20       1.0  0.23559  0.88419  0.27452  1.0000
  H   H21       1.0  0.79315  0.03821  0.79765  1.0000
  H   H22       1.0  0.70687  0.96179  0.29765  1.0000
  H   H23       1.0  0.20691  0.53822  0.70235  1.0000
  H   H24       1.0  0.29309  0.46179  0.20235  1.0000
  H   H25       1.0  0.67509  0.90040  0.95475  1.0000
  H   H26       1.0  0.82491  0.09961  0.45475  1.0000
  H   H27       1.0  0.32493  0.40039  0.54526  1.0000
  H   H28       1.0  0.17508  0.59960  0.04525  1.0000
  H   H29       1.0  0.55951  0.05316  0.88860  1.0000
  H   H30       1.0  0.94050  0.94684  0.38860  1.0000
  H   H31       1.0  0.44054  0.55316  0.61140  1.0000
  H   H32       1.0  0.05946  0.44684  0.11140  1.0000
  C   C1        1.0  0.23838  0.62978  0.91836  1.0000
  C   C2        1.0  0.26162  0.37021  0.41836  1.0000
  C   C3        1.0  0.76160  0.12979  0.58164  1.0000
  C   C4        1.0  0.73838  0.87020  0.08163  1.0000
  C   C5        1.0  0.30288  0.71605  0.82980  1.0000
  C   C6        1.0  0.19711  0.28395  0.32980  1.0000
  C   C7        1.0  0.69711  0.21606  0.67020  1.0000
  C   C8        1.0  0.80289  0.78394  0.17019  1.0000
  C   C9        1.0  0.36916  0.62690  0.86589  1.0000
  C   C10       1.0  0.13083  0.37310  0.36589  1.0000
  C   C11       1.0  0.63082  0.12691  0.63412  1.0000
  C   C12       1.0  0.86916  0.87309  0.13411  1.0000
  C   C13       1.0  0.67778  0.53565  0.80189  1.0000
  C   C14       1.0  0.82222  0.46435  0.30189  1.0000
  C   C15       1.0  0.32223  0.03565  0.69812  1.0000
  C   C16       1.0  0.17777  0.96435  0.19811  1.0000
  C   C17       1.0  0.04941  0.71689  0.93458  1.0000
  C   C18       1.0  0.45059  0.28311  0.43457  1.0000
  C   C19       1.0  0.95059  0.21689  0.56543  1.0000
  C   C20       1.0  0.54941  0.78310  0.06542  1.0000
  C   C21       1.0  0.97430  0.80750  0.89951  1.0000
  C   C22       1.0  0.52569  0.19250  0.39951  1.0000
  C   C23       1.0  0.02569  0.30750  0.60049  1.0000
  C   C24       1.0  0.47429  0.69250  0.10048  1.0000
  C   C25       1.0  0.43676  0.71187  0.77844  1.0000
  C   C26       1.0  0.06323  0.28814  0.27844  1.0000
  C   C27       1.0  0.56324  0.21187  0.72157  1.0000
  C   C28       1.0  0.93677  0.78813  0.22156  1.0000
  C   C29       1.0  0.62599  0.62131  0.76473  1.0000
  C   C30       1.0  0.87399  0.37869  0.26472  1.0000
  C   C31       1.0  0.37400  0.12131  0.73528  1.0000
  C   C32       1.0  0.12598  0.87869  0.23527  1.0000
  C   C33       1.0  0.09931  0.80757  0.84670  1.0000
  C   C34       1.0  0.40068  0.19243  0.34670  1.0000
  C   C35       1.0  0.90069  0.30758  0.65330  1.0000
  C   C36       1.0  0.59930  0.69242  0.15329  1.0000
  C   C37       1.0  0.84469  0.97344  0.82715  1.0000
  C   C38       1.0  0.65532  0.02656  0.32715  1.0000
  C   C39       1.0  0.15536  0.47345  0.67285  1.0000
  C   C40       1.0  0.34464  0.52656  0.17285  1.0000
  C   C41       1.0  0.77583  0.89784  0.91467  1.0000
  C   C42       1.0  0.72417  0.10215  0.41467  1.0000
  C   C43       1.0  0.22418  0.39785  0.58533  1.0000
  C   C44       1.0  0.27581  0.60214  0.08533  1.0000
  C   C45       1.0  0.71081  0.98177  0.87845  1.0000
  C   C46       1.0  0.78921  0.01824  0.37845  1.0000
  C   C47       1.0  0.28924  0.48177  0.62156  1.0000
  C   C48       1.0  0.21077  0.51823  0.12155  1.0000
  I   I1        1.0  0.10209  0.27325  0.86440  1.0000
  I   I2        1.0  0.39791  0.72676  0.36440  1.0000
  I   I3        1.0  0.89790  0.77325  0.63560  1.0000
  I   I4        1.0  0.60211  0.22675  0.13560  1.0000
  I   I5        1.0  0.75179  0.41559  0.99722  1.0000
  I   I6        1.0  0.74824  0.58441  0.49722  1.0000
  I   I7        1.0  0.24821  0.91559  0.50279  1.0000
  I   I8        1.0  0.25178  0.08441  0.00278  1.0000
  N   N1        1.0  0.55440  0.53689  0.85114  1.0000
  N   N2        1.0  0.94559  0.46310  0.35114  1.0000
  N   N3        1.0  0.44559  0.03690  0.64887  1.0000
  N   N4        1.0  0.05440  0.96310  0.14886  1.0000
  N   N5        1.0  0.03260  0.88997  0.81120  1.0000
  N   N6        1.0  0.46741  0.11003  0.31120  1.0000
  N   N7        1.0  0.96742  0.38998  0.68880  1.0000
  N   N8        1.0  0.53257  0.61002  0.18879  1.0000
