data_image0
_chemical_formula_structural       Cu2H16C24Br2N4
_chemical_formula_sum              "Cu2 H16 C24 Br2 N4"
_cell_length_a       3.9588
_cell_length_b       9.89779
_cell_length_c       12.8281
_cell_angle_alpha    89.9703
_cell_angle_beta     89.8139
_cell_angle_gamma    78.468

_space_group_name_H-M_alt    "P 1"
_space_group_IT_number       1

loop_
  _space_group_symop_operation_xyz
  'x, y, z'

loop_
  _atom_site_type_symbol
  _atom_site_label
  _atom_site_symmetry_multiplicity
  _atom_site_fract_x
  _atom_site_fract_y
  _atom_site_fract_z
  _atom_site_occupancy
  Cu  Cu1       1.0  0.53755  0.34373  0.18327  1.0000
  Cu  Cu2       1.0  0.88414  0.65660  0.68351  1.0000
  H   H1        1.0  0.88534  0.00298  0.56088  1.0000
  H   H2        1.0  0.89061  0.99674  0.06159  1.0000
  H   H3        1.0  0.14916  0.93071  0.39159  1.0000
  H   H4        1.0  0.08210  0.06933  0.89245  1.0000
  H   H5        1.0  0.00316  0.08692  0.23560  1.0000
  H   H6        1.0  0.09246  0.91345  0.73622  1.0000
  H   H7        1.0  0.11583  0.43162  0.33172  1.0000
  H   H8        1.0  0.54889  0.56871  0.83186  1.0000
  H   H9        1.0  0.87661  0.53937  0.50105  1.0000
  H   H10       1.0  0.41556  0.46111  0.00101  1.0000
  H   H11       1.0  0.07400  0.44457  0.84758  1.0000
  H   H12       1.0  0.51689  0.55536  0.34769  1.0000
  H   H13       1.0  0.45459  0.21601  0.86188  1.0000
  H   H14       1.0  0.67139  0.78347  0.36233  1.0000
  H   H15       1.0  0.69074  0.09130  0.69891  1.0000
  H   H16       1.0  0.78456  0.90814  0.19955  1.0000
  C   C1        1.0  0.80896  0.06792  0.49302  1.0000
  C   C2        1.0  0.87903  0.93193  0.99362  1.0000
  C   C3        1.0  0.95796  0.02619  0.39759  1.0000
  C   C4        1.0  0.98624  0.97386  0.89826  1.0000
  C   C5        1.0  0.87008  0.11009  0.31015  1.0000
  C   C6        1.0  0.98241  0.89012  0.81070  1.0000
  C   C7        1.0  0.20616  0.38728  0.40702  1.0000
  C   C8        1.0  0.59513  0.61287  0.90721  1.0000
  C   C9        1.0  0.07426  0.44510  0.49878  1.0000
  C   C10       1.0  0.52013  0.55512  0.99888  1.0000
  C   C11       1.0  0.17263  0.38924  0.77691  1.0000
  C   C12       1.0  0.56135  0.61062  0.27712  1.0000
  C   C13       1.0  0.38822  0.25920  0.78465  1.0000
  C   C14       1.0  0.64835  0.74040  0.28504  1.0000
  C   C15       1.0  0.51746  0.19130  0.69445  1.0000
  C   C16       1.0  0.71050  0.80830  0.19493  1.0000
  C   C17       1.0  0.42534  0.25330  0.59708  1.0000
  C   C18       1.0  0.68030  0.74651  0.09747  1.0000
  C   C19       1.0  0.56844  0.19333  0.49959  1.0000
  C   C20       1.0  0.76387  0.80656  0.00004  1.0000
  C   C21       1.0  0.47123  0.26646  0.40528  1.0000
  C   C22       1.0  0.73989  0.73358  0.90561  1.0000
  C   C23       1.0  0.19294  0.38344  0.59590  1.0000
  C   C24       1.0  0.57707  0.61657  0.09612  1.0000
  Br  Br1       1.0  0.10394  0.25783  0.07714  1.0000
  Br  Br2       1.0  0.36464  0.74251  0.57732  1.0000
  N   N1        1.0  0.62835  0.22604  0.31189  1.0000
  N   N2        1.0  0.85677  0.77412  0.81227  1.0000
  N   N3        1.0  0.07704  0.45244  0.68618  1.0000
  N   N4        1.0  0.52869  0.54764  0.18629  1.0000
