data_image0
_chemical_formula_structural       Cu4H32C48I4N8
_chemical_formula_sum              "Cu4 H32 C48 I4 N8"
_cell_length_a       8.90168
_cell_length_b       9.60753
_cell_length_c       14.0557
_cell_angle_alpha    90
_cell_angle_beta     90.0001
_cell_angle_gamma    117.615

_space_group_name_H-M_alt    "P 1"
_space_group_IT_number       1

loop_
  _space_group_symop_operation_xyz
  'x, y, z'

loop_
  _atom_site_type_symbol
  _atom_site_label
  _atom_site_symmetry_multiplicity
  _atom_site_fract_x
  _atom_site_fract_y
  _atom_site_fract_z
  _atom_site_occupancy
  Cu  Cu1       1.0  0.82524  0.65038  0.25000  1.0000
  Cu  Cu2       1.0  0.32524  0.65039  0.75000  1.0000
  Cu  Cu3       1.0  0.17476  0.34962  0.75000  1.0000
  Cu  Cu4       1.0  0.67476  0.34961  0.25000  1.0000
  H   H1        1.0  0.91194  0.61212  0.05057  1.0000
  H   H2        1.0  0.41193  0.61212  0.94943  1.0000
  H   H3        1.0  0.29985  0.38840  0.55058  1.0000
  H   H4        1.0  0.20015  0.61160  0.55058  1.0000
  H   H5        1.0  0.08806  0.38788  0.94943  1.0000
  H   H6        1.0  0.58806  0.38788  0.05058  1.0000
  H   H7        1.0  0.70015  0.61160  0.44942  1.0000
  H   H8        1.0  0.79985  0.38841  0.44942  1.0000
  H   H9        1.0  0.85813  0.68993  0.88868  1.0000
  H   H10       1.0  0.35813  0.68993  0.11132  1.0000
  H   H11       1.0  0.16827  0.31056  0.38860  1.0000
  H   H12       1.0  0.33173  0.68944  0.38860  1.0000
  H   H13       1.0  0.14188  0.31007  0.11132  1.0000
  H   H14       1.0  0.64187  0.31007  0.88868  1.0000
  H   H15       1.0  0.83173  0.68944  0.61140  1.0000
  H   H16       1.0  0.66827  0.31056  0.61140  1.0000
  H   H17       1.0  0.73093  0.10176  0.87502  1.0000
  H   H18       1.0  0.23094  0.10176  0.12498  1.0000
  H   H19       1.0  0.62905  0.89792  0.37493  1.0000
  H   H20       1.0  0.87094  0.10208  0.37493  1.0000
  H   H21       1.0  0.26906  0.89824  0.12498  1.0000
  H   H22       1.0  0.76906  0.89823  0.87501  1.0000
  H   H23       1.0  0.37095  0.10208  0.62507  1.0000
  H   H24       1.0  0.12905  0.89792  0.62507  1.0000
  H   H25       1.0  0.79667  0.89442  0.26899  1.0000
  H   H26       1.0  0.29666  0.89442  0.73101  1.0000
  H   H27       1.0  0.90225  0.10569  0.76892  1.0000
  H   H28       1.0  0.59776  0.89431  0.76892  1.0000
  H   H29       1.0  0.20334  0.10558  0.73101  1.0000
  H   H30       1.0  0.70335  0.10558  0.26899  1.0000
  H   H31       1.0  0.09776  0.89431  0.23108  1.0000
  H   H32       1.0  0.40225  0.10569  0.23108  1.0000
  C   C1        1.0  0.87092  0.70231  0.04203  1.0000
  C   C2        1.0  0.37092  0.70231  0.95797  1.0000
  C   C3        1.0  0.16865  0.29813  0.54198  1.0000
  C   C4        1.0  0.33135  0.70187  0.54198  1.0000
  C   C5        1.0  0.12908  0.29769  0.95797  1.0000
  C   C6        1.0  0.62908  0.29769  0.04203  1.0000
  C   C7        1.0  0.83135  0.70188  0.45802  1.0000
  C   C8        1.0  0.66865  0.29813  0.45802  1.0000
  C   C9        1.0  0.84207  0.74748  0.95193  1.0000
  C   C10       1.0  0.34207  0.74748  0.04807  1.0000
  C   C11       1.0  0.09467  0.25298  0.45187  1.0000
  C   C12       1.0  0.40533  0.74702  0.45188  1.0000
  C   C13       1.0  0.15793  0.25252  0.04807  1.0000
  C   C14       1.0  0.65792  0.25252  0.95193  1.0000
  C   C15       1.0  0.90533  0.74702  0.54812  1.0000
  C   C16       1.0  0.59467  0.25299  0.54813  1.0000
  C   C17       1.0  0.77393  0.93722  0.02788  1.0000
  C   C18       1.0  0.27393  0.93722  0.97212  1.0000
  C   C19       1.0  0.83673  0.06289  0.52777  1.0000
  C   C20       1.0  0.66327  0.93711  0.52777  1.0000
  C   C21       1.0  0.22606  0.06278  0.97212  1.0000
  C   C22       1.0  0.72606  0.06277  0.02788  1.0000
  C   C23       1.0  0.16327  0.93711  0.47223  1.0000
  C   C24       1.0  0.33673  0.06289  0.47223  1.0000
  C   C25       1.0  0.69910  0.11951  0.11652  1.0000
  C   C26       1.0  0.19910  0.11951  0.88348  1.0000
  C   C27       1.0  0.57960  0.88037  0.61643  1.0000
  C   C28       1.0  0.92040  0.11964  0.61643  1.0000
  C   C29       1.0  0.30090  0.88048  0.88348  1.0000
  C   C30       1.0  0.80090  0.88048  0.11652  1.0000
  C   C31       1.0  0.42040  0.11964  0.38357  1.0000
  C   C32       1.0  0.07960  0.88036  0.38357  1.0000
  C   C33       1.0  0.79352  0.86478  0.94494  1.0000
  C   C34       1.0  0.29352  0.86478  0.05506  1.0000
  C   C35       1.0  0.92881  0.13556  0.44486  1.0000
  C   C36       1.0  0.57118  0.86445  0.44486  1.0000
  C   C37       1.0  0.20648  0.13522  0.05506  1.0000
  C   C38       1.0  0.70647  0.13521  0.94494  1.0000
  C   C39       1.0  0.07119  0.86445  0.55514  1.0000
  C   C40       1.0  0.42882  0.13556  0.55514  1.0000
  C   C41       1.0  0.72453  0.05677  0.20331  1.0000
  C   C42       1.0  0.22452  0.05678  0.79669  1.0000
  C   C43       1.0  0.66776  0.94319  0.70323  1.0000
  C   C44       1.0  0.83225  0.05681  0.70323  1.0000
  C   C45       1.0  0.27548  0.94322  0.79669  1.0000
  C   C46       1.0  0.77548  0.94323  0.20331  1.0000
  C   C47       1.0  0.33225  0.05681  0.29677  1.0000
  C   C48       1.0  0.16776  0.94319  0.29677  1.0000
  I   I1        1.0  0.01196  0.50000  0.24991  1.0000
  I   I2        1.0  0.51196  0.50000  0.75009  1.0000
  I   I3        1.0  0.98804  0.50000  0.75009  1.0000
  I   I4        1.0  0.48804  0.50000  0.24991  1.0000
  N   N1        1.0  0.84862  0.76406  0.12277  1.0000
  N   N2        1.0  0.34861  0.76406  0.87723  1.0000
  N   N3        1.0  0.08454  0.23618  0.62269  1.0000
  N   N4        1.0  0.41546  0.76382  0.62270  1.0000
  N   N5        1.0  0.15139  0.23594  0.87723  1.0000
  N   N6        1.0  0.65139  0.23594  0.12277  1.0000
  N   N7        1.0  0.91546  0.76382  0.37731  1.0000
  N   N8        1.0  0.58454  0.23619  0.37731  1.0000
