data_image0
_chemical_formula_structural       Zn6H48C56N4O36
_chemical_formula_sum              "Zn6 H48 C56 N4 O36"
_cell_length_a       6.1666
_cell_length_b       15.1307
_cell_length_c       16.5687
_cell_angle_alpha    94.7187
_cell_angle_beta     89.9978
_cell_angle_gamma    101.761

_space_group_name_H-M_alt    "P 1"
_space_group_IT_number       1

loop_
  _space_group_symop_operation_xyz
  'x, y, z'

loop_
  _atom_site_type_symbol
  _atom_site_label
  _atom_site_symmetry_multiplicity
  _atom_site_fract_x
  _atom_site_fract_y
  _atom_site_fract_z
  _atom_site_occupancy
  Zn  Zn1       1.0  0.57193  0.33849  0.75559  1.0000
  Zn  Zn2       1.0  0.23270  0.66153  0.74447  1.0000
  Zn  Zn3       1.0  0.42807  0.66151  0.24441  1.0000
  Zn  Zn4       1.0  0.76730  0.33847  0.25553  1.0000
  Zn  Zn5       1.0  0.37631  0.99994  0.24995  1.0000
  Zn  Zn6       1.0  0.62369  0.00006  0.75005  1.0000
  H   H1        1.0  0.35518  0.16570  0.72459  1.0000
  H   H2        1.0  0.18925  0.83436  0.77545  1.0000
  H   H3        1.0  0.64482  0.83430  0.27541  1.0000
  H   H4        1.0  0.81076  0.16564  0.22455  1.0000
  H   H5        1.0  0.19271  0.23904  0.72977  1.0000
  H   H6        1.0  0.95323  0.76112  0.77014  1.0000
  H   H7        1.0  0.80729  0.76096  0.27023  1.0000
  H   H8        1.0  0.04677  0.23888  0.22986  1.0000
  H   H9        1.0  0.43347  0.48635  0.72423  1.0000
  H   H10       1.0  0.94702  0.51357  0.77593  1.0000
  H   H11       1.0  0.56653  0.51365  0.27577  1.0000
  H   H12       1.0  0.05298  0.48643  0.22407  1.0000
  H   H13       1.0  0.25741  0.43660  0.79007  1.0000
  H   H14       1.0  0.82040  0.56322  0.71008  1.0000
  H   H15       1.0  0.74259  0.56340  0.20993  1.0000
  H   H16       1.0  0.17960  0.43678  0.28992  1.0000
  H   H17       1.0  0.27185  0.14975  0.20339  1.0000
  H   H18       1.0  0.12191  0.85012  0.29661  1.0000
  H   H19       1.0  0.72815  0.85025  0.79661  1.0000
  H   H20       1.0  0.87809  0.14987  0.70339  1.0000
  H   H21       1.0  0.08901  0.06887  0.16082  1.0000
  H   H22       1.0  0.01992  0.93103  0.33907  1.0000
  H   H23       1.0  0.91099  0.93113  0.83918  1.0000
  H   H24       1.0  0.98008  0.06897  0.66093  1.0000
  H   H25       1.0  0.81283  0.08324  0.51376  1.0000
  H   H26       1.0  0.72984  0.91674  0.98611  1.0000
  H   H27       1.0  0.18717  0.91676  0.48624  1.0000
  H   H28       1.0  0.27016  0.08326  0.01389  1.0000
  H   H29       1.0  0.03452  0.47326  0.57885  1.0000
  H   H30       1.0  0.56128  0.52688  0.92079  1.0000
  H   H31       1.0  0.96548  0.52674  0.42115  1.0000
  H   H32       1.0  0.43872  0.47312  0.07922  1.0000
  H   H33       1.0  0.64082  0.21522  0.56586  1.0000
  H   H34       1.0  0.42565  0.78484  0.93396  1.0000
  H   H35       1.0  0.35918  0.78478  0.43414  1.0000
  H   H36       1.0  0.57435  0.21516  0.06604  1.0000
  H   H37       1.0  0.16808  0.20524  0.58497  1.0000
  H   H38       1.0  0.96276  0.79495  0.91483  1.0000
  H   H39       1.0  0.83192  0.79476  0.41503  1.0000
  H   H40       1.0  0.03724  0.20505  0.08517  1.0000
  H   H41       1.0  0.24368  0.17085  0.34680  1.0000
  H   H42       1.0  0.07273  0.82931  0.15297  1.0000
  H   H43       1.0  0.75632  0.82915  0.65319  1.0000
  H   H44       1.0  0.92727  0.17069  0.84703  1.0000
  H   H45       1.0  0.27130  0.49514  0.45655  1.0000
  H   H46       1.0  0.77611  0.50495  0.04307  1.0000
  H   H47       1.0  0.72870  0.50486  0.54345  1.0000
  H   H48       1.0  0.22389  0.49505  0.95693  1.0000
  C   C1        1.0  0.92559  0.32097  0.65741  1.0000
  C   C2        1.0  0.60439  0.67921  0.84240  1.0000
  C   C3        1.0  0.07441  0.67903  0.34259  1.0000
  C   C4        1.0  0.39561  0.32079  0.15760  1.0000
  C   C5        1.0  0.61349  0.05931  0.40517  1.0000
  C   C6        1.0  0.55440  0.94069  0.09470  1.0000
  C   C7        1.0  0.38650  0.94069  0.59482  1.0000
  C   C8        1.0  0.44560  0.05931  0.90530  1.0000
  C   C9        1.0  0.08170  0.33734  0.58867  1.0000
  C   C10       1.0  0.74432  0.66282  0.91106  1.0000
  C   C11       1.0  0.91831  0.66266  0.41134  1.0000
  C   C12       1.0  0.25568  0.33718  0.08894  1.0000
  C   C13       1.0  0.68619  0.10572  0.47949  1.0000
  C   C14       1.0  0.58067  0.89429  0.02038  1.0000
  C   C15       1.0  0.31381  0.89428  0.52051  1.0000
  C   C16       1.0  0.41933  0.10571  0.97962  1.0000
  C   C17       1.0  0.70121  0.97753  0.37287  1.0000
  C   C18       1.0  0.72396  0.02243  0.12704  1.0000
  C   C19       1.0  0.29879  0.02247  0.62713  1.0000
  C   C20       1.0  0.27604  0.97757  0.87296  1.0000
  C   C21       1.0  0.11260  0.41947  0.55282  1.0000
  C   C22       1.0  0.69315  0.58066  0.94684  1.0000
  C   C23       1.0  0.88740  0.58053  0.44718  1.0000
  C   C24       1.0  0.30685  0.41934  0.05316  1.0000
  C   C25       1.0  0.59164  0.17841  0.50739  1.0000
  C   C26       1.0  0.41330  0.82165  0.99244  1.0000
  C   C27       1.0  0.40836  0.82159  0.49261  1.0000
  C   C28       1.0  0.58669  0.17835  0.00756  1.0000
  C   C29       1.0  0.19171  0.26975  0.55787  1.0000
  C   C30       1.0  0.92193  0.73041  0.94189  1.0000
  C   C31       1.0  0.80829  0.73025  0.44214  1.0000
  C   C32       1.0  0.07807  0.26959  0.05811  1.0000
  C   C33       1.0  0.43245  0.20514  0.45996  1.0000
  C   C34       1.0  0.22725  0.79497  0.03982  1.0000
  C   C35       1.0  0.56755  0.79486  0.54004  1.0000
  C   C36       1.0  0.77276  0.20503  0.96018  1.0000
  C   C37       1.0  0.32549  0.28115  0.48951  1.0000
  C   C38       1.0  0.04426  0.71900  0.01024  1.0000
  C   C39       1.0  0.67451  0.71885  0.51048  1.0000
  C   C40       1.0  0.95575  0.28100  0.98976  1.0000
  C   C41       1.0  0.36991  0.15462  0.38586  1.0000
  C   C42       1.0  0.21528  0.84548  0.11393  1.0000
  C   C43       1.0  0.63009  0.84538  0.61414  1.0000
  C   C44       1.0  0.78472  0.15452  0.88607  1.0000
  C   C45       1.0  0.34781  0.36289  0.45182  1.0000
  C   C46       1.0  0.98484  0.63722  0.04791  1.0000
  C   C47       1.0  0.65219  0.63711  0.54818  1.0000
  C   C48       1.0  0.01516  0.36278  0.95209  1.0000
  C   C49       1.0  0.24390  0.43151  0.48506  1.0000
  C   C50       1.0  0.81237  0.56860  0.01461  1.0000
  C   C51       1.0  0.75610  0.56849  0.51494  1.0000
  C   C52       1.0  0.18763  0.43140  0.98539  1.0000
  C   C53       1.0  0.48200  0.38252  0.37769  1.0000
  C   C54       1.0  0.09925  0.61761  0.12208  1.0000
  C   C55       1.0  0.51799  0.61748  0.62231  1.0000
  C   C56       1.0  0.90076  0.38239  0.87792  1.0000
  N   N1        1.0  0.45757  0.08372  0.35977  1.0000
  N   N2        1.0  0.37398  0.91630  0.14007  1.0000
  N   N3        1.0  0.54243  0.91628  0.64023  1.0000
  N   N4        1.0  0.62601  0.08370  0.85992  1.0000
  O   O1        1.0  0.76760  0.36500  0.66177  1.0000
  O   O2        1.0  0.40233  0.63522  0.83820  1.0000
  O   O3        1.0  0.23240  0.63499  0.33824  1.0000
  O   O4        1.0  0.59768  0.36478  0.16180  1.0000
  O   O5        1.0  0.33723  0.22748  0.74913  1.0000
  O   O6        1.0  0.10943  0.77261  0.75088  1.0000
  O   O7        1.0  0.66277  0.77252  0.25087  1.0000
  O   O8        1.0  0.89057  0.22739  0.24912  1.0000
  O   O9        1.0  0.86667  0.96044  0.40835  1.0000
  O   O10       1.0  0.90653  0.03954  0.09156  1.0000
  O   O11       1.0  0.13333  0.03956  0.59165  1.0000
  O   O12       1.0  0.09347  0.96046  0.90844  1.0000
  O   O13       1.0  0.38484  0.43113  0.75428  1.0000
  O   O14       1.0  0.95331  0.56878  0.74589  1.0000
  O   O15       1.0  0.61516  0.56887  0.24572  1.0000
  O   O16       1.0  0.04669  0.43122  0.25411  1.0000
  O   O17       1.0  0.19453  0.08680  0.20875  1.0000
  O   O18       1.0  0.10756  0.91305  0.29117  1.0000
  O   O19       1.0  0.80547  0.91320  0.79125  1.0000
  O   O20       1.0  0.89244  0.08695  0.70883  1.0000
  O   O21       1.0  0.94732  0.26398  0.70735  1.0000
  O   O22       1.0  0.68289  0.73619  0.79240  1.0000
  O   O23       1.0  0.05268  0.73602  0.29265  1.0000
  O   O24       1.0  0.31711  0.26381  0.20760  1.0000
  O   O25       1.0  0.59902  0.93071  0.31090  1.0000
  O   O26       1.0  0.66860  0.06923  0.18903  1.0000
  O   O27       1.0  0.40097  0.06929  0.68910  1.0000
  O   O28       1.0  0.33140  0.93077  0.81097  1.0000
  O   O29       1.0  0.42803  0.43806  0.33178  1.0000
  O   O30       1.0  0.98975  0.56200  0.16795  1.0000
  O   O31       1.0  0.57196  0.56194  0.66822  1.0000
  O   O32       1.0  0.01025  0.43800  0.83206  1.0000
  O   O33       1.0  0.64539  0.34310  0.36532  1.0000
  O   O34       1.0  0.30197  0.65712  0.13457  1.0000
  O   O35       1.0  0.35461  0.65690  0.63468  1.0000
  O   O36       1.0  0.69803  0.34288  0.86543  1.0000
