data_image0
_chemical_formula_structural       Ni4H40C28N32
_chemical_formula_sum              "Ni4 H40 C28 N32"
_cell_length_a       7.42533
_cell_length_b       11.1013
_cell_length_c       12.6793
_cell_angle_alpha    98.9822
_cell_angle_beta     90.0001
_cell_angle_gamma    90.0001

_space_group_name_H-M_alt    "P 1"
_space_group_IT_number       1

loop_
  _space_group_symop_operation_xyz
  'x, y, z'

loop_
  _atom_site_type_symbol
  _atom_site_label
  _atom_site_symmetry_multiplicity
  _atom_site_fract_x
  _atom_site_fract_y
  _atom_site_fract_z
  _atom_site_occupancy
  Ni  Ni1       1.0  0.21060  0.44611  0.25942  1.0000
  Ni  Ni2       1.0  0.71060  0.05388  0.74057  1.0000
  Ni  Ni3       1.0  0.78940  0.55388  0.74058  1.0000
  Ni  Ni4       1.0  0.28940  0.94612  0.25943  1.0000
  H   H1        1.0  0.87883  0.48723  0.10163  1.0000
  H   H2        1.0  0.37883  0.01277  0.89837  1.0000
  H   H3        1.0  0.12117  0.51277  0.89837  1.0000
  H   H4        1.0  0.62117  0.98724  0.10163  1.0000
  H   H5        1.0  0.87144  0.64791  0.10604  1.0000
  H   H6        1.0  0.37144  0.85209  0.89396  1.0000
  H   H7        1.0  0.12856  0.35209  0.89396  1.0000
  H   H8        1.0  0.62856  0.14791  0.10604  1.0000
  H   H9        1.0  0.83252  0.67268  0.30653  1.0000
  H   H10       1.0  0.33251  0.82732  0.69347  1.0000
  H   H11       1.0  0.16748  0.32732  0.69347  1.0000
  H   H12       1.0  0.66749  0.17268  0.30653  1.0000
  H   H13       1.0  0.65396  0.59806  0.23180  1.0000
  H   H14       1.0  0.15395  0.90194  0.76820  1.0000
  H   H15       1.0  0.34604  0.40194  0.76820  1.0000
  H   H16       1.0  0.84605  0.09806  0.23180  1.0000
  H   H17       1.0  0.70243  0.48799  0.37591  1.0000
  H   H18       1.0  0.20242  0.01201  0.62409  1.0000
  H   H19       1.0  0.29757  0.51201  0.62409  1.0000
  H   H20       1.0  0.79758  0.98799  0.37591  1.0000
  H   H21       1.0  0.78301  0.39453  0.25964  1.0000
  H   H22       1.0  0.28301  0.10547  0.74036  1.0000
  H   H23       1.0  0.21699  0.60547  0.74037  1.0000
  H   H24       1.0  0.71700  0.89453  0.25964  1.0000
  H   H25       1.0  0.17657  0.56909  0.10591  1.0000
  H   H26       1.0  0.67657  0.93091  0.89408  1.0000
  H   H27       1.0  0.82342  0.43091  0.89409  1.0000
  H   H28       1.0  0.32343  0.06909  0.10591  1.0000
  H   H29       1.0  0.13741  0.66154  0.21825  1.0000
  H   H30       1.0  0.63741  0.83846  0.78175  1.0000
  H   H31       1.0  0.86259  0.33846  0.78175  1.0000
  H   H32       1.0  0.36259  0.16154  0.21825  1.0000
  H   H33       1.0  0.99001  0.39637  0.40283  1.0000
  H   H34       1.0  0.49001  0.10363  0.59717  1.0000
  H   H35       1.0  0.00999  0.60363  0.59717  1.0000
  H   H36       1.0  0.50999  0.89637  0.40283  1.0000
  H   H37       1.0  0.01369  0.54630  0.41651  1.0000
  H   H38       1.0  0.51368  0.95370  0.58349  1.0000
  H   H39       1.0  0.98631  0.45370  0.58349  1.0000
  H   H40       1.0  0.48632  0.04630  0.41651  1.0000
  C   C1        1.0  0.90851  0.57491  0.15193  1.0000
  C   C2        1.0  0.40850  0.92510  0.84807  1.0000
  C   C3        1.0  0.09150  0.42510  0.84807  1.0000
  C   C4        1.0  0.59150  0.07491  0.15193  1.0000
  C   C5        1.0  0.79560  0.58781  0.25359  1.0000
  C   C6        1.0  0.29560  0.91219  0.74641  1.0000
  C   C7        1.0  0.20440  0.41219  0.74641  1.0000
  C   C8        1.0  0.70440  0.08781  0.25359  1.0000
  C   C9        1.0  0.80796  0.47981  0.31421  1.0000
  C   C10       1.0  0.30796  0.02019  0.68579  1.0000
  C   C11       1.0  0.19204  0.52019  0.68579  1.0000
  C   C12       1.0  0.69204  0.97982  0.31421  1.0000
  C   C13       1.0  0.42825  0.64344  0.42118  1.0000
  C   C14       1.0  0.92825  0.85657  0.57881  1.0000
  C   C15       1.0  0.57175  0.35656  0.57881  1.0000
  C   C16       1.0  0.07176  0.14343  0.42119  1.0000
  C   C17       1.0  0.59622  0.69091  0.57081  1.0000
  C   C18       1.0  0.09622  0.80909  0.42919  1.0000
  C   C19       1.0  0.40378  0.30908  0.42919  1.0000
  C   C20       1.0  0.90378  0.19091  0.57081  1.0000
  C   C21       1.0  0.50085  0.37979  0.07498  1.0000
  C   C22       1.0  0.00085  0.12021  0.92501  1.0000
  C   C23       1.0  0.49914  0.62020  0.92503  1.0000
  C   C24       1.0  0.99915  0.87980  0.07498  1.0000
  C   C25       1.0  0.58054  0.26527  0.91332  1.0000
  C   C26       1.0  0.08054  0.23472  0.08667  1.0000
  C   C27       1.0  0.41946  0.73472  0.08668  1.0000
  C   C28       1.0  0.91945  0.76528  0.91333  1.0000
  N   N1        1.0  0.10332  0.57846  0.17517  1.0000
  N   N2        1.0  0.60331  0.92154  0.82483  1.0000
  N   N3        1.0  0.89668  0.42154  0.82483  1.0000
  N   N4        1.0  0.39669  0.07846  0.17517  1.0000
  N   N5        1.0  0.98725  0.46970  0.36262  1.0000
  N   N6        1.0  0.48724  0.03030  0.63738  1.0000
  N   N7        1.0  0.01275  0.53030  0.63739  1.0000
  N   N8        1.0  0.51276  0.96970  0.36261  1.0000
  N   N9        1.0  0.34416  0.57870  0.35742  1.0000
  N   N10       1.0  0.84416  0.92130  0.64258  1.0000
  N   N11       1.0  0.65583  0.42130  0.64258  1.0000
  N   N12       1.0  0.15584  0.07870  0.35742  1.0000
  N   N13       1.0  0.66938  0.67229  0.64909  1.0000
  N   N14       1.0  0.16939  0.82771  0.35091  1.0000
  N   N15       1.0  0.33062  0.32771  0.35091  1.0000
  N   N16       1.0  0.83062  0.17229  0.64909  1.0000
  N   N17       1.0  0.51995  0.72289  0.48680  1.0000
  N   N18       1.0  0.01995  0.77712  0.51320  1.0000
  N   N19       1.0  0.48005  0.27711  0.51320  1.0000
  N   N20       1.0  0.98006  0.22288  0.48680  1.0000
  N   N21       1.0  0.41708  0.41608  0.15218  1.0000
  N   N22       1.0  0.91707  0.08392  0.84782  1.0000
  N   N23       1.0  0.58292  0.58392  0.84783  1.0000
  N   N24       1.0  0.08292  0.91608  0.15218  1.0000
  N   N25       1.0  0.60796  0.34953  0.99442  1.0000
  N   N26       1.0  0.10796  0.15047  0.00557  1.0000
  N   N27       1.0  0.39204  0.65046  0.00559  1.0000
  N   N28       1.0  0.89204  0.84953  0.99442  1.0000
  N   N29       1.0  0.57554  0.19342  0.83422  1.0000
  N   N30       1.0  0.07554  0.30658  0.16577  1.0000
  N   N31       1.0  0.42446  0.80658  0.16578  1.0000
  N   N32       1.0  0.92445  0.69342  0.83423  1.0000
