data_image0
_chemical_formula_structural       K2Co2H28C16N4O20
_chemical_formula_sum              "K2 Co2 H28 C16 N4 O20"
_cell_length_a       5.07533
_cell_length_b       11.0959
_cell_length_c       12.2236
_cell_angle_alpha    90.0009
_cell_angle_beta     98.2825
_cell_angle_gamma    89.9995

_space_group_name_H-M_alt    "P 1"
_space_group_IT_number       1

loop_
  _space_group_symop_operation_xyz
  'x, y, z'

loop_
  _atom_site_type_symbol
  _atom_site_label
  _atom_site_symmetry_multiplicity
  _atom_site_fract_x
  _atom_site_fract_y
  _atom_site_fract_z
  _atom_site_occupancy
  K   K1        1.0  0.99999  0.99999  0.50000  1.0000
  K   K2        1.0  0.00001  0.50000  0.99999  1.0000
  Co  Co1       1.0  0.50000  0.00000  0.00000  1.0000
  Co  Co2       1.0  0.50000  0.50000  0.50000  1.0000
  H   H1        1.0  0.14024  0.98202  0.11332  1.0000
  H   H2        1.0  0.14021  0.51798  0.61331  1.0000
  H   H3        1.0  0.85976  0.01798  0.88668  1.0000
  H   H4        1.0  0.85979  0.48202  0.38668  1.0000
  H   H5        1.0  0.63052  0.94429  0.73520  1.0000
  H   H6        1.0  0.63055  0.55570  0.23520  1.0000
  H   H7        1.0  0.36948  0.05571  0.26480  1.0000
  H   H8        1.0  0.36945  0.44430  0.76479  1.0000
  H   H9        1.0  0.47448  0.08700  0.71308  1.0000
  H   H10       1.0  0.47452  0.41299  0.21307  1.0000
  H   H11       1.0  0.52552  0.91300  0.28692  1.0000
  H   H12       1.0  0.52548  0.58700  0.78692  1.0000
  H   H13       1.0  0.04397  0.28063  0.70943  1.0000
  H   H14       1.0  0.04399  0.21937  0.20944  1.0000
  H   H15       1.0  0.95602  0.71937  0.29057  1.0000
  H   H16       1.0  0.95600  0.78063  0.79056  1.0000
  H   H17       1.0  0.32134  0.76720  0.19201  1.0000
  H   H18       1.0  0.32136  0.73281  0.69200  1.0000
  H   H19       1.0  0.67864  0.23280  0.80800  1.0000
  H   H20       1.0  0.67864  0.26719  0.30799  1.0000
  H   H21       1.0  0.10048  0.79155  0.06795  1.0000
  H   H22       1.0  0.10048  0.70845  0.56795  1.0000
  H   H23       1.0  0.89952  0.20844  0.93206  1.0000
  H   H24       1.0  0.89954  0.29155  0.43205  1.0000
  H   H25       1.0  0.19911  0.25990  0.61101  1.0000
  H   H26       1.0  0.19911  0.24010  0.11101  1.0000
  H   H27       1.0  0.80089  0.74010  0.38899  1.0000
  H   H28       1.0  0.80089  0.75990  0.88899  1.0000
  C   C1        1.0  0.25166  0.96099  0.79224  1.0000
  C   C2        1.0  0.25170  0.53901  0.29224  1.0000
  C   C3        1.0  0.74833  0.03901  0.20776  1.0000
  C   C4        1.0  0.74833  0.46098  0.70777  1.0000
  C   C5        1.0  0.48382  0.98705  0.22725  1.0000
  C   C6        1.0  0.48379  0.51296  0.72724  1.0000
  C   C7        1.0  0.51619  0.01296  0.77275  1.0000
  C   C8        1.0  0.51621  0.48704  0.27275  1.0000
  C   C9        1.0  0.69918  0.18851  0.88879  1.0000
  C   C10       1.0  0.69921  0.31149  0.38879  1.0000
  C   C11       1.0  0.30081  0.81149  0.11121  1.0000
  C   C12       1.0  0.30081  0.68851  0.61121  1.0000
  C   C13       1.0  0.49883  0.24117  0.95702  1.0000
  C   C14       1.0  0.49886  0.25882  0.45702  1.0000
  C   C15       1.0  0.50116  0.75883  0.04298  1.0000
  C   C16       1.0  0.50115  0.74118  0.54298  1.0000
  N   N1        1.0  0.32810  0.94388  0.12242  1.0000
  N   N2        1.0  0.32809  0.55613  0.62241  1.0000
  N   N3        1.0  0.67189  0.05612  0.87758  1.0000
  N   N4        1.0  0.67192  0.44388  0.37759  1.0000
  O   O1        1.0  0.20179  0.96269  0.89419  1.0000
  O   O2        1.0  0.20181  0.53731  0.39418  1.0000
  O   O3        1.0  0.79820  0.03731  0.10581  1.0000
  O   O4        1.0  0.79819  0.46270  0.60581  1.0000
  O   O5        1.0  0.08973  0.91854  0.71560  1.0000
  O   O6        1.0  0.08977  0.58145  0.21558  1.0000
  O   O7        1.0  0.91027  0.08146  0.28441  1.0000
  O   O8        1.0  0.91021  0.41854  0.78440  1.0000
  O   O9        1.0  0.37432  0.16127  0.01016  1.0000
  O   O10       1.0  0.37434  0.33873  0.51016  1.0000
  O   O11       1.0  0.62567  0.83872  0.98985  1.0000
  O   O12       1.0  0.62566  0.66127  0.48984  1.0000
  O   O13       1.0  0.53931  0.64882  0.03702  1.0000
  O   O14       1.0  0.53929  0.85116  0.53702  1.0000
  O   O15       1.0  0.46068  0.35119  0.96298  1.0000
  O   O16       1.0  0.46074  0.14884  0.46298  1.0000
  O   O17       1.0  0.11016  0.21598  0.66561  1.0000
  O   O18       1.0  0.11018  0.28402  0.16561  1.0000
  O   O19       1.0  0.88983  0.78402  0.33439  1.0000
  O   O20       1.0  0.88982  0.71598  0.83439  1.0000
