data_image0
_chemical_formula_structural       Cu2H28C32I2N10O2F6
_chemical_formula_sum              "Cu2 H28 C32 I2 N10 O2 F6"
_cell_length_a       7.76349
_cell_length_b       7.65357
_cell_length_c       18.1835
_cell_angle_alpha    81.8255
_cell_angle_beta     87.8791
_cell_angle_gamma    74.5665

_space_group_name_H-M_alt    "P 1"
_space_group_IT_number       1

loop_
  _space_group_symop_operation_xyz
  'x, y, z'

loop_
  _atom_site_type_symbol
  _atom_site_label
  _atom_site_symmetry_multiplicity
  _atom_site_fract_x
  _atom_site_fract_y
  _atom_site_fract_z
  _atom_site_occupancy
  Cu  Cu1       1.0  0.54691  0.33909  0.66883  1.0000
  Cu  Cu2       1.0  0.75163  0.55147  0.65961  1.0000
  H   H1        1.0  0.70790  0.08944  0.55223  1.0000
  H   H2        1.0  0.19768  0.40176  0.59728  1.0000
  H   H3        1.0  0.33566  0.04240  0.35892  1.0000
  H   H4        1.0  0.07651  0.42296  0.36613  1.0000
  H   H5        1.0  0.11164  0.30384  0.28675  1.0000
  H   H6        1.0  0.28746  0.37749  0.32146  1.0000
  H   H7        1.0  0.06516  0.78536  0.18903  1.0000
  H   H8        1.0  0.59337  0.19310  0.24204  1.0000
  H   H9        1.0  0.74781  0.22388  0.35704  1.0000
  H   H10       1.0  0.76321  0.51712  0.48018  1.0000
  H   H11       1.0  0.00189  0.82174  0.60055  1.0000
  H   H12       1.0  0.25390  0.76712  0.42571  1.0000
  H   H13       1.0  0.22631  0.88115  0.50573  1.0000
  H   H14       1.0  0.71340  0.87866  0.73374  1.0000
  H   H15       1.0  0.03450  0.34432  0.77525  1.0000
  H   H16       1.0  0.15819  0.64857  0.96835  1.0000
  H   H17       1.0  0.92636  0.84538  0.04419  1.0000
  H   H18       1.0  0.84294  0.67846  0.00897  1.0000
  H   H19       1.0  0.77868  0.90934  0.96660  1.0000
  H   H20       1.0  0.39961  0.75668  0.90007  1.0000
  H   H21       1.0  0.25573  0.82035  0.82147  1.0000
  H   H22       1.0  0.97535  0.24101  0.97789  1.0000
  H   H23       1.0  0.04959  0.34859  0.09412  1.0000
  H   H24       1.0  0.47527  0.85363  0.13848  1.0000
  H   H25       1.0  0.64019  0.26411  0.84886  1.0000
  H   H26       1.0  0.28776  0.07887  0.72810  1.0000
  H   H27       1.0  0.00694  0.22151  0.48109  1.0000
  H   H28       1.0  0.93213  0.02779  0.85065  1.0000
  C   C1        1.0  0.56651  0.13999  0.53766  1.0000
  C   C2        1.0  0.28559  0.31482  0.56119  1.0000
  C   C3        1.0  0.31809  0.16752  0.45702  1.0000
  C   C4        1.0  0.49687  0.09138  0.47692  1.0000
  C   C5        1.0  0.23451  0.13808  0.38800  1.0000
  C   C6        1.0  0.17261  0.32208  0.33752  1.0000
  C   C7        1.0  0.07728  0.04686  0.40917  1.0000
  C   C8        1.0  0.98913  0.02378  0.33881  1.0000
  C   C9        1.0  0.07387  0.90348  0.28942  1.0000
  C   C10       1.0  0.99368  0.88087  0.22573  1.0000
  C   C11       1.0  0.82053  0.98729  0.21063  1.0000
  C   C12       1.0  0.72897  0.11228  0.25611  1.0000
  C   C13       1.0  0.81544  0.12831  0.31969  1.0000
  C   C14       1.0  0.84275  0.60482  0.49418  1.0000
  C   C15       1.0  0.96135  0.75684  0.55720  1.0000
  C   C16       1.0  0.15725  0.85957  0.45745  1.0000
  C   C17       1.0  0.81197  0.77588  0.76898  1.0000
  C   C18       1.0  0.99130  0.48205  0.79061  1.0000
  C   C19       1.0  0.06218  0.52939  0.85130  1.0000
  C   C20       1.0  0.99613  0.70341  0.87197  1.0000
  C   C21       1.0  0.05163  0.76155  0.94106  1.0000
  C   C22       1.0  0.89031  0.80178  0.99340  1.0000
  C   C23       1.0  0.29736  0.86887  0.87025  1.0000
  C   C24       1.0  0.13196  0.93028  0.92056  1.0000
  C   C25       1.0  0.18144  0.99117  0.99144  1.0000
  C   C26       1.0  0.08509  0.15791  0.01339  1.0000
  C   C27       1.0  0.12583  0.21864  0.07774  1.0000
  C   C28       1.0  0.26699  0.10800  0.12127  1.0000
  C   C29       1.0  0.36530  0.93928  0.10376  1.0000
  C   C30       1.0  0.31879  0.88534  0.03923  1.0000
  C   C31       1.0  0.54566  0.19215  0.83467  1.0000
  C   C32       1.0  0.36843  0.10176  0.77150  1.0000
  I   I1        1.0  0.90085  0.19008  0.66382  1.0000
  I   I2        1.0  0.40261  0.69587  0.66311  1.0000
  N   N1        1.0  0.84610  0.65310  0.56365  1.0000
  N   N2        1.0  0.94967  0.67127  0.44596  1.0000
  N   N3        1.0  0.02425  0.76748  0.48720  1.0000
  N   N4        1.0  0.46033  0.25669  0.57981  1.0000
  N   N5        1.0  0.21353  0.27618  0.50248  1.0000
  N   N6        1.0  0.86163  0.60595  0.74936  1.0000
  N   N7        1.0  0.87250  0.82665  0.82768  1.0000
  N   N8        1.0  0.47347  0.21613  0.76522  1.0000
  N   N9        1.0  0.38000  0.01310  0.84133  1.0000
  N   N10       1.0  0.49296  0.06902  0.88263  1.0000
  O   O1        1.0  0.94454  0.15768  0.45116  1.0000
  O   O2        1.0  0.00552  0.08036  0.88066  1.0000
  F   F1        1.0  0.60340  0.96956  0.43648  1.0000
  F   F2        1.0  0.24700  0.80088  0.30225  1.0000
  F   F3        1.0  0.73915  0.96811  0.14800  1.0000
  F   F4        1.0  0.19597  0.40583  0.89097  1.0000
  F   F5        1.0  0.41572  0.71651  0.02357  1.0000
  F   F6        1.0  0.31026  0.16502  0.18438  1.0000
