data_image0
_chemical_formula_structural       Zn4H32C56N16O8
_chemical_formula_sum              "Zn4 H32 C56 N16 O8"
_cell_length_a       7.65647
_cell_length_b       10.9715
_cell_length_c       15.8647
_cell_angle_alpha    98.7609
_cell_angle_beta     90.0001
_cell_angle_gamma    90

_space_group_name_H-M_alt    "P 1"
_space_group_IT_number       1

loop_
  _space_group_symop_operation_xyz
  'x, y, z'

loop_
  _atom_site_type_symbol
  _atom_site_label
  _atom_site_symmetry_multiplicity
  _atom_site_fract_x
  _atom_site_fract_y
  _atom_site_fract_z
  _atom_site_occupancy
  Zn  Zn1       1.0  0.94760  0.02466  0.88350  1.0000
  Zn  Zn2       1.0  0.44760  0.97534  0.61650  1.0000
  Zn  Zn3       1.0  0.05240  0.97534  0.11650  1.0000
  Zn  Zn4       1.0  0.55240  0.02466  0.38350  1.0000
  H   H1        1.0  0.17086  0.53123  0.77340  1.0000
  H   H2        1.0  0.67085  0.46877  0.72660  1.0000
  H   H3        1.0  0.82915  0.46877  0.22660  1.0000
  H   H4        1.0  0.32915  0.53123  0.27340  1.0000
  H   H5        1.0  0.44777  0.36489  0.81759  1.0000
  H   H6        1.0  0.94777  0.63511  0.68241  1.0000
  H   H7        1.0  0.55223  0.63511  0.18241  1.0000
  H   H8        1.0  0.05222  0.36489  0.31760  1.0000
  H   H9        1.0  0.06240  0.32452  0.70708  1.0000
  H   H10       1.0  0.56240  0.67547  0.79292  1.0000
  H   H11       1.0  0.93760  0.67548  0.29292  1.0000
  H   H12       1.0  0.43760  0.32453  0.20708  1.0000
  H   H13       1.0  0.78183  0.54217  0.97076  1.0000
  H   H14       1.0  0.28183  0.45783  0.52924  1.0000
  H   H15       1.0  0.21817  0.45783  0.02924  1.0000
  H   H16       1.0  0.71816  0.54217  0.47076  1.0000
  H   H17       1.0  0.02770  0.64126  0.90323  1.0000
  H   H18       1.0  0.52770  0.35874  0.59677  1.0000
  H   H19       1.0  0.97230  0.35874  0.09677  1.0000
  H   H20       1.0  0.47230  0.64126  0.40323  1.0000
  H   H21       1.0  0.19542  0.26333  0.87641  1.0000
  H   H22       1.0  0.69542  0.73667  0.62359  1.0000
  H   H23       1.0  0.80458  0.73667  0.12359  1.0000
  H   H24       1.0  0.30457  0.26333  0.37641  1.0000
  H   H25       1.0  0.77534  0.26460  0.01736  1.0000
  H   H26       1.0  0.27534  0.73540  0.48264  1.0000
  H   H27       1.0  0.22466  0.73540  0.98264  1.0000
  H   H28       1.0  0.72466  0.26460  0.51737  1.0000
  H   H29       1.0  0.52344  0.16140  0.07475  1.0000
  H   H30       1.0  0.02344  0.83859  0.42525  1.0000
  H   H31       1.0  0.47656  0.83859  0.92525  1.0000
  H   H32       1.0  0.97656  0.16141  0.57475  1.0000
  C   C1        1.0  0.79080  0.19837  0.76137  1.0000
  C   C2        1.0  0.29080  0.80163  0.73863  1.0000
  C   C3        1.0  0.20921  0.80163  0.23863  1.0000
  C   C4        1.0  0.70921  0.19837  0.26137  1.0000
  C   C5        1.0  0.06158  0.48875  0.80180  1.0000
  C   C6        1.0  0.56158  0.51124  0.69820  1.0000
  C   C7        1.0  0.93842  0.51125  0.19820  1.0000
  C   C8        1.0  0.43842  0.48875  0.30180  1.0000
  C   C9        1.0  0.46411  0.32123  0.87441  1.0000
  C   C10       1.0  0.96411  0.67877  0.62559  1.0000
  C   C11       1.0  0.53589  0.67877  0.12559  1.0000
  C   C12       1.0  0.03589  0.32123  0.37441  1.0000
  C   C13       1.0  0.78095  0.37896  0.87646  1.0000
  C   C14       1.0  0.28095  0.62104  0.62354  1.0000
  C   C15       1.0  0.21905  0.62104  0.12354  1.0000
  C   C16       1.0  0.71905  0.37896  0.37646  1.0000
  C   C17       1.0  0.00105  0.37309  0.76458  1.0000
  C   C18       1.0  0.50105  0.62691  0.73542  1.0000
  C   C19       1.0  0.99895  0.62691  0.23541  1.0000
  C   C20       1.0  0.49895  0.37309  0.26458  1.0000
  C   C21       1.0  0.86054  0.31836  0.80128  1.0000
  C   C22       1.0  0.36054  0.68164  0.69872  1.0000
  C   C23       1.0  0.13946  0.68164  0.19872  1.0000
  C   C24       1.0  0.63946  0.31836  0.30128  1.0000
  C   C25       1.0  0.62849  0.32218  0.91383  1.0000
  C   C26       1.0  0.12849  0.67782  0.58617  1.0000
  C   C27       1.0  0.37151  0.67782  0.08617  1.0000
  C   C28       1.0  0.87151  0.32218  0.41383  1.0000
  C   C29       1.0  0.84405  0.49470  0.91312  1.0000
  C   C30       1.0  0.34405  0.50530  0.58688  1.0000
  C   C31       1.0  0.15595  0.50530  0.08688  1.0000
  C   C32       1.0  0.65594  0.49470  0.41312  1.0000
  C   C33       1.0  0.98210  0.54986  0.87554  1.0000
  C   C34       1.0  0.48210  0.45014  0.62446  1.0000
  C   C35       1.0  0.01790  0.45014  0.12446  1.0000
  C   C36       1.0  0.51790  0.54986  0.37554  1.0000
  C   C37       1.0  0.32256  0.26424  0.90716  1.0000
  C   C38       1.0  0.82256  0.73576  0.59284  1.0000
  C   C39       1.0  0.67744  0.73577  0.09284  1.0000
  C   C40       1.0  0.17744  0.26424  0.40716  1.0000
  C   C41       1.0  0.64791  0.26624  0.98716  1.0000
  C   C42       1.0  0.14791  0.73376  0.51284  1.0000
  C   C43       1.0  0.35209  0.73376  0.01284  1.0000
  C   C44       1.0  0.85209  0.26624  0.48716  1.0000
  C   C45       1.0  0.34337  0.20630  0.97940  1.0000
  C   C46       1.0  0.84337  0.79370  0.52060  1.0000
  C   C47       1.0  0.65663  0.79370  0.02060  1.0000
  C   C48       1.0  0.15663  0.20630  0.47940  1.0000
  C   C49       1.0  0.50704  0.20797  0.01935  1.0000
  C   C50       1.0  0.00704  0.79203  0.48065  1.0000
  C   C51       1.0  0.49296  0.79203  0.98065  1.0000
  C   C52       1.0  0.99296  0.20797  0.51935  1.0000
  C   C53       1.0  0.19485  0.14013  0.01195  1.0000
  C   C54       1.0  0.69485  0.85987  0.48805  1.0000
  C   C55       1.0  0.80515  0.85987  0.98805  1.0000
  C   C56       1.0  0.30515  0.14013  0.51195  1.0000
  N   N1        1.0  0.69001  0.18090  0.69166  1.0000
  N   N2        1.0  0.19001  0.81910  0.80834  1.0000
  N   N3        1.0  0.30999  0.81910  0.30834  1.0000
  N   N4        1.0  0.80999  0.18090  0.19166  1.0000
  N   N5        1.0  0.80914  0.09084  0.79302  1.0000
  N   N6        1.0  0.30913  0.90916  0.70698  1.0000
  N   N7        1.0  0.19087  0.90916  0.20698  1.0000
  N   N8        1.0  0.69087  0.09084  0.29302  1.0000
  N   N9        1.0  0.71847  0.00500  0.74234  1.0000
  N   N10       1.0  0.21847  0.99500  0.75766  1.0000
  N   N11       1.0  0.28154  0.99500  0.25765  1.0000
  N   N12       1.0  0.78154  0.00500  0.24234  1.0000
  N   N13       1.0  0.64846  0.06036  0.68249  1.0000
  N   N14       1.0  0.14846  0.93964  0.81751  1.0000
  N   N15       1.0  0.35154  0.93964  0.31751  1.0000
  N   N16       1.0  0.85154  0.06036  0.18249  1.0000
  O   O1        1.0  0.04366  0.14290  0.97708  1.0000
  O   O2        1.0  0.54366  0.85710  0.52292  1.0000
  O   O3        1.0  0.95634  0.85710  0.02292  1.0000
  O   O4        1.0  0.45634  0.14290  0.47708  1.0000
  O   O5        1.0  0.22512  0.08356  0.07495  1.0000
  O   O6        1.0  0.72512  0.91644  0.42505  1.0000
  O   O7        1.0  0.77488  0.91644  0.92505  1.0000
  O   O8        1.0  0.27488  0.08356  0.57495  1.0000
