data_image0
_chemical_formula_structural       Ag4H28C18N6O12
_chemical_formula_sum              "Ag4 H28 C18 N6 O12"
_cell_length_a       7.40099
_cell_length_b       8.73008
_cell_length_c       12.6607
_cell_angle_alpha    77.8305
_cell_angle_beta     76.9866
_cell_angle_gamma    58.2492

_space_group_name_H-M_alt    "P 1"
_space_group_IT_number       1

loop_
  _space_group_symop_operation_xyz
  'x, y, z'

loop_
  _atom_site_type_symbol
  _atom_site_label
  _atom_site_symmetry_multiplicity
  _atom_site_fract_x
  _atom_site_fract_y
  _atom_site_fract_z
  _atom_site_occupancy
  Ag  Ag1       1.0  0.79117  0.14878  0.26692  1.0000
  Ag  Ag2       1.0  0.20883  0.85121  0.73308  1.0000
  Ag  Ag3       1.0  0.73636  0.09337  0.76975  1.0000
  Ag  Ag4       1.0  0.26364  0.90663  0.23025  1.0000
  H   H1        1.0  0.80748  0.61299  0.55846  1.0000
  H   H2        1.0  0.19251  0.38702  0.44154  1.0000
  H   H3        1.0  0.75989  0.76178  0.71896  1.0000
  H   H4        1.0  0.24009  0.23821  0.28104  1.0000
  H   H5        1.0  0.73460  0.85156  0.28427  1.0000
  H   H6        1.0  0.26539  0.14843  0.71573  1.0000
  H   H7        1.0  0.00761  0.72534  0.30273  1.0000
  H   H8        1.0  0.99239  0.27465  0.69727  1.0000
  H   H9        1.0  0.83928  0.63242  0.35923  1.0000
  H   H10       1.0  0.16072  0.36758  0.64077  1.0000
  H   H11       1.0  0.33188  0.22340  0.02030  1.0000
  H   H12       1.0  0.66813  0.77661  0.97970  1.0000
  H   H13       1.0  0.36542  0.40363  0.94806  1.0000
  H   H14       1.0  0.63458  0.59639  0.05194  1.0000
  H   H15       1.0  0.02206  0.62354  0.05944  1.0000
  H   H16       1.0  0.97794  0.37647  0.94056  1.0000
  H   H17       1.0  0.63651  0.33661  0.43873  1.0000
  H   H18       1.0  0.36350  0.66338  0.56127  1.0000
  H   H19       1.0  0.63360  0.32875  0.57945  1.0000
  H   H20       1.0  0.36640  0.67124  0.42055  1.0000
  H   H21       1.0  0.74141  0.16711  0.97652  1.0000
  H   H22       1.0  0.25859  0.83290  0.02348  1.0000
  H   H23       1.0  0.76037  0.31057  0.87864  1.0000
  H   H24       1.0  0.23963  0.68943  0.12135  1.0000
  H   H25       1.0  0.43501  0.48297  0.27499  1.0000
  H   H26       1.0  0.56500  0.51704  0.72501  1.0000
  H   H27       1.0  0.62514  0.51510  0.28282  1.0000
  H   H28       1.0  0.37486  0.48490  0.71718  1.0000
  C   C1        1.0  0.72301  0.08930  0.52449  1.0000
  C   C2        1.0  0.27699  0.91069  0.47551  1.0000
  C   C3        1.0  0.79543  0.84117  0.44427  1.0000
  C   C4        1.0  0.20457  0.15882  0.55573  1.0000
  C   C5        1.0  0.78788  0.74748  0.54787  1.0000
  C   C6        1.0  0.21212  0.25251  0.45213  1.0000
  C   C7        1.0  0.75780  0.83092  0.63684  1.0000
  C   C8        1.0  0.24219  0.16908  0.36316  1.0000
  C   C9        1.0  0.84513  0.75779  0.34315  1.0000
  C   C10       1.0  0.15487  0.24220  0.65686  1.0000
  C   C11       1.0  0.42355  0.34494  0.11206  1.0000
  C   C12       1.0  0.57646  0.65506  0.88793  1.0000
  C   C13       1.0  0.29771  0.35998  0.02708  1.0000
  C   C14       1.0  0.70228  0.64004  0.97292  1.0000
  C   C15       1.0  0.05619  0.48892  0.04835  1.0000
  C   C16       1.0  0.94381  0.51108  0.95165  1.0000
  C   C17       1.0  0.94767  0.42309  0.14934  1.0000
  C   C18       1.0  0.05233  0.57692  0.85066  1.0000
  N   N1        1.0  0.72747  0.99900  0.62718  1.0000
  N   N2        1.0  0.27252  0.00100  0.37283  1.0000
  N   N3        1.0  0.68234  0.25945  0.51208  1.0000
  N   N4        1.0  0.31766  0.74054  0.48792  1.0000
  N   N5        1.0  0.76226  0.01060  0.43312  1.0000
  N   N6        1.0  0.23775  0.98939  0.56689  1.0000
  O   O1        1.0  0.80057  0.18049  0.89825  1.0000
  O   O2        1.0  0.19943  0.81951  0.10175  1.0000
  O   O3        1.0  0.61299  0.20901  0.11411  1.0000
  O   O4        1.0  0.38700  0.79101  0.88589  1.0000
  O   O5        1.0  0.49813  0.50413  0.32904  1.0000
  O   O6        1.0  0.50188  0.49587  0.67096  1.0000
  O   O7        1.0  0.33436  0.46859  0.17613  1.0000
  O   O8        1.0  0.66563  0.53142  0.82387  1.0000
  O   O9        1.0  0.80257  0.54108  0.21009  1.0000
  O   O10       1.0  0.19743  0.45892  0.78991  1.0000
  O   O11       1.0  0.00227  0.25563  0.16084  1.0000
  O   O12       1.0  0.99774  0.74437  0.83916  1.0000
