data_image0
_chemical_formula_structural       Ag4H60C44N18O8
_chemical_formula_sum              "Ag4 H60 C44 N18 O8"
_cell_length_a       7.58205
_cell_length_b       11.4937
_cell_length_c       15.1484
_cell_angle_alpha    74.4127
_cell_angle_beta     82.5665
_cell_angle_gamma    88.0376

_space_group_name_H-M_alt    "P 1"
_space_group_IT_number       1

loop_
  _space_group_symop_operation_xyz
  'x, y, z'

loop_
  _atom_site_type_symbol
  _atom_site_label
  _atom_site_symmetry_multiplicity
  _atom_site_fract_x
  _atom_site_fract_y
  _atom_site_fract_z
  _atom_site_occupancy
  Ag  Ag1       1.0  0.91168  0.63835  0.53130  1.0000
  Ag  Ag2       1.0  0.08830  0.36165  0.46870  1.0000
  Ag  Ag3       1.0  0.29997  0.18295  0.87736  1.0000
  Ag  Ag4       1.0  0.70004  0.81706  0.12264  1.0000
  H   H1        1.0  0.65236  0.07602  0.48007  1.0000
  H   H2        1.0  0.34765  0.92399  0.51993  1.0000
  H   H3        1.0  0.76383  0.81032  0.39732  1.0000
  H   H4        1.0  0.23617  0.18968  0.60268  1.0000
  H   H5        1.0  0.61652  0.93682  0.39037  1.0000
  H   H6        1.0  0.38347  0.06318  0.60963  1.0000
  H   H7        1.0  0.56196  0.79547  0.47163  1.0000
  H   H8        1.0  0.43805  0.20454  0.52837  1.0000
  H   H9        1.0  0.88682  0.17852  0.64827  1.0000
  H   H10       1.0  0.11318  0.82148  0.35174  1.0000
  H   H11       1.0  0.65678  0.14541  0.67122  1.0000
  H   H12       1.0  0.34323  0.85459  0.32878  1.0000
  H   H13       1.0  0.74839  0.22384  0.55785  1.0000
  H   H14       1.0  0.25162  0.77616  0.44215  1.0000
  H   H15       1.0  0.72400  0.82803  0.82681  1.0000
  H   H16       1.0  0.27598  0.17196  0.17319  1.0000
  H   H17       1.0  0.61048  0.04267  0.95484  1.0000
  H   H18       1.0  0.38952  0.95733  0.04516  1.0000
  H   H19       1.0  0.68685  0.12798  0.84187  1.0000
  H   H20       1.0  0.31315  0.87201  0.15813  1.0000
  H   H21       1.0  0.79534  0.98802  0.89183  1.0000
  H   H22       1.0  0.20466  0.01198  0.10817  1.0000
  H   H23       1.0  0.44275  0.69627  0.69262  1.0000
  H   H24       1.0  0.55722  0.30372  0.30738  1.0000
  H   H25       1.0  0.45957  0.62184  0.80997  1.0000
  H   H26       1.0  0.54042  0.37816  0.19004  1.0000
  H   H27       1.0  0.65171  0.68734  0.73760  1.0000
  H   H28       1.0  0.34826  0.31266  0.26241  1.0000
  H   H29       1.0  0.85296  0.33441  0.11965  1.0000
  H   H30       1.0  0.14705  0.66559  0.88035  1.0000
  H   H31       1.0  0.91605  0.21616  0.92025  1.0000
  H   H32       1.0  0.08396  0.78385  0.07975  1.0000
  H   H33       1.0  0.77601  0.20725  0.02578  1.0000
  H   H34       1.0  0.22399  0.79276  0.97422  1.0000
  H   H35       1.0  0.95232  0.10119  0.02092  1.0000
  H   H36       1.0  0.04769  0.89881  0.97908  1.0000
  H   H37       1.0  0.14008  0.57746  0.14762  1.0000
  H   H38       1.0  0.85994  0.42254  0.85238  1.0000
  H   H39       1.0  0.11180  0.44056  0.23471  1.0000
  H   H40       1.0  0.88822  0.55944  0.76529  1.0000
  H   H41       1.0  0.92555  0.50676  0.18173  1.0000
  H   H42       1.0  0.07447  0.49324  0.81827  1.0000
  H   H43       1.0  0.41170  0.37621  0.53846  1.0000
  H   H44       1.0  0.58830  0.62380  0.46154  1.0000
  H   H45       1.0  0.69802  0.40606  0.60552  1.0000
  H   H46       1.0  0.30197  0.59395  0.39447  1.0000
  H   H47       1.0  0.59078  0.52728  0.64043  1.0000
  H   H48       1.0  0.40920  0.47272  0.35956  1.0000
  H   H49       1.0  0.13516  0.80370  0.70955  1.0000
  H   H50       1.0  0.86484  0.19630  0.29045  1.0000
  H   H51       1.0  0.11743  0.70446  0.64170  1.0000
  H   H52       1.0  0.88256  0.29554  0.35830  1.0000
  H   H53       1.0  0.56545  0.44657  0.94932  1.0000
  H   H54       1.0  0.43456  0.55342  0.05068  1.0000
  H   H55       1.0  0.51351  0.34661  0.88606  1.0000
  H   H56       1.0  0.48649  0.65339  0.11394  1.0000
  H   H57       1.0  0.09205  0.10284  0.78688  1.0000
  H   H58       1.0  0.90796  0.89716  0.21312  1.0000
  H   H59       1.0  0.03497  0.99172  0.73533  1.0000
  H   H60       1.0  0.96503  0.00829  0.26467  1.0000
  C   C1        1.0  0.94256  0.84659  0.62473  1.0000
  C   C2        1.0  0.05743  0.15341  0.37527  1.0000
  C   C3        1.0  0.80730  0.03440  0.59562  1.0000
  C   C4        1.0  0.19270  0.96560  0.40438  1.0000
  C   C5        1.0  0.73029  0.00871  0.52379  1.0000
  C   C6        1.0  0.26972  0.99130  0.47621  1.0000
  C   C7        1.0  0.75778  0.89493  0.50867  1.0000
  C   C8        1.0  0.24222  0.10508  0.49132  1.0000
  C   C9        1.0  0.67152  0.85843  0.43730  1.0000
  C   C10       1.0  0.32848  0.14158  0.56270  1.0000
  C   C11       1.0  0.77426  0.15216  0.61914  1.0000
  C   C12       1.0  0.22574  0.84784  0.38086  1.0000
  C   C13       1.0  0.26877  0.96630  0.79462  1.0000
  C   C14       1.0  0.73123  0.03370  0.20538  1.0000
  C   C15       1.0  0.54311  0.97044  0.84673  1.0000
  C   C16       1.0  0.45688  0.02956  0.15327  1.0000
  C   C17       1.0  0.59212  0.86662  0.81894  1.0000
  C   C18       1.0  0.40787  0.13337  0.18106  1.0000
  C   C19       1.0  0.46868  0.81427  0.77992  1.0000
  C   C20       1.0  0.53130  0.18572  0.22008  1.0000
  C   C21       1.0  0.66746  0.03485  0.88612  1.0000
  C   C22       1.0  0.33254  0.96514  0.11388  1.0000
  C   C23       1.0  0.50803  0.69963  0.75244  1.0000
  C   C24       1.0  0.49194  0.30036  0.24757  1.0000
  C   C25       1.0  0.31938  0.36633  0.99019  1.0000
  C   C26       1.0  0.68062  0.63367  0.00981  1.0000
  C   C27       1.0  0.11168  0.42037  0.09873  1.0000
  C   C28       1.0  0.88833  0.57963  0.90127  1.0000
  C   C29       1.0  0.98696  0.34306  0.08310  1.0000
  C   C30       1.0  0.01305  0.65694  0.91690  1.0000
  C   C31       1.0  0.03834  0.27798  0.01869  1.0000
  C   C32       1.0  0.96166  0.72203  0.98130  1.0000
  C   C33       1.0  0.91280  0.19621  0.99557  1.0000
  C   C34       1.0  0.08720  0.80380  0.00442  1.0000
  C   C35       1.0  0.06878  0.49123  0.16844  1.0000
  C   C36       1.0  0.93124  0.50877  0.83156  1.0000
  C   C37       1.0  0.28159  0.53161  0.56795  1.0000
  C   C38       1.0  0.71840  0.46839  0.43205  1.0000
  C   C39       1.0  0.45079  0.46324  0.54691  1.0000
  C   C40       1.0  0.54920  0.53676  0.45309  1.0000
  C   C41       1.0  0.56638  0.44103  0.62519  1.0000
  C   C42       1.0  0.43361  0.55897  0.37480  1.0000
  C   C43       1.0  0.48631  0.35331  0.71513  1.0000
  C   C44       1.0  0.51371  0.64669  0.28487  1.0000
  N   N1        1.0  0.86177  0.81258  0.55974  1.0000
  N   N2        1.0  0.13822  0.18742  0.44027  1.0000
  N   N3        1.0  0.05683  0.76998  0.67105  1.0000
  N   N4        1.0  0.94316  0.23002  0.32895  1.0000
  N   N5        1.0  0.91203  0.95383  0.64572  1.0000
  N   N6        1.0  0.08796  0.04617  0.35428  1.0000
  N   N7        1.0  0.20517  0.28723  0.97350  1.0000
  N   N8        1.0  0.79484  0.71277  0.02649  1.0000
  N   N9        1.0  0.48368  0.37876  0.94413  1.0000
  N   N10       1.0  0.51632  0.62124  0.05586  1.0000
  N   N11       1.0  0.27524  0.43242  0.05174  1.0000
  N   N12       1.0  0.72477  0.56758  0.94826  1.0000
  N   N13       1.0  0.37933  0.01903  0.83641  1.0000
  N   N14       1.0  0.62068  0.98097  0.16359  1.0000
  N   N15       1.0  0.10715  0.01672  0.78133  1.0000
  N   N16       1.0  0.89286  0.98328  0.21867  1.0000
  N   N17       1.0  0.30845  0.86515  0.76699  1.0000
  N   N18       1.0  0.69155  0.13485  0.23301  1.0000
  O   O1        1.0  0.13320  0.49342  0.55295  1.0000
  O   O2        1.0  0.86678  0.50657  0.44705  1.0000
  O   O3        1.0  0.29502  0.62674  0.59294  1.0000
  O   O4        1.0  0.70498  0.37326  0.40705  1.0000
  O   O5        1.0  0.58719  0.31942  0.77886  1.0000
  O   O6        1.0  0.41282  0.68057  0.22114  1.0000
  O   O7        1.0  0.32652  0.31923  0.72127  1.0000
  O   O8        1.0  0.67349  0.68078  0.27873  1.0000
