data_image0
_chemical_formula_structural       Cd2H36C40N20Cl4
_chemical_formula_sum              "Cd2 H36 C40 N20 Cl4"
_cell_length_a       4.01464
_cell_length_b       14.8481
_cell_length_c       20.9197
_cell_angle_alpha    108.283
_cell_angle_beta     90.0198
_cell_angle_gamma    97.7666

_space_group_name_H-M_alt    "P 1"
_space_group_IT_number       1

loop_
  _space_group_symop_operation_xyz
  'x, y, z'

loop_
  _atom_site_type_symbol
  _atom_site_label
  _atom_site_symmetry_multiplicity
  _atom_site_fract_x
  _atom_site_fract_y
  _atom_site_fract_z
  _atom_site_occupancy
  Cd  Cd1       1.0  0.00000  0.00000  1.00000  1.0000
  Cd  Cd2       1.0  1.00000  0.00000  0.50000  1.0000
  H   H1        1.0  0.37610  0.22836  0.08467  1.0000
  H   H2        1.0  0.14820  0.77151  0.41525  1.0000
  H   H3        1.0  0.62390  0.77164  0.91533  1.0000
  H   H4        1.0  0.85180  0.22849  0.58474  1.0000
  H   H5        1.0  0.23101  0.39140  0.05743  1.0000
  H   H6        1.0  0.84051  0.60847  0.44254  1.0000
  H   H7        1.0  0.76898  0.60860  0.94257  1.0000
  H   H8        1.0  0.15949  0.39153  0.55747  1.0000
  H   H9        1.0  0.73154  0.13936  0.91109  1.0000
  H   H10       1.0  0.59289  0.86049  0.58877  1.0000
  H   H11       1.0  0.26846  0.86064  0.08891  1.0000
  H   H12       1.0  0.40712  0.13951  0.41123  1.0000
  H   H13       1.0  0.58332  0.29930  0.90906  1.0000
  H   H14       1.0  0.28425  0.70062  0.59071  1.0000
  H   H15       1.0  0.41667  0.70070  0.09094  1.0000
  H   H16       1.0  0.71576  0.29938  0.40929  1.0000
  H   H17       1.0  0.73570  0.40512  0.97806  1.0000
  H   H18       1.0  0.33112  0.59472  0.52176  1.0000
  H   H19       1.0  0.26429  0.59488  0.02193  1.0000
  H   H20       1.0  0.66887  0.40528  0.47824  1.0000
  H   H21       1.0  0.84442  0.18525  0.79767  1.0000
  H   H22       1.0  0.65773  0.81458  0.70235  1.0000
  H   H23       1.0  0.15555  0.81475  0.20233  1.0000
  H   H24       1.0  0.34226  0.18542  0.29766  1.0000
  H   H25       1.0  0.08359  0.15286  0.68418  1.0000
  H   H26       1.0  0.92961  0.84713  0.81584  1.0000
  H   H27       1.0  0.91640  0.84714  0.31582  1.0000
  H   H28       1.0  0.07039  0.15286  0.18417  1.0000
  H   H29       1.0  0.46309  0.27619  0.65459  1.0000
  H   H30       1.0  0.18699  0.72403  0.84549  1.0000
  H   H31       1.0  0.53693  0.72380  0.34541  1.0000
  H   H32       1.0  0.81301  0.27596  0.15451  1.0000
  H   H33       1.0  0.63232  0.43947  0.73690  1.0000
  H   H34       1.0  0.19323  0.56068  0.76327  1.0000
  H   H35       1.0  0.36770  0.56053  0.26310  1.0000
  H   H36       1.0  0.80676  0.43931  0.23673  1.0000
  C   C1        1.0  0.22432  0.23520  0.04403  1.0000
  C   C2        1.0  0.98954  0.76465  0.45585  1.0000
  C   C3        1.0  0.77569  0.76480  0.95596  1.0000
  C   C4        1.0  0.01047  0.23535  0.54415  1.0000
  C   C5        1.0  0.15654  0.31585  0.03073  1.0000
  C   C6        1.0  0.84150  0.68402  0.46922  1.0000
  C   C7        1.0  0.84347  0.68415  0.96927  1.0000
  C   C8        1.0  0.15850  0.31598  0.53078  1.0000
  C   C9        1.0  0.89663  0.18520  0.95321  1.0000
  C   C10       1.0  0.71217  0.81465  0.54668  1.0000
  C   C11       1.0  0.10339  0.81480  0.04678  1.0000
  C   C12       1.0  0.28783  0.18535  0.45332  1.0000
  C   C13       1.0  0.80581  0.34214  0.93953  1.0000
  C   C14       1.0  0.46401  0.65772  0.56033  1.0000
  C   C15       1.0  0.19419  0.65786  0.06047  1.0000
  C   C16       1.0  0.53600  0.34228  0.43967  1.0000
  C   C17       1.0  0.11207  0.33211  0.83125  1.0000
  C   C18       1.0  0.77953  0.66782  0.66880  1.0000
  C   C19       1.0  0.88792  0.66790  0.16875  1.0000
  C   C20       1.0  0.22046  0.33217  0.33121  1.0000
  C   C21       1.0  0.01724  0.24013  0.78552  1.0000
  C   C22       1.0  0.77645  0.75980  0.71447  1.0000
  C   C23       1.0  0.98274  0.75987  0.21447  1.0000
  C   C24       1.0  0.22355  0.24019  0.28553  1.0000
  C   C25       1.0  0.15025  0.22284  0.72220  1.0000
  C   C26       1.0  0.92657  0.77715  0.77784  1.0000
  C   C27       1.0  0.84976  0.77715  0.27780  1.0000
  C   C28       1.0  0.07344  0.22285  0.22216  1.0000
  C   C29       1.0  0.36788  0.29423  0.70506  1.0000
  C   C30       1.0  0.07344  0.70588  0.79502  1.0000
  C   C31       1.0  0.63213  0.70577  0.29495  1.0000
  C   C32       1.0  0.92657  0.29412  0.20498  1.0000
  C   C33       1.0  0.46251  0.38513  0.75025  1.0000
  C   C34       1.0  0.07781  0.61499  0.74985  1.0000
  C   C35       1.0  0.53750  0.61486  0.24974  1.0000
  C   C36       1.0  0.92219  0.38501  0.25015  1.0000
  C   C37       1.0  0.33186  0.40363  0.81462  1.0000
  C   C38       1.0  0.92804  0.59636  0.68548  1.0000
  C   C39       1.0  0.66815  0.59637  0.18538  1.0000
  C   C40       1.0  0.07194  0.40364  0.31452  1.0000
  N   N1        1.0  0.06013  0.15498  0.99576  1.0000
  N   N2        1.0  0.90565  0.84488  0.50413  1.0000
  N   N3        1.0  0.93989  0.84502  0.00423  1.0000
  N   N4        1.0  0.09436  0.15512  0.49587  1.0000
  N   N5        1.0  0.95063  0.28295  0.97246  1.0000
  N   N6        1.0  0.66852  0.71691  0.52748  1.0000
  N   N7        1.0  0.04936  0.71705  0.02754  1.0000
  N   N8        1.0  0.33149  0.28310  0.47253  1.0000
  N   N9        1.0  0.03366  0.37702  0.89628  1.0000
  N   N10       1.0  0.65645  0.62289  0.60374  1.0000
  N   N11       1.0  0.96631  0.62299  0.10372  1.0000
  N   N12       1.0  0.34354  0.37711  0.39626  1.0000
  N   N13       1.0  0.19620  0.46927  0.91820  1.0000
  N   N14       1.0  0.72720  0.53068  0.58186  1.0000
  N   N15       1.0  0.80379  0.53073  0.08180  1.0000
  N   N16       1.0  0.27280  0.46933  0.41814  1.0000
  N   N17       1.0  0.37435  0.48555  0.87000  1.0000
  N   N18       1.0  0.88886  0.51442  0.63012  1.0000
  N   N19       1.0  0.62565  0.51445  0.13000  1.0000
  N   N20       1.0  0.11113  0.48558  0.36988  1.0000
  Cl  Cl1       1.0  0.48535  0.95401  0.90779  1.0000
  Cl  Cl2       1.0  0.53162  0.04599  0.59220  1.0000
  Cl  Cl3       1.0  0.51466  0.04600  0.09221  1.0000
  Cl  Cl4       1.0  0.46837  0.95401  0.40780  1.0000
