data_image0
_chemical_formula_structural       Cd2H36C44S4N24
_chemical_formula_sum              "Cd2 H36 C44 S4 N24"
_cell_length_a       9.66188
_cell_length_b       9.66188
_cell_length_c       13.9242
_cell_angle_alpha    94.6188
_cell_angle_beta     94.6187
_cell_angle_gamma    99.3252

_space_group_name_H-M_alt    "P 1"
_space_group_IT_number       1

loop_
  _space_group_symop_operation_xyz
  'x, y, z'

loop_
  _atom_site_type_symbol
  _atom_site_label
  _atom_site_symmetry_multiplicity
  _atom_site_fract_x
  _atom_site_fract_y
  _atom_site_fract_z
  _atom_site_occupancy
  Cd  Cd1       1.0  0.49999  1.00000  1.00000  1.0000
  Cd  Cd2       1.0  0.00000  0.50000  0.50000  1.0000
  H   H1        1.0  0.73016  0.27991  0.59658  1.0000
  H   H2        1.0  0.72009  0.26984  0.90342  1.0000
  H   H3        1.0  0.26983  0.72009  0.40342  1.0000
  H   H4        1.0  0.27991  0.73017  0.09658  1.0000
  H   H5        1.0  0.48929  0.18466  0.64157  1.0000
  H   H6        1.0  0.81533  0.51071  0.85842  1.0000
  H   H7        1.0  0.51071  0.81533  0.35842  1.0000
  H   H8        1.0  0.18467  0.48929  0.14157  1.0000
  H   H9        1.0  0.31037  0.33710  0.65788  1.0000
  H   H10       1.0  0.66290  0.68962  0.84212  1.0000
  H   H11       1.0  0.68962  0.66290  0.34212  1.0000
  H   H12       1.0  0.33710  0.31038  0.15788  1.0000
  H   H13       1.0  0.36253  0.59364  0.63807  1.0000
  H   H14       1.0  0.40636  0.63746  0.86193  1.0000
  H   H15       1.0  0.63747  0.40636  0.36193  1.0000
  H   H16       1.0  0.59364  0.36254  0.13807  1.0000
  H   H17       1.0  0.49358  0.84086  0.59113  1.0000
  H   H18       1.0  0.15913  0.50642  0.90887  1.0000
  H   H19       1.0  0.50643  0.15914  0.40887  1.0000
  H   H20       1.0  0.84087  0.49358  0.09113  1.0000
  H   H21       1.0  0.66444  0.91726  0.56066  1.0000
  H   H22       1.0  0.08274  0.33556  0.93934  1.0000
  H   H23       1.0  0.33556  0.08274  0.43934  1.0000
  H   H24       1.0  0.91727  0.66444  0.06066  1.0000
  H   H25       1.0  0.86956  0.91953  0.71956  1.0000
  H   H26       1.0  0.08047  0.13044  0.78044  1.0000
  H   H27       1.0  0.13044  0.08047  0.28044  1.0000
  H   H28       1.0  0.91953  0.86956  0.21957  1.0000
  H   H29       1.0  0.84071  0.00053  0.91294  1.0000
  H   H30       1.0  0.99947  0.15929  0.58706  1.0000
  H   H31       1.0  0.15929  0.99947  0.08706  1.0000
  H   H32       1.0  0.00053  0.84071  0.41294  1.0000
  H   H33       1.0  0.43683  0.90845  0.75858  1.0000
  H   H34       1.0  0.09154  0.56317  0.74142  1.0000
  H   H35       1.0  0.56318  0.09155  0.24142  1.0000
  H   H36       1.0  0.90845  0.43682  0.25858  1.0000
  C   C1        1.0  0.68132  0.49189  0.59543  1.0000
  C   C2        1.0  0.50811  0.31868  0.90457  1.0000
  C   C3        1.0  0.31868  0.50811  0.40457  1.0000
  C   C4        1.0  0.49189  0.68132  0.09543  1.0000
  C   C5        1.0  0.65161  0.34733  0.60683  1.0000
  C   C6        1.0  0.65268  0.34839  0.89317  1.0000
  C   C7        1.0  0.34839  0.65268  0.39317  1.0000
  C   C8        1.0  0.34733  0.65161  0.10683  1.0000
  C   C9        1.0  0.51787  0.29607  0.63125  1.0000
  C   C10       1.0  0.70393  0.48213  0.86875  1.0000
  C   C11       1.0  0.48213  0.70393  0.36875  1.0000
  C   C12       1.0  0.29607  0.51787  0.13125  1.0000
  C   C13       1.0  0.41529  0.38420  0.64188  1.0000
  C   C14       1.0  0.61579  0.58471  0.85812  1.0000
  C   C15       1.0  0.58470  0.61580  0.35812  1.0000
  C   C16       1.0  0.38421  0.41529  0.14188  1.0000
  C   C17       1.0  0.44325  0.52747  0.63129  1.0000
  C   C18       1.0  0.47253  0.55675  0.86871  1.0000
  C   C19       1.0  0.55675  0.47253  0.36871  1.0000
  C   C20       1.0  0.52748  0.44325  0.13128  1.0000
  C   C21       1.0  0.57966  0.57979  0.60922  1.0000
  C   C22       1.0  0.42021  0.42034  0.89078  1.0000
  C   C23       1.0  0.42034  0.42021  0.39078  1.0000
  C   C24       1.0  0.57979  0.57966  0.10922  1.0000
  C   C25       1.0  0.60744  0.84787  0.60871  1.0000
  C   C26       1.0  0.15213  0.39256  0.89129  1.0000
  C   C27       1.0  0.39256  0.15214  0.39129  1.0000
  C   C28       1.0  0.84787  0.60744  0.10871  1.0000
  C   C29       1.0  0.77792  0.93333  0.75692  1.0000
  C   C30       1.0  0.06667  0.22207  0.74308  1.0000
  C   C31       1.0  0.22208  0.06667  0.24309  1.0000
  C   C32       1.0  0.93333  0.77792  0.25692  1.0000
  C   C33       1.0  0.76125  0.97193  0.85186  1.0000
  C   C34       1.0  0.02807  0.23875  0.64814  1.0000
  C   C35       1.0  0.23875  0.02807  0.14814  1.0000
  C   C36       1.0  0.97193  0.76124  0.35186  1.0000
  C   C37       1.0  0.55028  0.92381  0.77598  1.0000
  C   C38       1.0  0.07618  0.44971  0.72402  1.0000
  C   C39       1.0  0.44972  0.07619  0.22402  1.0000
  C   C40       1.0  0.92382  0.55028  0.27598  1.0000
  C   C41       1.0  0.18700  0.80761  0.91020  1.0000
  C   C42       1.0  0.19239  0.81300  0.58980  1.0000
  C   C43       1.0  0.81299  0.19239  0.08980  1.0000
  C   C44       1.0  0.80761  0.18700  0.41020  1.0000
  S   S1        1.0  0.01967  0.74620  0.90070  1.0000
  S   S2        1.0  0.25380  0.98033  0.59929  1.0000
  S   S3        1.0  0.98033  0.25381  0.09929  1.0000
  S   S4        1.0  0.74620  0.01967  0.40071  1.0000
  N   N1        1.0  0.61939  0.96590  0.86242  1.0000
  N   N2        1.0  0.03409  0.38060  0.63758  1.0000
  N   N3        1.0  0.38061  0.03410  0.13758  1.0000
  N   N4        1.0  0.96590  0.61939  0.36242  1.0000
  N   N5        1.0  0.64317  0.90364  0.70956  1.0000
  N   N6        1.0  0.09635  0.35682  0.79044  1.0000
  N   N7        1.0  0.35683  0.09636  0.29044  1.0000
  N   N8        1.0  0.90364  0.64317  0.20956  1.0000
  N   N9        1.0  0.64773  0.71063  0.59230  1.0000
  N   N10       1.0  0.28937  0.35227  0.90770  1.0000
  N   N11       1.0  0.35227  0.28938  0.40770  1.0000
  N   N12       1.0  0.71063  0.64774  0.09231  1.0000
  N   N13       1.0  0.78093  0.70460  0.56973  1.0000
  N   N14       1.0  0.29540  0.21907  0.93027  1.0000
  N   N15       1.0  0.21907  0.29540  0.43028  1.0000
  N   N16       1.0  0.70460  0.78093  0.06973  1.0000
  N   N17       1.0  0.80098  0.57466  0.57076  1.0000
  N   N18       1.0  0.42534  0.19902  0.92924  1.0000
  N   N19       1.0  0.19902  0.42534  0.42924  1.0000
  N   N20       1.0  0.57466  0.80098  0.07076  1.0000
  N   N21       1.0  0.31020  0.85060  0.91632  1.0000
  N   N22       1.0  0.14939  0.68980  0.58368  1.0000
  N   N23       1.0  0.68981  0.14940  0.08368  1.0000
  N   N24       1.0  0.85060  0.31020  0.41632  1.0000
