data_image0
_chemical_formula_structural       H36Au12C36N24
_chemical_formula_sum              "H36 Au12 C36 N24"
_cell_length_a       8.24561
_cell_length_b       10.9402
_cell_length_c       14.2404
_cell_angle_alpha    90
_cell_angle_beta     90.0002
_cell_angle_gamma    107.142

_space_group_name_H-M_alt    "P 1"
_space_group_IT_number       1

loop_
  _space_group_symop_operation_xyz
  'x, y, z'

loop_
  _atom_site_type_symbol
  _atom_site_label
  _atom_site_symmetry_multiplicity
  _atom_site_fract_x
  _atom_site_fract_y
  _atom_site_fract_z
  _atom_site_occupancy
  H   H1        1.0  0.00505  0.42867  0.26522  1.0000
  H   H2        1.0  0.99495  0.07133  0.76521  1.0000
  H   H3        1.0  0.99495  0.57133  0.73479  1.0000
  H   H4        1.0  0.00505  0.92867  0.23479  1.0000
  H   H5        1.0  0.13450  0.63095  0.14498  1.0000
  H   H6        1.0  0.86550  0.86905  0.64498  1.0000
  H   H7        1.0  0.86550  0.36905  0.85502  1.0000
  H   H8        1.0  0.13450  0.13095  0.35502  1.0000
  H   H9        1.0  0.88497  0.75412  0.14195  1.0000
  H   H10       1.0  0.11503  0.74588  0.64195  1.0000
  H   H11       1.0  0.11503  0.24588  0.85805  1.0000
  H   H12       1.0  0.88498  0.25412  0.35805  1.0000
  H   H13       1.0  0.38873  0.89212  0.28041  1.0000
  H   H14       1.0  0.61127  0.60789  0.78041  1.0000
  H   H15       1.0  0.61127  0.10788  0.71959  1.0000
  H   H16       1.0  0.38873  0.39211  0.21959  1.0000
  H   H17       1.0  0.12362  0.88807  0.39855  1.0000
  H   H18       1.0  0.87638  0.61193  0.89855  1.0000
  H   H19       1.0  0.87638  0.11193  0.60145  1.0000
  H   H20       1.0  0.12362  0.38807  0.10145  1.0000
  H   H21       1.0  0.04863  0.64923  0.48324  1.0000
  H   H22       1.0  0.95138  0.85078  0.98324  1.0000
  H   H23       1.0  0.95137  0.35078  0.51676  1.0000
  H   H24       1.0  0.04863  0.14922  0.01676  1.0000
  H   H25       1.0  0.12687  0.21367  0.57420  1.0000
  H   H26       1.0  0.87313  0.28633  0.07420  1.0000
  H   H27       1.0  0.87313  0.78633  0.42580  1.0000
  H   H28       1.0  0.12687  0.71367  0.92580  1.0000
  H   H29       1.0  0.25542  0.00915  0.56364  1.0000
  H   H30       1.0  0.74457  0.49085  0.06364  1.0000
  H   H31       1.0  0.74457  0.99085  0.43636  1.0000
  H   H32       1.0  0.25543  0.50915  0.93636  1.0000
  H   H33       1.0  0.52651  0.09301  0.44055  1.0000
  H   H34       1.0  0.47348  0.40698  0.94055  1.0000
  H   H35       1.0  0.47349  0.90699  0.55945  1.0000
  H   H36       1.0  0.52652  0.59302  0.05944  1.0000
  Au  Au1       1.0  0.62653  0.38417  0.35788  1.0000
  Au  Au2       1.0  0.37347  0.11583  0.85788  1.0000
  Au  Au3       1.0  0.37347  0.61583  0.64212  1.0000
  Au  Au4       1.0  0.62653  0.88417  0.14212  1.0000
  Au  Au5       1.0  0.55734  0.65801  0.28243  1.0000
  Au  Au6       1.0  0.44266  0.84199  0.78243  1.0000
  Au  Au7       1.0  0.44266  0.34199  0.71757  1.0000
  Au  Au8       1.0  0.55734  0.15801  0.21757  1.0000
  Au  Au9       1.0  0.28845  0.46594  0.44162  1.0000
  Au  Au10      1.0  0.71156  0.03407  0.94162  1.0000
  Au  Au11      1.0  0.71155  0.53406  0.55838  1.0000
  Au  Au12      1.0  0.28845  0.96594  0.05838  1.0000
  C   C1        1.0  0.95111  0.50326  0.24331  1.0000
  C   C2        1.0  0.04889  0.99673  0.74331  1.0000
  C   C3        1.0  0.04889  0.49673  0.75669  1.0000
  C   C4        1.0  0.95111  0.00327  0.25669  1.0000
  C   C5        1.0  0.01489  0.60609  0.18231  1.0000
  C   C6        1.0  0.98511  0.89390  0.68231  1.0000
  C   C7        1.0  0.98511  0.39391  0.81769  1.0000
  C   C8        1.0  0.01489  0.10609  0.31769  1.0000
  C   C9        1.0  0.89143  0.67026  0.18072  1.0000
  C   C10       1.0  0.10857  0.82974  0.68072  1.0000
  C   C11       1.0  0.10857  0.32974  0.81928  1.0000
  C   C12       1.0  0.89143  0.17027  0.31928  1.0000
  C   C13       1.0  0.31844  0.81737  0.32782  1.0000
  C   C14       1.0  0.68156  0.68263  0.82782  1.0000
  C   C15       1.0  0.68156  0.18263  0.67218  1.0000
  C   C16       1.0  0.31844  0.31737  0.17218  1.0000
  C   C17       1.0  0.18301  0.81315  0.38776  1.0000
  C   C18       1.0  0.81699  0.68686  0.88776  1.0000
  C   C19       1.0  0.81698  0.18685  0.61224  1.0000
  C   C20       1.0  0.18301  0.31315  0.11224  1.0000
  C   C21       1.0  0.14541  0.69400  0.43183  1.0000
  C   C22       1.0  0.85459  0.80600  0.93183  1.0000
  C   C23       1.0  0.85458  0.30600  0.56817  1.0000
  C   C24       1.0  0.14541  0.19400  0.06817  1.0000
  C   C25       1.0  0.23254  0.20252  0.53368  1.0000
  C   C26       1.0  0.76745  0.29748  0.03369  1.0000
  C   C27       1.0  0.76746  0.79748  0.46632  1.0000
  C   C28       1.0  0.23254  0.70252  0.96632  1.0000
  C   C29       1.0  0.30022  0.09995  0.52750  1.0000
  C   C30       1.0  0.69978  0.40005  0.02750  1.0000
  C   C31       1.0  0.69978  0.90005  0.47250  1.0000
  C   C32       1.0  0.30022  0.59995  0.97250  1.0000
  C   C33       1.0  0.43739  0.14093  0.46595  1.0000
  C   C34       1.0  0.56261  0.35907  0.96595  1.0000
  C   C35       1.0  0.56261  0.85907  0.53405  1.0000
  C   C36       1.0  0.43739  0.64093  0.03405  1.0000
  N   N1        1.0  0.79877  0.50636  0.27633  1.0000
  N   N2        1.0  0.20124  0.99364  0.77633  1.0000
  N   N3        1.0  0.20124  0.49364  0.72367  1.0000
  N   N4        1.0  0.79877  0.00636  0.22367  1.0000
  N   N5        1.0  0.76169  0.60934  0.23790  1.0000
  N   N6        1.0  0.23832  0.89066  0.73790  1.0000
  N   N7        1.0  0.23832  0.39066  0.76210  1.0000
  N   N8        1.0  0.76169  0.10934  0.26210  1.0000
  N   N9        1.0  0.35942  0.70713  0.33577  1.0000
  N   N10       1.0  0.64058  0.79288  0.83577  1.0000
  N   N11       1.0  0.64057  0.29288  0.66423  1.0000
  N   N12       1.0  0.35943  0.20712  0.16423  1.0000
  N   N13       1.0  0.25302  0.63123  0.39994  1.0000
  N   N14       1.0  0.74698  0.86877  0.89994  1.0000
  N   N15       1.0  0.74697  0.36877  0.60006  1.0000
  N   N16       1.0  0.25303  0.13123  0.10006  1.0000
  N   N17       1.0  0.32323  0.29864  0.47818  1.0000
  N   N18       1.0  0.67676  0.20136  0.97818  1.0000
  N   N19       1.0  0.67676  0.70136  0.52182  1.0000
  N   N20       1.0  0.32324  0.79864  0.02182  1.0000
  N   N21       1.0  0.45010  0.26098  0.43712  1.0000
  N   N22       1.0  0.54990  0.23902  0.93712  1.0000
  N   N23       1.0  0.54990  0.73902  0.56288  1.0000
  N   N24       1.0  0.45010  0.76098  0.06288  1.0000
