data_image0
_chemical_formula_structural       Cu2H20C32N2Cl4O8
_chemical_formula_sum              "Cu2 H20 C32 N2 Cl4 O8"
_cell_length_a       9.56511
_cell_length_b       9.56562
_cell_length_c       11.5781
_cell_angle_alpha    95.3374
_cell_angle_beta     109.741
_cell_angle_gamma    118.602

_space_group_name_H-M_alt    "P 1"
_space_group_IT_number       1

loop_
  _space_group_symop_operation_xyz
  'x, y, z'

loop_
  _atom_site_type_symbol
  _atom_site_label
  _atom_site_symmetry_multiplicity
  _atom_site_fract_x
  _atom_site_fract_y
  _atom_site_fract_z
  _atom_site_occupancy
  Cu  Cu1       1.0  0.63419  0.63420  0.99999  1.0000
  Cu  Cu2       1.0  0.36588  0.36587  0.00001  1.0000
  H   H1        1.0  0.00942  0.83356  0.40250  1.0000
  H   H2        1.0  0.43089  0.60670  0.59748  1.0000
  H   H3        1.0  0.99058  0.16644  0.59751  1.0000
  H   H4        1.0  0.56910  0.39330  0.40252  1.0000
  H   H5        1.0  0.19958  0.86848  0.62610  1.0000
  H   H6        1.0  0.24215  0.57320  0.37393  1.0000
  H   H7        1.0  0.80042  0.13151  0.37390  1.0000
  H   H8        1.0  0.75784  0.42680  0.62607  1.0000
  H   H9        1.0  0.55303  0.01263  0.12552  1.0000
  H   H10       1.0  0.88712  0.42756  0.87454  1.0000
  H   H11       1.0  0.44696  0.98737  0.87448  1.0000
  H   H12       1.0  0.11287  0.57244  0.12547  1.0000
  H   H13       1.0  0.49739  0.19234  0.24747  1.0000
  H   H14       1.0  0.94492  0.25000  0.75256  1.0000
  H   H15       1.0  0.50261  0.80766  0.75253  1.0000
  H   H16       1.0  0.05509  0.75000  0.24744  1.0000
  H   H17       1.0  0.83566  0.01908  0.11473  1.0000
  H   H18       1.0  0.90446  0.72095  0.88531  1.0000
  H   H19       1.0  0.16435  0.98092  0.88527  1.0000
  H   H20       1.0  0.09555  0.27906  0.11469  1.0000
  C   C1        1.0  0.67451  0.57031  0.24475  1.0000
  C   C2        1.0  0.32548  0.42968  0.75524  1.0000
  C   C3        1.0  0.77977  0.60600  0.38556  1.0000
  C   C4        1.0  0.22022  0.39399  0.61444  1.0000
  C   C5        1.0  0.95542  0.74338  0.45086  1.0000
  C   C6        1.0  0.29233  0.50428  0.54913  1.0000
  C   C7        1.0  0.04457  0.25661  0.54914  1.0000
  C   C8        1.0  0.70767  0.49571  0.45087  1.0000
  C   C9        1.0  0.06185  0.76404  0.57620  1.0000
  C   C10       1.0  0.18759  0.48533  0.42380  1.0000
  C   C11       1.0  0.93815  0.23595  0.42380  1.0000
  C   C12       1.0  0.81240  0.51466  0.57620  1.0000
  C   C13       1.0  0.99032  0.64623  0.63625  1.0000
  C   C14       1.0  0.00968  0.35376  0.36375  1.0000
  C   C15       1.0  0.38660  0.67472  0.06118  1.0000
  C   C16       1.0  0.61339  0.32527  0.93882  1.0000
  C   C17       1.0  0.34026  0.78131  0.12156  1.0000
  C   C18       1.0  0.65973  0.21869  0.87844  1.0000
  C   C19       1.0  0.44607  0.95593  0.15424  1.0000
  C   C20       1.0  0.80169  0.29186  0.84578  1.0000
  C   C21       1.0  0.55392  0.04407  0.84575  1.0000
  C   C22       1.0  0.19831  0.70814  0.15422  1.0000
  C   C23       1.0  0.41678  0.05694  0.22425  1.0000
  C   C24       1.0  0.83274  0.19261  0.77577  1.0000
  C   C25       1.0  0.58322  0.94305  0.77575  1.0000
  C   C26       1.0  0.16726  0.80739  0.22423  1.0000
  C   C27       1.0  0.28027  0.98141  0.26172  1.0000
  C   C28       1.0  0.71973  0.01859  0.73828  1.0000
  C   C29       1.0  0.90988  0.01116  0.06368  1.0000
  C   C30       1.0  0.94758  0.84622  0.93638  1.0000
  C   C31       1.0  0.09013  0.98885  0.93632  1.0000
  C   C32       1.0  0.05243  0.15379  0.06362  1.0000
  N   N1        1.0  0.85756  0.85749  0.00003  1.0000
  N   N2        1.0  0.14245  0.14252  0.99997  1.0000
  Cl  Cl1       1.0  0.12564  0.66254  0.78801  1.0000
  Cl  Cl2       1.0  0.87436  0.33746  0.21199  1.0000
  Cl  Cl3       1.0  0.25038  0.10656  0.35698  1.0000
  Cl  Cl4       1.0  0.74962  0.89344  0.64302  1.0000
  O   O1        1.0  0.75221  0.67171  0.19052  1.0000
  O   O2        1.0  0.48112  0.56167  0.80944  1.0000
  O   O3        1.0  0.24780  0.32831  0.80951  1.0000
  O   O4        1.0  0.51888  0.43831  0.19053  1.0000
  O   O5        1.0  0.52307  0.75116  0.04045  1.0000
  O   O6        1.0  0.71056  0.48247  0.95962  1.0000
  O   O7        1.0  0.47690  0.24886  0.95953  1.0000
  O   O8        1.0  0.28948  0.51752  0.04040  1.0000
