data_image0
_chemical_formula_structural       Ba2H16C18S2N8O14
_chemical_formula_sum              "Ba2 H16 C18 S2 N8 O14"
_cell_length_a       6.80934
_cell_length_b       7.31072
_cell_length_c       14.9266
_cell_angle_alpha    86.2636
_cell_angle_beta     87.3356
_cell_angle_gamma    63.9117

_space_group_name_H-M_alt    "P 1"
_space_group_IT_number       1

loop_
  _space_group_symop_operation_xyz
  'x, y, z'

loop_
  _atom_site_type_symbol
  _atom_site_label
  _atom_site_symmetry_multiplicity
  _atom_site_fract_x
  _atom_site_fract_y
  _atom_site_fract_z
  _atom_site_occupancy
  Ba  Ba1       1.0  0.68836  0.67985  0.56428  1.0000
  Ba  Ba2       1.0  0.31164  0.32015  0.43571  1.0000
  H   H1        1.0  0.61218  0.85502  0.35579  1.0000
  H   H2        1.0  0.38782  0.14498  0.64421  1.0000
  H   H3        1.0  0.78500  0.91861  0.38985  1.0000
  H   H4        1.0  0.21500  0.08138  0.61015  1.0000
  H   H5        1.0  0.60599  0.84119  0.95193  1.0000
  H   H6        1.0  0.39401  0.15882  0.04807  1.0000
  H   H7        1.0  0.50669  0.78823  0.79711  1.0000
  H   H8        1.0  0.49331  0.21178  0.20290  1.0000
  H   H9        1.0  0.35677  0.66294  0.95317  1.0000
  H   H10       1.0  0.64323  0.33705  0.04682  1.0000
  H   H11       1.0  0.48643  0.69687  0.10535  1.0000
  H   H12       1.0  0.51356  0.30314  0.89465  1.0000
  H   H13       1.0  0.21154  0.80503  0.23195  1.0000
  H   H14       1.0  0.78845  0.19498  0.76805  1.0000
  H   H15       1.0  0.82530  0.87577  0.20373  1.0000
  H   H16       1.0  0.17469  0.12425  0.79627  1.0000
  C   C1        1.0  0.02971  0.64012  0.76848  1.0000
  C   C2        1.0  0.97030  0.35987  0.23152  1.0000
  C   C3        1.0  0.94909  0.73067  0.91360  1.0000
  C   C4        1.0  0.05092  0.26932  0.08640  1.0000
  C   C5        1.0  0.72859  0.78143  0.89868  1.0000
  C   C6        1.0  0.27141  0.21858  0.10133  1.0000
  C   C7        1.0  0.67407  0.75491  0.81367  1.0000
  C   C8        1.0  0.32594  0.24509  0.18633  1.0000
  C   C9        1.0  0.02679  0.75194  0.00144  1.0000
  C   C10       1.0  0.97322  0.24806  0.99856  1.0000
  C   C11       1.0  0.24647  0.71016  0.01116  1.0000
  C   C12       1.0  0.75352  0.28984  0.98884  1.0000
  C   C13       1.0  0.31656  0.72902  0.09471  1.0000
  C   C14       1.0  0.68346  0.27098  0.90529  1.0000
  C   C15       1.0  0.16389  0.78971  0.16535  1.0000
  C   C16       1.0  0.83610  0.21030  0.83466  1.0000
  C   C17       1.0  0.94755  0.82965  0.14935  1.0000
  C   C18       1.0  0.05246  0.17035  0.85065  1.0000
  S   S1        1.0  0.24465  0.52914  0.68381  1.0000
  S   S2        1.0  0.75535  0.47086  0.31619  1.0000
  N   N1        1.0  0.82514  0.68398  0.74677  1.0000
  N   N2        1.0  0.17484  0.31603  0.25323  1.0000
  N   N3        1.0  0.10036  0.65892  0.84698  1.0000
  N   N4        1.0  0.89963  0.34108  0.15303  1.0000
  N   N5        1.0  0.87783  0.81170  0.06943  1.0000
  N   N6        1.0  0.12216  0.18831  0.93058  1.0000
  N   N7        1.0  0.19197  0.82915  0.42010  1.0000
  N   N8        1.0  0.80804  0.17083  0.57989  1.0000
  O   O1        1.0  0.13154  0.53499  0.60075  1.0000
  O   O2        1.0  0.86845  0.46501  0.39924  1.0000
  O   O3        1.0  0.37736  0.31954  0.71931  1.0000
  O   O4        1.0  0.62263  0.68045  0.28069  1.0000
  O   O5        1.0  0.36246  0.65549  0.67769  1.0000
  O   O6        1.0  0.63754  0.34451  0.32231  1.0000
  O   O7        1.0  0.36217  0.69635  0.45824  1.0000
  O   O8        1.0  0.63783  0.30363  0.54175  1.0000
  O   O9        1.0  0.06788  0.76530  0.38463  1.0000
  O   O10       1.0  0.93212  0.23470  0.61536  1.0000
  O   O11       1.0  0.14618  0.01475  0.41648  1.0000
  O   O12       1.0  0.85383  0.98524  0.58351  1.0000
  O   O13       1.0  0.63145  0.94068  0.40051  1.0000
  O   O14       1.0  0.36855  0.05931  0.59948  1.0000
