data_image0
_chemical_formula_structural       Co2P2H12C12N2O6
_chemical_formula_sum              "Co2 P2 H12 C12 N2 O6"
_cell_length_a       5.06191
_cell_length_b       8.42924
_cell_length_c       8.6826
_cell_angle_alpha    75.2069
_cell_angle_beta     86.1006
_cell_angle_gamma    86.4646

_space_group_name_H-M_alt    "P 1"
_space_group_IT_number       1

loop_
  _space_group_symop_operation_xyz
  'x, y, z'

loop_
  _atom_site_type_symbol
  _atom_site_label
  _atom_site_symmetry_multiplicity
  _atom_site_fract_x
  _atom_site_fract_y
  _atom_site_fract_z
  _atom_site_occupancy
  Co  Co1       1.0  0.71563  0.86934  0.65695  1.0000
  Co  Co2       1.0  0.28437  0.13066  0.34305  1.0000
  P   P1        1.0  0.22692  0.03897  0.72353  1.0000
  P   P2        1.0  0.77308  0.96103  0.27647  1.0000
  H   H1        1.0  0.21693  0.10101  0.98024  1.0000
  H   H2        1.0  0.78307  0.89899  0.01975  1.0000
  H   H3        1.0  0.49678  0.17704  0.85295  1.0000
  H   H4        1.0  0.50322  0.82296  0.14706  1.0000
  H   H5        1.0  0.42927  0.43216  0.61854  1.0000
  H   H6        1.0  0.57073  0.56784  0.38147  1.0000
  H   H7        1.0  0.19525  0.70782  0.54474  1.0000
  H   H8        1.0  0.80476  0.29218  0.45525  1.0000
  H   H9        1.0  0.60306  0.56237  0.89759  1.0000
  H   H10       1.0  0.39695  0.43763  0.10240  1.0000
  H   H11       1.0  0.81497  0.28135  0.98845  1.0000
  H   H12       1.0  0.18502  0.71865  0.01155  1.0000
  C   C1        1.0  0.28053  0.16688  0.85845  1.0000
  C   C2        1.0  0.71947  0.83312  0.14155  1.0000
  C   C3        1.0  0.14275  0.33254  0.81007  1.0000
  C   C4        1.0  0.85725  0.66746  0.18993  1.0000
  C   C5        1.0  0.24631  0.45633  0.68362  1.0000
  C   C6        1.0  0.75370  0.54367  0.31638  1.0000
  C   C7        1.0  0.11708  0.60975  0.64196  1.0000
  C   C8        1.0  0.88293  0.39025  0.35803  1.0000
  C   C9        1.0  0.78664  0.52720  0.83949  1.0000
  C   C10       1.0  0.21337  0.47280  0.16051  1.0000
  C   C11       1.0  0.90476  0.37076  0.88766  1.0000
  C   C12       1.0  0.09524  0.62924  0.11235  1.0000
  N   N1        1.0  0.89023  0.64614  0.72008  1.0000
  N   N2        1.0  0.10977  0.35386  0.27991  1.0000
  O   O1        1.0  0.38031  0.87184  0.78448  1.0000
  O   O2        1.0  0.61968  0.12817  0.21552  1.0000
  O   O3        1.0  0.92577  0.02172  0.72452  1.0000
  O   O4        1.0  0.07423  0.97827  0.27548  1.0000
  O   O5        1.0  0.34790  0.13210  0.55996  1.0000
  O   O6        1.0  0.65208  0.86790  0.44004  1.0000
