data_image0
_chemical_formula_structural       Na4H28C16N32O16
_chemical_formula_sum              "Na4 H28 C16 N32 O16"
_cell_length_a       6.56799
_cell_length_b       10.3517
_cell_length_c       15.1403
_cell_angle_alpha    92.0787
_cell_angle_beta     90.0171
_cell_angle_gamma    108.496

_space_group_name_H-M_alt    "P 1"
_space_group_IT_number       1

loop_
  _space_group_symop_operation_xyz
  'x, y, z'

loop_
  _atom_site_type_symbol
  _atom_site_label
  _atom_site_symmetry_multiplicity
  _atom_site_fract_x
  _atom_site_fract_y
  _atom_site_fract_z
  _atom_site_occupancy
  Na  Na1       1.0  0.57843  0.80496  0.73772  1.0000
  Na  Na2       1.0  0.77355  0.19510  0.76215  1.0000
  Na  Na3       1.0  0.42157  0.19504  0.26228  1.0000
  Na  Na4       1.0  0.22645  0.80490  0.23785  1.0000
  H   H1        1.0  0.74887  0.18915  0.98193  1.0000
  H   H2        1.0  0.55973  0.81091  0.51794  1.0000
  H   H3        1.0  0.25114  0.81085  0.01807  1.0000
  H   H4        1.0  0.44027  0.18909  0.48206  1.0000
  H   H5        1.0  0.78021  0.84683  0.11658  1.0000
  H   H6        1.0  0.93403  0.15304  0.38330  1.0000
  H   H7        1.0  0.21979  0.15317  0.88342  1.0000
  H   H8        1.0  0.06598  0.84696  0.61670  1.0000
  H   H9        1.0  0.21937  0.67422  0.84035  1.0000
  H   H10       1.0  0.54507  0.32577  0.65965  1.0000
  H   H11       1.0  0.78063  0.32577  0.15965  1.0000
  H   H12       1.0  0.45493  0.67424  0.34035  1.0000
  H   H13       1.0  0.21908  0.82813  0.84238  1.0000
  H   H14       1.0  0.39069  0.17187  0.65770  1.0000
  H   H15       1.0  0.78092  0.17187  0.15762  1.0000
  H   H16       1.0  0.60931  0.82814  0.34230  1.0000
  H   H17       1.0  0.81518  0.62608  0.66451  1.0000
  H   H18       1.0  0.18906  0.37391  0.83542  1.0000
  H   H19       1.0  0.18482  0.37392  0.33549  1.0000
  H   H20       1.0  0.81093  0.62608  0.16458  1.0000
  H   H21       1.0  0.98256  0.71244  0.73878  1.0000
  H   H22       1.0  0.27008  0.28757  0.76116  1.0000
  H   H23       1.0  0.01744  0.28756  0.26122  1.0000
  H   H24       1.0  0.72992  0.71242  0.23884  1.0000
  H   H25       1.0  0.71459  0.54429  0.81435  1.0000
  H   H26       1.0  0.17035  0.45569  0.68557  1.0000
  H   H27       1.0  0.28542  0.45571  0.18564  1.0000
  H   H28       1.0  0.82965  0.54431  0.31443  1.0000
  C   C1        1.0  0.72677  0.98457  0.92692  1.0000
  C   C2        1.0  0.74227  0.01552  0.57292  1.0000
  C   C3        1.0  0.27322  0.01543  0.07308  1.0000
  C   C4        1.0  0.25773  0.98448  0.42709  1.0000
  C   C5        1.0  0.76191  0.91227  0.06441  1.0000
  C   C6        1.0  0.85009  0.08768  0.43546  1.0000
  C   C7        1.0  0.23809  0.08773  0.93559  1.0000
  C   C8        1.0  0.14992  0.91232  0.56454  1.0000
  C   C9        1.0  0.75090  0.44390  0.01747  1.0000
  C   C10       1.0  0.30698  0.55621  0.48250  1.0000
  C   C11       1.0  0.24910  0.55610  0.98253  1.0000
  C   C12       1.0  0.69301  0.44379  0.51750  1.0000
  C   C13       1.0  0.72258  0.48945  0.87344  1.0000
  C   C14       1.0  0.23311  0.51059  0.62651  1.0000
  C   C15       1.0  0.27742  0.51055  0.12656  1.0000
  C   C16       1.0  0.76689  0.48942  0.37349  1.0000
  N   N1        1.0  0.74866  0.08380  0.99070  1.0000
  N   N2        1.0  0.66488  0.91625  0.50915  1.0000
  N   N3        1.0  0.25134  0.91619  0.00930  1.0000
  N   N4        1.0  0.33512  0.08375  0.49085  1.0000
  N   N5        1.0  0.77010  0.03976  0.07380  1.0000
  N   N6        1.0  0.73064  0.96021  0.42607  1.0000
  N   N7        1.0  0.22990  0.96023  0.92620  1.0000
  N   N8        1.0  0.26937  0.03979  0.57393  1.0000
  N   N9        1.0  0.73543  0.87248  0.97566  1.0000
  N   N10       1.0  0.86325  0.12753  0.52419  1.0000
  N   N11       1.0  0.26456  0.12752  0.02434  1.0000
  N   N12       1.0  0.13675  0.87247  0.47581  1.0000
  N   N13       1.0  0.72782  0.75096  0.93443  1.0000
  N   N14       1.0  0.97706  0.24906  0.56543  1.0000
  N   N15       1.0  0.27218  0.24904  0.06557  1.0000
  N   N16       1.0  0.02294  0.75094  0.43457  1.0000
  N   N17       1.0  0.74349  0.66893  0.99180  1.0000
  N   N18       1.0  0.07472  0.33114  0.50808  1.0000
  N   N19       1.0  0.25651  0.33107  0.00819  1.0000
  N   N20       1.0  0.92528  0.66887  0.49192  1.0000
  N   N21       1.0  0.73779  0.54597  0.95864  1.0000
  N   N22       1.0  0.19190  0.45409  0.54130  1.0000
  N   N23       1.0  0.26221  0.45403  0.04135  1.0000
  N   N24       1.0  0.80809  0.54592  0.45870  1.0000
  N   N25       1.0  0.74435  0.33492  0.96541  1.0000
  N   N26       1.0  0.40939  0.66519  0.53458  1.0000
  N   N27       1.0  0.25566  0.66508  0.03459  1.0000
  N   N28       1.0  0.59061  0.33481  0.46542  1.0000
  N   N29       1.0  0.72732  0.36461  0.87737  1.0000
  N   N30       1.0  0.36265  0.63548  0.62261  1.0000
  N   N31       1.0  0.27268  0.63539  0.12263  1.0000
  N   N32       1.0  0.63735  0.36452  0.37739  1.0000
  O   O1        1.0  0.70556  0.98853  0.84561  1.0000
  O   O2        1.0  0.71695  0.01159  0.65421  1.0000
  O   O3        1.0  0.29444  0.01146  0.15440  1.0000
  O   O4        1.0  0.28305  0.98842  0.34579  1.0000
  O   O5        1.0  0.76240  0.45997  0.10039  1.0000
  O   O6        1.0  0.30234  0.54013  0.39959  1.0000
  O   O7        1.0  0.23759  0.54003  0.89960  1.0000
  O   O8        1.0  0.69765  0.45988  0.60041  1.0000
  O   O9        1.0  0.22238  0.75114  0.80174  1.0000
  O   O10       1.0  0.47111  0.24891  0.69829  1.0000
  O   O11       1.0  0.77762  0.24886  0.19826  1.0000
  O   O12       1.0  0.52890  0.75109  0.30171  1.0000
  O   O13       1.0  0.84559  0.70432  0.70731  1.0000
  O   O14       1.0  0.14125  0.29571  0.79261  1.0000
  O   O15       1.0  0.15440  0.29568  0.29269  1.0000
  O   O16       1.0  0.85875  0.70429  0.20739  1.0000
