data_image0
_chemical_formula_structural       Sm2H26C24S6N12O16
_chemical_formula_sum              "Sm2 H26 C24 S6 N12 O16"
_cell_length_a       9.80171
_cell_length_b       10.3078
_cell_length_c       11.0329
_cell_angle_alpha    104.273
_cell_angle_beta     109.772
_cell_angle_gamma    94.8089

_space_group_name_H-M_alt    "P 1"
_space_group_IT_number       1

loop_
  _space_group_symop_operation_xyz
  'x, y, z'

loop_
  _atom_site_type_symbol
  _atom_site_label
  _atom_site_symmetry_multiplicity
  _atom_site_fract_x
  _atom_site_fract_y
  _atom_site_fract_z
  _atom_site_occupancy
  Sm  Sm1       1.0  0.76960  0.00909  0.50027  1.0000
  Sm  Sm2       1.0  0.23040  0.99090  0.49973  1.0000
  H   H1        1.0  0.54254  0.84710  0.57315  1.0000
  H   H2        1.0  0.45746  0.15289  0.42685  1.0000
  H   H3        1.0  0.69336  0.86352  0.69040  1.0000
  H   H4        1.0  0.30663  0.13647  0.30960  1.0000
  H   H5        1.0  0.67208  0.22417  0.33742  1.0000
  H   H6        1.0  0.32792  0.77583  0.66258  1.0000
  H   H7        1.0  0.55083  0.08713  0.26650  1.0000
  H   H8        1.0  0.44917  0.91287  0.73350  1.0000
  H   H9        1.0  0.42587  0.54763  0.59770  1.0000
  H   H10       1.0  0.57413  0.45236  0.40229  1.0000
  H   H11       1.0  0.33301  0.37199  0.52660  1.0000
  H   H12       1.0  0.66699  0.62801  0.47339  1.0000
  H   H13       1.0  0.43868  0.43658  0.70012  1.0000
  H   H14       1.0  0.56132  0.56341  0.29987  1.0000
  H   H15       1.0  0.49623  0.68762  0.93782  1.0000
  H   H16       1.0  0.50377  0.31239  0.06219  1.0000
  H   H17       1.0  0.60658  0.64600  0.08288  1.0000
  H   H18       1.0  0.39342  0.35401  0.91712  1.0000
  H   H19       1.0  0.56405  0.81126  0.10207  1.0000
  H   H20       1.0  0.43595  0.18874  0.89794  1.0000
  H   H21       1.0  0.95615  0.78340  0.86567  1.0000
  H   H22       1.0  0.04385  0.21660  0.13433  1.0000
  H   H23       1.0  0.91308  0.69705  0.97371  1.0000
  H   H24       1.0  0.08692  0.30295  0.02629  1.0000
  H   H25       1.0  0.05740  0.84047  0.04415  1.0000
  H   H26       1.0  0.94260  0.15954  0.95586  1.0000
  C   C1        1.0  0.06007  0.27085  0.57942  1.0000
  C   C2        1.0  0.93993  0.72914  0.42059  1.0000
  C   C3        1.0  0.10700  0.42215  0.62940  1.0000
  C   C4        1.0  0.89301  0.57785  0.37060  1.0000
  C   C5        1.0  0.23369  0.50510  0.64093  1.0000
  C   C6        1.0  0.76632  0.49490  0.35907  1.0000
  C   C7        1.0  0.36463  0.46318  0.61332  1.0000
  C   C8        1.0  0.63537  0.53681  0.38667  1.0000
  C   C9        1.0  0.42308  0.82032  0.30242  1.0000
  C   C10       1.0  0.57693  0.17968  0.69758  1.0000
  C   C11       1.0  0.34432  0.70762  0.17652  1.0000
  C   C12       1.0  0.65568  0.29238  0.82348  1.0000
  C   C13       1.0  0.38394  0.65673  0.06621  1.0000
  C   C14       1.0  0.61606  0.34327  0.93379  1.0000
  C   C15       1.0  0.52009  0.70391  0.04567  1.0000
  C   C16       1.0  0.47991  0.29610  0.95433  1.0000
  C   C17       1.0  0.93130  0.98218  0.24430  1.0000
  C   C18       1.0  0.06870  0.01783  0.75571  1.0000
  C   C19       1.0  0.83648  0.96745  0.10106  1.0000
  C   C20       1.0  0.16352  0.03256  0.89894  1.0000
  C   C21       1.0  0.84162  0.88754  0.98117  1.0000
  C   C22       1.0  0.15837  0.11246  0.01882  1.0000
  C   C23       1.0  0.94865  0.79719  0.96479  1.0000
  C   C24       1.0  0.05135  0.20282  0.03521  1.0000
  S   S1        1.0  0.99711  0.52494  0.67789  1.0000
  S   S2        1.0  0.00290  0.47505  0.32211  1.0000
  S   S3        1.0  0.17850  0.61736  0.14883  1.0000
  S   S4        1.0  0.82150  0.38264  0.85116  1.0000
  S   S5        1.0  0.69105  0.04793  0.06210  1.0000
  S   S6        1.0  0.30895  0.95207  0.93790  1.0000
  N   N1        1.0  0.23004  0.64045  0.68472  1.0000
  N   N2        1.0  0.76996  0.35955  0.31528  1.0000
  N   N3        1.0  0.11188  0.66733  0.70922  1.0000
  N   N4        1.0  0.88811  0.33267  0.29077  1.0000
  N   N5        1.0  0.28015  0.55048  0.96955  1.0000
  N   N6        1.0  0.71985  0.44952  0.03045  1.0000
  N   N7        1.0  0.16615  0.51736  0.99850  1.0000
  N   N8        1.0  0.83385  0.48264  0.00149  1.0000
  N   N9        1.0  0.72942  0.89570  0.87037  1.0000
  N   N10       1.0  0.27058  0.10430  0.12962  1.0000
  N   N11       1.0  0.64068  0.97641  0.89651  1.0000
  N   N12       1.0  0.35931  0.02359  0.10349  1.0000
  O   O1        1.0  0.93514  0.22526  0.57915  1.0000
  O   O2        1.0  0.06487  0.77473  0.42085  1.0000
  O   O3        1.0  0.64898  0.85465  0.59258  1.0000
  O   O4        1.0  0.35102  0.14535  0.40742  1.0000
  O   O5        1.0  0.14691  0.20278  0.54106  1.0000
  O   O6        1.0  0.85309  0.79721  0.45894  1.0000
  O   O7        1.0  0.62229  0.14468  0.35442  1.0000
  O   O8        1.0  0.37771  0.85532  0.64558  1.0000
  O   O9        1.0  0.55298  0.87339  0.32273  1.0000
  O   O10       1.0  0.44702  0.12661  0.67727  1.0000
  O   O11       1.0  0.35484  0.85290  0.38169  1.0000
  O   O12       1.0  0.64516  0.14709  0.61832  1.0000
  O   O13       1.0  0.86756  0.99899  0.32790  1.0000
  O   O14       1.0  0.13244  0.00101  0.67210  1.0000
  O   O15       1.0  0.06624  0.97587  0.27024  1.0000
  O   O16       1.0  0.93376  0.02412  0.72976  1.0000
