data_image0
_chemical_formula_structural       Ag4H24C20N12O8
_chemical_formula_sum              "Ag4 H24 C20 N12 O8"
_cell_length_a       6.51047
_cell_length_b       7.70876
_cell_length_c       15.3933
_cell_angle_alpha    90.0003
_cell_angle_beta     90.0012
_cell_angle_gamma    101.741

_space_group_name_H-M_alt    "P 1"
_space_group_IT_number       1

loop_
  _space_group_symop_operation_xyz
  'x, y, z'

loop_
  _atom_site_type_symbol
  _atom_site_label
  _atom_site_symmetry_multiplicity
  _atom_site_fract_x
  _atom_site_fract_y
  _atom_site_fract_z
  _atom_site_occupancy
  Ag  Ag1       1.0  0.77257  0.03927  0.74910  1.0000
  Ag  Ag2       1.0  0.22743  0.46074  0.24910  1.0000
  Ag  Ag3       1.0  0.22744  0.96073  0.25090  1.0000
  Ag  Ag4       1.0  0.77256  0.53927  0.75091  1.0000
  H   H1        1.0  0.75596  0.05654  0.53346  1.0000
  H   H2        1.0  0.24402  0.44344  0.03345  1.0000
  H   H3        1.0  0.24406  0.94347  0.46655  1.0000
  H   H4        1.0  0.75594  0.55654  0.96656  1.0000
  H   H5        1.0  0.79678  0.51312  0.53517  1.0000
  H   H6        1.0  0.20324  0.98687  0.03517  1.0000
  H   H7        1.0  0.20323  0.48689  0.46482  1.0000
  H   H8        1.0  0.79681  0.01313  0.96483  1.0000
  H   H9        1.0  0.81541  0.90995  0.38199  1.0000
  H   H10       1.0  0.18462  0.59006  0.88199  1.0000
  H   H11       1.0  0.18458  0.09008  0.61800  1.0000
  H   H12       1.0  0.81540  0.40991  0.11801  1.0000
  H   H13       1.0  0.00932  0.66269  0.37476  1.0000
  H   H14       1.0  0.99070  0.83732  0.87476  1.0000
  H   H15       1.0  0.99066  0.33733  0.62522  1.0000
  H   H16       1.0  0.00932  0.16265  0.12524  1.0000
  H   H17       1.0  0.81144  0.64529  0.29318  1.0000
  H   H18       1.0  0.18859  0.85472  0.79317  1.0000
  H   H19       1.0  0.18852  0.35472  0.70682  1.0000
  H   H20       1.0  0.81143  0.14527  0.20683  1.0000
  H   H21       1.0  0.76693  0.50389  0.38490  1.0000
  H   H22       1.0  0.23309  0.99612  0.88490  1.0000
  H   H23       1.0  0.23304  0.49612  0.61510  1.0000
  H   H24       1.0  0.76694  0.00388  0.11510  1.0000
  C   C1        1.0  0.78017  0.92664  0.55409  1.0000
  C   C2        1.0  0.21982  0.57331  0.05407  1.0000
  C   C3        1.0  0.21981  0.07334  0.44591  1.0000
  C   C4        1.0  0.78019  0.42668  0.94592  1.0000
  C   C5        1.0  0.80299  0.64943  0.55510  1.0000
  C   C6        1.0  0.19704  0.85059  0.05508  1.0000
  C   C7        1.0  0.19703  0.35059  0.44491  1.0000
  C   C8        1.0  0.80297  0.14942  0.94492  1.0000
  C   C9        1.0  0.50270  0.75349  0.39021  1.0000
  C   C10       1.0  0.49732  0.74652  0.89021  1.0000
  C   C11       1.0  0.49727  0.24652  0.60980  1.0000
  C   C12       1.0  0.50269  0.25347  0.10979  1.0000
  C   C13       1.0  0.74240  0.77880  0.40783  1.0000
  C   C14       1.0  0.25762  0.72121  0.90782  1.0000
  C   C15       1.0  0.25758  0.22121  0.59217  1.0000
  C   C16       1.0  0.74239  0.27878  0.09218  1.0000
  C   C17       1.0  0.83920  0.63825  0.36312  1.0000
  C   C18       1.0  0.16082  0.86176  0.86312  1.0000
  C   C19       1.0  0.16077  0.36176  0.63687  1.0000
  C   C20       1.0  0.83920  0.13823  0.13687  1.0000
  N   N1        1.0  0.80020  0.88092  0.63605  1.0000
  N   N2        1.0  0.19978  0.61907  0.13604  1.0000
  N   N3        1.0  0.19980  0.11911  0.36394  1.0000
  N   N4        1.0  0.80022  0.38089  0.86395  1.0000
  N   N5        1.0  0.81393  0.70453  0.63681  1.0000
  N   N6        1.0  0.18608  0.79547  0.13680  1.0000
  N   N7        1.0  0.18610  0.29549  0.36319  1.0000
  N   N8        1.0  0.81392  0.20451  0.86321  1.0000
  N   N9        1.0  0.78416  0.78558  0.50154  1.0000
  N   N10       1.0  0.21586  0.71441  0.00153  1.0000
  N   N11       1.0  0.21582  0.21441  0.49846  1.0000
  N   N12       1.0  0.78416  0.28561  0.99847  1.0000
  O   O1        1.0  0.45737  0.75368  0.31009  1.0000
  O   O2        1.0  0.54265  0.74632  0.81009  1.0000
  O   O3        1.0  0.54257  0.24631  0.68992  1.0000
  O   O4        1.0  0.45738  0.25369  0.18992  1.0000
  O   O5        1.0  0.37934  0.73697  0.45443  1.0000
  O   O6        1.0  0.62067  0.76304  0.95443  1.0000
  O   O7        1.0  0.62065  0.26306  0.54559  1.0000
  O   O8        1.0  0.37935  0.23695  0.04558  1.0000
