data_image0
_chemical_formula_structural       Ag2H16C24N10O8
_chemical_formula_sum              "Ag2 H16 C24 N10 O8"
_cell_length_a       8.46512
_cell_length_b       8.51935
_cell_length_c       9.84514
_cell_angle_alpha    74.7342
_cell_angle_beta     78.4592
_cell_angle_gamma    69.9416

_space_group_name_H-M_alt    "P 1"
_space_group_IT_number       1

loop_
  _space_group_symop_operation_xyz
  'x, y, z'

loop_
  _atom_site_type_symbol
  _atom_site_label
  _atom_site_symmetry_multiplicity
  _atom_site_fract_x
  _atom_site_fract_y
  _atom_site_fract_z
  _atom_site_occupancy
  Ag  Ag1       1.0  0.42346  0.70513  0.53437  1.0000
  Ag  Ag2       1.0  0.57654  0.29487  0.46563  1.0000
  H   H1        1.0  0.14566  0.62637  0.42008  1.0000
  H   H2        1.0  0.85434  0.37363  0.57992  1.0000
  H   H3        1.0  0.03279  0.67199  0.19182  1.0000
  H   H4        1.0  0.96721  0.32801  0.80818  1.0000
  H   H5        1.0  0.38953  0.94950  0.98806  1.0000
  H   H6        1.0  0.61047  0.05050  0.01194  1.0000
  H   H7        1.0  0.48039  0.90111  0.22669  1.0000
  H   H8        1.0  0.51960  0.09889  0.77331  1.0000
  H   H9        1.0  0.53911  0.63717  0.83577  1.0000
  H   H10       1.0  0.46089  0.36283  0.16423  1.0000
  H   H11       1.0  0.76789  0.67308  0.93985  1.0000
  H   H12       1.0  0.23211  0.32692  0.06015  1.0000
  H   H13       1.0  0.95174  0.88960  0.51169  1.0000
  H   H14       1.0  0.04826  0.11040  0.48830  1.0000
  H   H15       1.0  0.71873  0.84399  0.42745  1.0000
  H   H16       1.0  0.28127  0.15601  0.57255  1.0000
  C   C1        1.0  0.19511  0.69831  0.32200  1.0000
  C   C2        1.0  0.80489  0.30169  0.67800  1.0000
  C   C3        1.0  0.13560  0.72054  0.19442  1.0000
  C   C4        1.0  0.86441  0.27946  0.80559  1.0000
  C   C5        1.0  0.20787  0.80990  0.07091  1.0000
  C   C6        1.0  0.79213  0.19009  0.92909  1.0000
  C   C7        1.0  0.33375  0.87681  0.08174  1.0000
  C   C8        1.0  0.66625  0.12319  0.91826  1.0000
  C   C9        1.0  0.38314  0.85083  0.21403  1.0000
  C   C10       1.0  0.61686  0.14917  0.78597  1.0000
  C   C11       1.0  0.15469  0.83384  0.93390  1.0000
  C   C12       1.0  0.84531  0.16616  0.06610  1.0000
  C   C13       1.0  0.01208  0.81749  0.78429  1.0000
  C   C14       1.0  0.98792  0.18251  0.21571  1.0000
  C   C15       1.0  0.63383  0.69240  0.76858  1.0000
  C   C16       1.0  0.36618  0.30760  0.23142  1.0000
  C   C17       1.0  0.76259  0.71088  0.82552  1.0000
  C   C18       1.0  0.23742  0.28912  0.17448  1.0000
  C   C19       1.0  0.88083  0.78288  0.73299  1.0000
  C   C20       1.0  0.11917  0.21711  0.26701  1.0000
  C   C21       1.0  0.86538  0.83090  0.58762  1.0000
  C   C22       1.0  0.13462  0.16910  0.41239  1.0000
  C   C23       1.0  0.73326  0.80752  0.54001  1.0000
  C   C24       1.0  0.26674  0.19249  0.45999  1.0000
  N   N1        1.0  0.31653  0.76178  0.33290  1.0000
  N   N2        1.0  0.68346  0.23822  0.66710  1.0000
  N   N3        1.0  0.21292  0.90825  0.80856  1.0000
  N   N4        1.0  0.78708  0.09175  0.19144  1.0000
  N   N5        1.0  0.12153  0.89685  0.71186  1.0000
  N   N6        1.0  0.87848  0.10315  0.28814  1.0000
  N   N7        1.0  0.61798  0.73984  0.62875  1.0000
  N   N8        1.0  0.38202  0.26016  0.37125  1.0000
  N   N9        1.0  0.27621  0.44000  0.76323  1.0000
  N   N10       1.0  0.72379  0.56000  0.23677  1.0000
  O   O1        1.0  0.02695  0.77387  0.92594  1.0000
  O   O2        1.0  0.97306  0.22613  0.07406  1.0000
  O   O3        1.0  0.26178  0.49094  0.63022  1.0000
  O   O4        1.0  0.73822  0.50906  0.36978  1.0000
  O   O5        1.0  0.34861  0.50908  0.82072  1.0000
  O   O6        1.0  0.65139  0.49092  0.17928  1.0000
  O   O7        1.0  0.21933  0.32030  0.83476  1.0000
  O   O8        1.0  0.78066  0.67970  0.16524  1.0000
