data_image0
_chemical_formula_structural       Ag4H48C24S4N8O12
_chemical_formula_sum              "Ag4 H48 C24 S4 N8 O12"
_cell_length_a       6.84729
_cell_length_b       10.7869
_cell_length_c       13.5836
_cell_angle_alpha    102.642
_cell_angle_beta     97.2789
_cell_angle_gamma    88.0906

_space_group_name_H-M_alt    "P 1"
_space_group_IT_number       1

loop_
  _space_group_symop_operation_xyz
  'x, y, z'

loop_
  _atom_site_type_symbol
  _atom_site_label
  _atom_site_symmetry_multiplicity
  _atom_site_fract_x
  _atom_site_fract_y
  _atom_site_fract_z
  _atom_site_occupancy
  Ag  Ag1       1.0  0.13710  0.74044  0.98829  1.0000
  Ag  Ag2       1.0  0.87349  0.24879  0.00583  1.0000
  Ag  Ag3       1.0  0.01226  0.74247  0.40304  1.0000
  Ag  Ag4       1.0  0.99689  0.27770  0.60510  1.0000
  H   H1        1.0  0.47436  0.68490  0.09634  1.0000
  H   H2        1.0  0.52389  0.30632  0.90437  1.0000
  H   H3        1.0  0.55516  0.57000  0.17133  1.0000
  H   H4        1.0  0.43445  0.41371  0.82458  1.0000
  H   H5        1.0  0.23915  0.54217  0.20970  1.0000
  H   H6        1.0  0.74654  0.44449  0.78255  1.0000
  H   H7        1.0  0.17019  0.70449  0.21415  1.0000
  H   H8        1.0  0.81930  0.28342  0.77901  1.0000
  H   H9        1.0  0.86060  0.65074  0.12838  1.0000
  H   H10       1.0  0.13241  0.34058  0.86251  1.0000
  H   H11       1.0  0.92005  0.48930  0.12942  1.0000
  H   H12       1.0  0.07019  0.50254  0.86315  1.0000
  H   H13       1.0  0.21154  0.39265  0.05119  1.0000
  H   H14       1.0  0.78386  0.59576  0.93964  1.0000
  H   H15       1.0  0.35065  0.48586  0.99284  1.0000
  H   H16       1.0  0.64281  0.50431  0.99873  1.0000
  H   H17       1.0  0.44524  0.92506  0.81758  1.0000
  H   H18       1.0  0.58230  0.06084  0.17189  1.0000
  H   H19       1.0  0.35247  0.81902  0.70546  1.0000
  H   H20       1.0  0.67721  0.15690  0.28870  1.0000
  H   H21       1.0  0.09284  0.95086  0.77106  1.0000
  H   H22       1.0  0.94486  0.03191  0.21851  1.0000
  H   H23       1.0  0.04307  0.78875  0.76869  1.0000
  H   H24       1.0  0.98664  0.19568  0.22567  1.0000
  H   H25       1.0  0.18689  0.09532  0.93432  1.0000
  H   H26       1.0  0.84157  0.89359  0.05687  1.0000
  H   H27       1.0  0.36454  0.98993  0.97929  1.0000
  H   H28       1.0  0.66358  0.99918  0.01286  1.0000
  H   H29       1.0  0.79541  0.85446  0.86818  1.0000
  H   H30       1.0  0.23209  0.13710  0.12304  1.0000
  H   H31       1.0  0.84669  0.01714  0.87343  1.0000
  H   H32       1.0  0.18325  0.97492  0.12022  1.0000
  H   H33       1.0  0.16571  0.45861  0.31422  1.0000
  H   H34       1.0  0.82152  0.56123  0.64146  1.0000
  H   H35       1.0  0.01257  0.35699  0.36954  1.0000
  H   H36       1.0  0.99960  0.65505  0.60651  1.0000
  H   H37       1.0  0.77204  0.43502  0.45774  1.0000
  H   H38       1.0  0.30631  0.59015  0.60846  1.0000
  H   H39       1.0  0.70558  0.59932  0.47166  1.0000
  H   H40       1.0  0.37635  0.42244  0.62087  1.0000
  H   H41       1.0  0.83664  0.98395  0.33367  1.0000
  H   H42       1.0  0.93019  0.08748  0.73508  1.0000
  H   H43       1.0  0.97361  0.11996  0.40883  1.0000
  H   H44       1.0  0.78898  0.94995  0.64934  1.0000
  H   H45       1.0  0.37886  0.91647  0.45155  1.0000
  H   H46       1.0  0.64736  0.09500  0.46495  1.0000
  H   H47       1.0  0.28583  0.08127  0.44373  1.0000
  H   H48       1.0  0.71757  0.94125  0.48609  1.0000
  C   C1        1.0  0.45743  0.65170  0.16594  1.0000
  C   C2        1.0  0.53458  0.33369  0.83174  1.0000
  C   C3        1.0  0.24382  0.62163  0.17115  1.0000
  C   C4        1.0  0.74607  0.36578  0.82247  1.0000
  C   C5        1.0  0.91996  0.56314  0.08441  1.0000
  C   C6        1.0  0.07258  0.42751  0.90715  1.0000
  C   C7        1.0  0.20160  0.46856  0.00762  1.0000
  C   C8        1.0  0.79215  0.52105  0.98402  1.0000
  C   C9        1.0  0.34946  0.84223  0.78822  1.0000
  C   C10       1.0  0.68092  0.14102  0.20629  1.0000
  C   C11       1.0  0.13664  0.87030  0.80672  1.0000
  C   C12       1.0  0.89382  0.11437  0.18618  1.0000
  C   C13       1.0  0.20806  0.01539  0.97374  1.0000
  C   C14       1.0  0.82026  0.97427  0.01820  1.0000
  C   C15       1.0  0.87993  0.93723  0.91210  1.0000
  C   C16       1.0  0.14871  0.05340  0.07988  1.0000
  C   C17       1.0  0.05267  0.45206  0.36269  1.0000
  C   C18       1.0  0.93108  0.56034  0.58874  1.0000
  C   C19       1.0  0.82902  0.53295  0.47906  1.0000
  C   C20       1.0  0.26304  0.49427  0.61151  1.0000
  C   C21       1.0  0.91691  0.02496  0.40820  1.0000
  C   C22       1.0  0.85898  0.04257  0.66026  1.0000
  C   C23       1.0  0.25606  0.98119  0.44142  1.0000
  C   C24       1.0  0.77315  0.03610  0.48616  1.0000
  S   S1        1.0  0.55139  0.77958  0.26796  1.0000
  S   S2        1.0  0.43993  0.19865  0.73656  1.0000
  S   S3        1.0  0.46353  0.70998  0.83424  1.0000
  S   S4        1.0  0.56953  0.28234  0.17216  1.0000
  N   N1        1.0  0.12555  0.58678  0.06946  1.0000
  N   N2        1.0  0.86839  0.40233  0.92301  1.0000
  N   N3        1.0  0.09279  0.90422  0.91374  1.0000
  N   N4        1.0  0.93522  0.08506  0.07882  1.0000
  N   N5        1.0  0.97020  0.55092  0.41085  1.0000
  N   N6        1.0  0.08144  0.46378  0.60253  1.0000
  N   N7        1.0  0.08011  0.93895  0.42579  1.0000
  N   N8        1.0  0.86530  0.09764  0.58663  1.0000
  O   O1        1.0  0.43231  0.89253  0.25570  1.0000
  O   O2        1.0  0.56399  0.09032  0.75619  1.0000
  O   O3        1.0  0.53422  0.74025  0.36403  1.0000
  O   O4        1.0  0.45397  0.22829  0.63673  1.0000
  O   O5        1.0  0.75932  0.79129  0.25110  1.0000
  O   O6        1.0  0.23427  0.18597  0.75527  1.0000
  O   O7        1.0  0.51288  0.75631  0.94510  1.0000
  O   O8        1.0  0.52048  0.24920  0.06002  1.0000
  O   O9        1.0  0.31419  0.60838  0.80896  1.0000
  O   O10       1.0  0.72091  0.38155  0.20643  1.0000
  O   O11       1.0  0.63760  0.67694  0.78012  1.0000
  O   O12       1.0  0.39334  0.30760  0.22514  1.0000
