data_image0
_chemical_formula_structural       Cd2H14C22S4N6O2
_chemical_formula_sum              "Cd2 H14 C22 S4 N6 O2"
_cell_length_a       8.25539
_cell_length_b       8.30577
_cell_length_c       11.1583
_cell_angle_alpha    106.994
_cell_angle_beta     92.2885
_cell_angle_gamma    117.394

_space_group_name_H-M_alt    "P 1"
_space_group_IT_number       1

loop_
  _space_group_symop_operation_xyz
  'x, y, z'

loop_
  _atom_site_type_symbol
  _atom_site_label
  _atom_site_symmetry_multiplicity
  _atom_site_fract_x
  _atom_site_fract_y
  _atom_site_fract_z
  _atom_site_occupancy
  Cd  Cd1       1.0  0.74747  0.37781  0.02010  1.0000
  Cd  Cd2       1.0  0.25253  0.62219  0.97990  1.0000
  H   H1        1.0  0.00252  0.89827  0.12864  1.0000
  H   H2        1.0  0.99748  0.10173  0.87136  1.0000
  H   H3        1.0  0.08522  0.19420  0.31807  1.0000
  H   H4        1.0  0.91478  0.80580  0.68193  1.0000
  H   H5        1.0  0.23759  0.23072  0.53364  1.0000
  H   H6        1.0  0.76241  0.76928  0.46636  1.0000
  H   H7        1.0  0.35240  0.08947  0.66200  1.0000
  H   H8        1.0  0.64760  0.91053  0.33800  1.0000
  H   H9        1.0  0.40261  0.82193  0.67245  1.0000
  H   H10       1.0  0.59739  0.17807  0.32755  1.0000
  H   H11       1.0  0.30669  0.53282  0.47758  1.0000
  H   H12       1.0  0.69332  0.46719  0.52242  1.0000
  H   H13       1.0  0.16045  0.51081  0.26843  1.0000
  H   H14       1.0  0.83955  0.48919  0.73157  1.0000
  C   C1        1.0  0.65697  0.00168  0.10441  1.0000
  C   C2        1.0  0.34304  0.99833  0.89559  1.0000
  C   C3        1.0  0.42434  0.43823  0.13282  1.0000
  C   C4        1.0  0.57565  0.56176  0.86717  1.0000
  C   C5        1.0  0.06596  0.92095  0.22375  1.0000
  C   C6        1.0  0.93404  0.07904  0.77625  1.0000
  C   C7        1.0  0.11561  0.08546  0.33131  1.0000
  C   C8        1.0  0.88438  0.91454  0.66869  1.0000
  C   C9        1.0  0.19671  0.10375  0.44845  1.0000
  C   C10       1.0  0.80329  0.89625  0.55155  1.0000
  C   C11       1.0  0.22741  0.95412  0.45951  1.0000
  C   C12       1.0  0.77259  0.04588  0.54049  1.0000
  C   C13       1.0  0.30933  0.96220  0.57675  1.0000
  C   C14       1.0  0.69067  0.03780  0.42325  1.0000
  C   C15       1.0  0.33673  0.81272  0.58234  1.0000
  C   C16       1.0  0.66327  0.18728  0.41766  1.0000
  C   C17       1.0  0.28234  0.64879  0.47139  1.0000
  C   C18       1.0  0.71766  0.35121  0.52861  1.0000
  C   C19       1.0  0.20205  0.63474  0.35514  1.0000
  C   C20       1.0  0.79796  0.36527  0.64486  1.0000
  C   C21       1.0  0.17511  0.78762  0.34874  1.0000
  C   C22       1.0  0.82489  0.21238  0.65126  1.0000
  S   S1        1.0  0.86357  0.16162  0.09877  1.0000
  S   S2        1.0  0.13643  0.83838  0.90123  1.0000
  S   S3        1.0  0.59680  0.45554  0.22294  1.0000
  S   S4        1.0  0.40320  0.54446  0.77706  1.0000
  N   N1        1.0  0.50780  0.88866  0.11293  1.0000
  N   N2        1.0  0.49219  0.11134  0.88707  1.0000
  N   N3        1.0  0.29836  0.42272  0.06675  1.0000
  N   N4        1.0  0.70164  0.57727  0.93324  1.0000
  N   N5        1.0  0.09689  0.77937  0.23269  1.0000
  N   N6        1.0  0.90311  0.22063  0.76731  1.0000
  O   O1        1.0  0.05242  0.62559  0.12922  1.0000
  O   O2        1.0  0.94758  0.37441  0.87078  1.0000
