data_image0
_chemical_formula_structural       La4H28C32N4O32
_chemical_formula_sum              "La4 H28 C32 N4 O32"
_cell_length_a       7.73303
_cell_length_b       9.97956
_cell_length_c       15.1093
_cell_angle_alpha    90
_cell_angle_beta     98.3542
_cell_angle_gamma    89.9998

_space_group_name_H-M_alt    "P 1"
_space_group_IT_number       1

loop_
  _space_group_symop_operation_xyz
  'x, y, z'

loop_
  _atom_site_type_symbol
  _atom_site_label
  _atom_site_symmetry_multiplicity
  _atom_site_fract_x
  _atom_site_fract_y
  _atom_site_fract_z
  _atom_site_occupancy
  La  La1       1.0  0.13917  0.45840  0.35608  1.0000
  La  La2       1.0  0.36082  0.95840  0.14392  1.0000
  La  La3       1.0  0.86083  0.54160  0.64392  1.0000
  La  La4       1.0  0.63917  0.04160  0.85608  1.0000
  H   H1        1.0  0.73905  0.45316  0.29094  1.0000
  H   H2        1.0  0.76094  0.95316  0.20906  1.0000
  H   H3        1.0  0.26095  0.54684  0.70906  1.0000
  H   H4        1.0  0.23905  0.04684  0.79094  1.0000
  H   H5        1.0  0.77483  0.55663  0.36899  1.0000
  H   H6        1.0  0.72516  0.05663  0.13101  1.0000
  H   H7        1.0  0.22516  0.44337  0.63101  1.0000
  H   H8        1.0  0.27483  0.94337  0.86899  1.0000
  H   H9        1.0  0.91699  0.36020  0.17731  1.0000
  H   H10       1.0  0.58301  0.86020  0.32269  1.0000
  H   H11       1.0  0.08301  0.63980  0.82269  1.0000
  H   H12       1.0  0.41699  0.13979  0.67731  1.0000
  H   H13       1.0  0.02504  0.22446  0.20159  1.0000
  H   H14       1.0  0.47496  0.72446  0.29841  1.0000
  H   H15       1.0  0.97496  0.77554  0.79841  1.0000
  H   H16       1.0  0.52503  0.27554  0.70160  1.0000
  H   H17       1.0  0.20953  0.88528  0.64645  1.0000
  H   H18       1.0  0.29047  0.38528  0.85355  1.0000
  H   H19       1.0  0.79047  0.11472  0.35355  1.0000
  H   H20       1.0  0.70953  0.61472  0.14645  1.0000
  H   H21       1.0  0.39246  0.21520  0.52141  1.0000
  H   H22       1.0  0.10754  0.71519  0.97859  1.0000
  H   H23       1.0  0.60754  0.78481  0.47859  1.0000
  H   H24       1.0  0.89246  0.28480  0.02141  1.0000
  H   H25       1.0  0.17086  0.88597  0.35869  1.0000
  H   H26       1.0  0.32914  0.38597  0.14131  1.0000
  H   H27       1.0  0.82914  0.11403  0.64131  1.0000
  H   H28       1.0  0.67086  0.61403  0.85869  1.0000
  C   C1        1.0  0.31025  0.14069  0.34777  1.0000
  C   C2        1.0  0.18975  0.64069  0.15223  1.0000
  C   C3        1.0  0.68975  0.85931  0.65223  1.0000
  C   C4        1.0  0.81025  0.35931  0.84777  1.0000
  C   C5        1.0  0.09015  0.73544  0.49819  1.0000
  C   C6        1.0  0.40985  0.23544  0.00181  1.0000
  C   C7        1.0  0.90986  0.26456  0.50181  1.0000
  C   C8        1.0  0.59014  0.76456  0.99819  1.0000
  C   C9        1.0  0.17711  0.87032  0.50167  1.0000
  C   C10       1.0  0.32289  0.37032  0.99833  1.0000
  C   C11       1.0  0.82290  0.12968  0.49833  1.0000
  C   C12       1.0  0.67710  0.62968  0.00167  1.0000
  C   C13       1.0  0.22946  0.93378  0.58395  1.0000
  C   C14       1.0  0.27054  0.43378  0.91605  1.0000
  C   C15       1.0  0.77054  0.06622  0.41605  1.0000
  C   C16       1.0  0.72946  0.56622  0.08395  1.0000
  C   C17       1.0  0.33114  0.11696  0.51434  1.0000
  C   C18       1.0  0.16887  0.61696  0.98566  1.0000
  C   C19       1.0  0.66886  0.88304  0.48566  1.0000
  C   C20       1.0  0.83114  0.38304  0.01433  1.0000
  C   C21       1.0  0.28232  0.06224  0.42929  1.0000
  C   C22       1.0  0.21768  0.56224  0.07071  1.0000
  C   C23       1.0  0.71768  0.93776  0.57071  1.0000
  C   C24       1.0  0.78232  0.43776  0.92929  1.0000
  C   C25       1.0  0.20741  0.93468  0.42328  1.0000
  C   C26       1.0  0.29259  0.43467  0.07672  1.0000
  C   C27       1.0  0.79259  0.06533  0.57672  1.0000
  C   C28       1.0  0.70741  0.56533  0.92328  1.0000
  C   C29       1.0  0.54278  0.53295  0.46172  1.0000
  C   C30       1.0  0.95722  0.03295  0.03828  1.0000
  C   C31       1.0  0.45722  0.46705  0.53829  1.0000
  C   C32       1.0  0.04279  0.96705  0.96172  1.0000
  N   N1        1.0  0.30772  0.05423  0.59018  1.0000
  N   N2        1.0  0.19228  0.55423  0.90982  1.0000
  N   N3        1.0  0.69228  0.94577  0.40982  1.0000
  N   N4        1.0  0.80772  0.44577  0.09018  1.0000
  O   O1        1.0  0.07798  0.67059  0.42535  1.0000
  O   O2        1.0  0.42202  0.17060  0.07465  1.0000
  O   O3        1.0  0.92203  0.32941  0.57464  1.0000
  O   O4        1.0  0.57797  0.82940  0.92536  1.0000
  O   O5        1.0  0.03421  0.69600  0.56864  1.0000
  O   O6        1.0  0.46579  0.19600  0.93136  1.0000
  O   O7        1.0  0.96579  0.30399  0.43136  1.0000
  O   O8        1.0  0.53421  0.80399  0.06864  1.0000
  O   O9        1.0  0.30328  0.07774  0.27459  1.0000
  O   O10       1.0  0.19672  0.57775  0.22541  1.0000
  O   O11       1.0  0.69671  0.92226  0.72541  1.0000
  O   O12       1.0  0.80329  0.42226  0.77458  1.0000
  O   O13       1.0  0.33711  0.26614  0.35641  1.0000
  O   O14       1.0  0.16289  0.76614  0.14359  1.0000
  O   O15       1.0  0.66289  0.73387  0.64359  1.0000
  O   O16       1.0  0.83710  0.23386  0.85641  1.0000
  O   O17       1.0  0.44442  0.56049  0.38958  1.0000
  O   O18       1.0  0.05558  0.06049  0.11042  1.0000
  O   O19       1.0  0.55558  0.43951  0.61042  1.0000
  O   O20       1.0  0.94442  0.93952  0.88958  1.0000
  O   O21       1.0  0.70596  0.55520  0.47724  1.0000
  O   O22       1.0  0.79404  0.05520  0.02276  1.0000
  O   O23       1.0  0.29405  0.44480  0.52276  1.0000
  O   O24       1.0  0.20595  0.94480  0.97724  1.0000
  O   O25       1.0  0.81391  0.52871  0.31164  1.0000
  O   O26       1.0  0.68609  0.02871  0.18836  1.0000
  O   O27       1.0  0.18609  0.47129  0.68836  1.0000
  O   O28       1.0  0.31390  0.97129  0.81164  1.0000
  O   O29       1.0  0.99270  0.30966  0.22697  1.0000
  O   O30       1.0  0.50729  0.80966  0.27303  1.0000
  O   O31       1.0  0.00729  0.69034  0.77303  1.0000
  O   O32       1.0  0.49269  0.19035  0.72697  1.0000
