data_image0
_chemical_formula_structural       Mn4H16C16O16
_chemical_formula_sum              "Mn4 H16 C16 O16"
_cell_length_a       4.84398
_cell_length_b       6.2791
_cell_length_c       15.3495
_cell_angle_alpha    98.7202
_cell_angle_beta     99.0634
_cell_angle_gamma    89.9812

_space_group_name_H-M_alt    "P 1"
_space_group_IT_number       1

loop_
  _space_group_symop_operation_xyz
  'x, y, z'

loop_
  _atom_site_type_symbol
  _atom_site_label
  _atom_site_symmetry_multiplicity
  _atom_site_fract_x
  _atom_site_fract_y
  _atom_site_fract_z
  _atom_site_occupancy
  Mn  Mn1       1.0  0.31995  0.25001  0.99988  1.0000
  Mn  Mn2       1.0  0.68006  0.74995  0.00011  1.0000
  Mn  Mn3       1.0  1.00000  0.00001  0.50000  1.0000
  Mn  Mn4       1.0  0.50001  0.50001  0.50000  1.0000
  H   H1        1.0  0.70996  0.36988  0.73974  1.0000
  H   H2        1.0  0.96936  0.12997  0.26003  1.0000
  H   H3        1.0  0.29004  0.63011  0.26027  1.0000
  H   H4        1.0  0.03063  0.87004  0.73998  1.0000
  H   H5        1.0  0.91886  0.15035  0.71252  1.0000
  H   H6        1.0  0.20538  0.34909  0.28735  1.0000
  H   H7        1.0  0.08113  0.84965  0.28748  1.0000
  H   H8        1.0  0.79466  0.65090  0.71265  1.0000
  H   H9        1.0  0.37407  0.14197  0.79476  1.0000
  H   H10       1.0  0.57877  0.35819  0.20503  1.0000
  H   H11       1.0  0.62593  0.85801  0.20524  1.0000
  H   H12       1.0  0.42124  0.64181  0.79497  1.0000
  H   H13       1.0  0.54803  0.91048  0.75903  1.0000
  H   H14       1.0  0.78835  0.58948  0.24084  1.0000
  H   H15       1.0  0.45194  0.08950  0.24096  1.0000
  H   H16       1.0  0.21167  0.41053  0.75915  1.0000
  C   C1        1.0  0.70264  0.19503  0.71763  1.0000
  C   C2        1.0  0.98394  0.30484  0.28217  1.0000
  C   C3        1.0  0.29733  0.80496  0.28236  1.0000
  C   C4        1.0  0.01608  0.69517  0.71783  1.0000
  C   C5        1.0  0.75907  0.09674  0.87540  1.0000
  C   C6        1.0  0.88351  0.40326  0.12441  1.0000
  C   C7        1.0  0.24091  0.90323  0.12459  1.0000
  C   C8        1.0  0.11648  0.59673  0.87557  1.0000
  C   C9        1.0  0.58141  0.08324  0.78448  1.0000
  C   C10       1.0  0.79632  0.41683  0.21533  1.0000
  C   C11       1.0  0.41858  0.91675  0.21552  1.0000
  C   C12       1.0  0.20369  0.58317  0.78468  1.0000
  C   C13       1.0  0.53730  0.16148  0.62462  1.0000
  C   C14       1.0  0.91158  0.33853  0.37519  1.0000
  C   C15       1.0  0.46271  0.83854  0.37538  1.0000
  C   C16       1.0  0.08842  0.66153  0.62481  1.0000
  O   O1        1.0  0.28634  0.09304  0.61404  1.0000
  O   O2        1.0  0.67098  0.40696  0.38563  1.0000
  O   O3        1.0  0.71364  0.90699  0.38596  1.0000
  O   O4        1.0  0.32899  0.59311  0.61437  1.0000
  O   O5        1.0  0.01632  0.14550  0.88545  1.0000
  O   O6        1.0  0.13067  0.35425  0.11429  1.0000
  O   O7        1.0  0.98368  0.85446  0.11454  1.0000
  O   O8        1.0  0.86934  0.64569  0.88571  1.0000
  O   O9        1.0  0.65739  0.21247  0.56100  1.0000
  O   O10       1.0  0.09543  0.28779  0.43886  1.0000
  O   O11       1.0  0.34261  0.78756  0.43900  1.0000
  O   O12       1.0  0.90464  0.71224  0.56117  1.0000
  O   O13       1.0  0.63581  0.05028  0.93912  1.0000
  O   O14       1.0  0.69658  0.44999  0.06076  1.0000
  O   O15       1.0  0.36417  0.94969  0.06087  1.0000
  O   O16       1.0  0.30341  0.54999  0.93924  1.0000
