data_image0
_chemical_formula_structural       Nd4H28C32N4O32
_chemical_formula_sum              "Nd4 H28 C32 N4 O32"
_cell_length_a       7.6156
_cell_length_b       9.94295
_cell_length_c       14.962
_cell_angle_alpha    90.0002
_cell_angle_beta     98.1218
_cell_angle_gamma    90.0002

_space_group_name_H-M_alt    "P 1"
_space_group_IT_number       1

loop_
  _space_group_symop_operation_xyz
  'x, y, z'

loop_
  _atom_site_type_symbol
  _atom_site_label
  _atom_site_symmetry_multiplicity
  _atom_site_fract_x
  _atom_site_fract_y
  _atom_site_fract_z
  _atom_site_occupancy
  Nd  Nd1       1.0  0.14212  0.45799  0.35697  1.0000
  Nd  Nd2       1.0  0.35788  0.95799  0.14303  1.0000
  Nd  Nd3       1.0  0.85787  0.54201  0.64302  1.0000
  Nd  Nd4       1.0  0.64213  0.04201  0.85698  1.0000
  H   H1        1.0  0.74830  0.44998  0.29249  1.0000
  H   H2        1.0  0.75169  0.94998  0.20751  1.0000
  H   H3        1.0  0.25169  0.55002  0.70751  1.0000
  H   H4        1.0  0.24831  0.05002  0.79249  1.0000
  H   H5        1.0  0.78126  0.55760  0.36897  1.0000
  H   H6        1.0  0.71873  0.05760  0.13103  1.0000
  H   H7        1.0  0.21873  0.44241  0.63103  1.0000
  H   H8        1.0  0.28127  0.94241  0.86897  1.0000
  H   H9        1.0  0.03059  0.22709  0.20508  1.0000
  H   H10       1.0  0.46941  0.72709  0.29492  1.0000
  H   H11       1.0  0.96941  0.77291  0.79492  1.0000
  H   H12       1.0  0.53059  0.27291  0.70508  1.0000
  H   H13       1.0  0.91969  0.36246  0.17870  1.0000
  H   H14       1.0  0.58031  0.86246  0.32130  1.0000
  H   H15       1.0  0.08031  0.63754  0.82130  1.0000
  H   H16       1.0  0.41969  0.13754  0.67871  1.0000
  H   H17       1.0  0.16970  0.88551  0.35727  1.0000
  H   H18       1.0  0.33030  0.38552  0.14274  1.0000
  H   H19       1.0  0.83030  0.11448  0.64274  1.0000
  H   H20       1.0  0.66970  0.61449  0.85727  1.0000
  H   H21       1.0  0.21043  0.88380  0.64785  1.0000
  H   H22       1.0  0.28958  0.38380  0.85215  1.0000
  H   H23       1.0  0.78957  0.11619  0.35215  1.0000
  H   H24       1.0  0.71043  0.61620  0.14785  1.0000
  H   H25       1.0  0.39378  0.21592  0.52139  1.0000
  H   H26       1.0  0.10623  0.71592  0.97862  1.0000
  H   H27       1.0  0.60622  0.78408  0.47862  1.0000
  H   H28       1.0  0.89378  0.28408  0.02138  1.0000
  C   C1        1.0  0.31048  0.14188  0.34624  1.0000
  C   C2        1.0  0.18952  0.64189  0.15376  1.0000
  C   C3        1.0  0.68952  0.85811  0.65377  1.0000
  C   C4        1.0  0.81047  0.35812  0.84623  1.0000
  C   C5        1.0  0.28185  0.06271  0.42843  1.0000
  C   C6        1.0  0.21815  0.56271  0.07157  1.0000
  C   C7        1.0  0.71815  0.93729  0.57157  1.0000
  C   C8        1.0  0.78185  0.43729  0.92843  1.0000
  C   C9        1.0  0.20671  0.93432  0.42246  1.0000
  C   C10       1.0  0.29330  0.43432  0.07754  1.0000
  C   C11       1.0  0.79330  0.06568  0.57755  1.0000
  C   C12       1.0  0.70670  0.56568  0.92246  1.0000
  C   C13       1.0  0.17715  0.86908  0.50167  1.0000
  C   C14       1.0  0.32286  0.36908  0.99833  1.0000
  C   C15       1.0  0.82285  0.13092  0.49833  1.0000
  C   C16       1.0  0.67715  0.63092  0.00167  1.0000
  C   C17       1.0  0.09130  0.73293  0.49862  1.0000
  C   C18       1.0  0.40871  0.23293  0.00138  1.0000
  C   C19       1.0  0.90870  0.26707  0.50139  1.0000
  C   C20       1.0  0.59130  0.76707  0.99862  1.0000
  C   C21       1.0  0.23000  0.93274  0.58467  1.0000
  C   C22       1.0  0.27000  0.43274  0.91533  1.0000
  C   C23       1.0  0.77000  0.06726  0.41534  1.0000
  C   C24       1.0  0.73001  0.56726  0.08467  1.0000
  C   C25       1.0  0.33159  0.11736  0.51425  1.0000
  C   C26       1.0  0.16841  0.61736  0.98575  1.0000
  C   C27       1.0  0.66841  0.88264  0.48576  1.0000
  C   C28       1.0  0.83159  0.38264  0.01424  1.0000
  C   C29       1.0  0.54400  0.53249  0.46142  1.0000
  C   C30       1.0  0.95601  0.03249  0.03858  1.0000
  C   C31       1.0  0.45600  0.46751  0.53858  1.0000
  C   C32       1.0  0.04400  0.96751  0.96142  1.0000
  N   N1        1.0  0.30864  0.05395  0.59083  1.0000
  N   N2        1.0  0.19137  0.55395  0.90917  1.0000
  N   N3        1.0  0.69136  0.94605  0.40918  1.0000
  N   N4        1.0  0.80864  0.44605  0.09082  1.0000
  O   O1        1.0  0.33673  0.26789  0.35535  1.0000
  O   O2        1.0  0.16326  0.76789  0.14465  1.0000
  O   O3        1.0  0.66326  0.73211  0.64466  1.0000
  O   O4        1.0  0.83674  0.23211  0.85534  1.0000
  O   O5        1.0  0.30513  0.07911  0.27241  1.0000
  O   O6        1.0  0.19486  0.57911  0.22759  1.0000
  O   O7        1.0  0.69487  0.92089  0.72760  1.0000
  O   O8        1.0  0.80512  0.42089  0.77240  1.0000
  O   O9        1.0  0.08222  0.66706  0.42559  1.0000
  O   O10       1.0  0.41778  0.16706  0.07441  1.0000
  O   O11       1.0  0.91778  0.33294  0.57441  1.0000
  O   O12       1.0  0.58223  0.83294  0.92559  1.0000
  O   O13       1.0  0.03389  0.69396  0.56977  1.0000
  O   O14       1.0  0.46611  0.19396  0.93022  1.0000
  O   O15       1.0  0.96610  0.30604  0.43022  1.0000
  O   O16       1.0  0.53390  0.80604  0.06978  1.0000
  O   O17       1.0  0.44633  0.55694  0.38760  1.0000
  O   O18       1.0  0.05367  0.05694  0.11240  1.0000
  O   O19       1.0  0.55364  0.44306  0.61239  1.0000
  O   O20       1.0  0.94634  0.94306  0.88760  1.0000
  O   O21       1.0  0.70878  0.55740  0.47823  1.0000
  O   O22       1.0  0.79122  0.05740  0.02177  1.0000
  O   O23       1.0  0.29119  0.44260  0.52176  1.0000
  O   O24       1.0  0.20880  0.94260  0.97823  1.0000
  O   O25       1.0  0.82166  0.52796  0.31154  1.0000
  O   O26       1.0  0.67833  0.02796  0.18845  1.0000
  O   O27       1.0  0.17833  0.47204  0.68845  1.0000
  O   O28       1.0  0.32167  0.97204  0.81155  1.0000
  O   O29       1.0  0.99561  0.31272  0.22961  1.0000
  O   O30       1.0  0.50439  0.81272  0.27039  1.0000
  O   O31       1.0  0.00439  0.68728  0.77039  1.0000
  O   O32       1.0  0.49562  0.18728  0.72962  1.0000
