data_image0
_chemical_formula_structural       Na4H32C12S12N12O12
_chemical_formula_sum              "Na4 H32 C12 S12 N12 O12"
_cell_length_a       7.72587
_cell_length_b       10.3515
_cell_length_c       12.6003
_cell_angle_alpha    90.0001
_cell_angle_beta     90.0006
_cell_angle_gamma    108.962

_space_group_name_H-M_alt    "P 1"
_space_group_IT_number       1

loop_
  _space_group_symop_operation_xyz
  'x, y, z'

loop_
  _atom_site_type_symbol
  _atom_site_label
  _atom_site_symmetry_multiplicity
  _atom_site_fract_x
  _atom_site_fract_y
  _atom_site_fract_z
  _atom_site_occupancy
  Na  Na1       1.0  0.05917  0.91475  0.43678  1.0000
  Na  Na2       1.0  0.94083  0.08525  0.93678  1.0000
  Na  Na3       1.0  0.42969  0.08035  0.60439  1.0000
  Na  Na4       1.0  0.57031  0.91965  0.10439  1.0000
  H   H1        1.0  0.11174  0.86806  0.66825  1.0000
  H   H2        1.0  0.88827  0.13195  0.16824  1.0000
  H   H3        1.0  0.05569  0.00198  0.66737  1.0000
  H   H4        1.0  0.94431  0.99802  0.16737  1.0000
  H   H5        1.0  0.57007  0.18736  0.80454  1.0000
  H   H6        1.0  0.42994  0.81264  0.30454  1.0000
  H   H7        1.0  0.36744  0.08314  0.83550  1.0000
  H   H8        1.0  0.63257  0.91687  0.33550  1.0000
  H   H9        1.0  0.48366  0.83749  0.54493  1.0000
  H   H10       1.0  0.51633  0.16251  0.04493  1.0000
  H   H11       1.0  0.62681  0.86286  0.63615  1.0000
  H   H12       1.0  0.37319  0.13714  0.13615  1.0000
  H   H13       1.0  0.74110  0.98103  0.48888  1.0000
  H   H14       1.0  0.25890  0.01897  0.98888  1.0000
  H   H15       1.0  0.83350  0.10191  0.40796  1.0000
  H   H16       1.0  0.16651  0.89809  0.90796  1.0000
  H   H17       1.0  0.42892  0.00221  0.36730  1.0000
  H   H18       1.0  0.57109  0.99779  0.86730  1.0000
  H   H19       1.0  0.36414  0.13120  0.37774  1.0000
  H   H20       1.0  0.63586  0.86880  0.87774  1.0000
  H   H21       1.0  0.90961  0.80583  0.24593  1.0000
  H   H22       1.0  0.09038  0.19417  0.74593  1.0000
  H   H23       1.0  0.10736  0.85897  0.19776  1.0000
  H   H24       1.0  0.89263  0.14103  0.69775  1.0000
  H   H25       1.0  0.02891  0.57553  0.96186  1.0000
  H   H26       1.0  0.97109  0.42448  0.46185  1.0000
  H   H27       1.0  0.04139  0.55465  0.63839  1.0000
  H   H28       1.0  0.95862  0.44536  0.13839  1.0000
  H   H29       1.0  0.46450  0.42763  0.41797  1.0000
  H   H30       1.0  0.53549  0.57236  0.91797  1.0000
  H   H31       1.0  0.44197  0.44049  0.09338  1.0000
  H   H32       1.0  0.55803  0.55951  0.59338  1.0000
  C   C1        1.0  0.84232  0.38995  0.71101  1.0000
  C   C2        1.0  0.15768  0.61006  0.21101  1.0000
  C   C3        1.0  0.04860  0.58855  0.79920  1.0000
  C   C4        1.0  0.95140  0.41146  0.29919  1.0000
  C   C5        1.0  0.83617  0.40233  0.89575  1.0000
  C   C6        1.0  0.16383  0.59767  0.39575  1.0000
  C   C7        1.0  0.65875  0.59852  0.34821  1.0000
  C   C8        1.0  0.34125  0.40148  0.84821  1.0000
  C   C9        1.0  0.44024  0.41130  0.25531  1.0000
  C   C10       1.0  0.55975  0.58870  0.75531  1.0000
  C   C11       1.0  0.64369  0.60645  0.16272  1.0000
  C   C12       1.0  0.35631  0.39355  0.66271  1.0000
  S   S1        1.0  0.78019  0.30728  0.59495  1.0000
  S   S2        1.0  0.21981  0.69273  0.09495  1.0000
  S   S3        1.0  0.21612  0.73848  0.79454  1.0000
  S   S4        1.0  0.78389  0.26152  0.29454  1.0000
  S   S5        1.0  0.76830  0.33377  0.01597  1.0000
  S   S6        1.0  0.23170  0.66623  0.51597  1.0000
  S   S7        1.0  0.71271  0.68487  0.04609  1.0000
  S   S8        1.0  0.28728  0.31513  0.54609  1.0000
  S   S9        1.0  0.27551  0.25868  0.25565  1.0000
  S   S10       1.0  0.72448  0.74132  0.75565  1.0000
  S   S11       1.0  0.74787  0.66317  0.46583  1.0000
  S   S12       1.0  0.25212  0.33682  0.96583  1.0000
  N   N1        1.0  0.76624  0.33799  0.80482  1.0000
  N   N2        1.0  0.23376  0.66201  0.30481  1.0000
  N   N3        1.0  0.97251  0.52790  0.89150  1.0000
  N   N4        1.0  0.02750  0.47210  0.39149  1.0000
  N   N5        1.0  0.97987  0.51502  0.71022  1.0000
  N   N6        1.0  0.02014  0.48499  0.21022  1.0000
  N   N7        1.0  0.72101  0.66146  0.25531  1.0000
  N   N8        1.0  0.27899  0.33853  0.75531  1.0000
  N   N9        1.0  0.51700  0.47513  0.34619  1.0000
  N   N10       1.0  0.48299  0.52486  0.84619  1.0000
  N   N11       1.0  0.50517  0.48143  0.16458  1.0000
  N   N12       1.0  0.49482  0.51856  0.66457  1.0000
  O   O1        1.0  0.11477  0.94693  0.62397  1.0000
  O   O2        1.0  0.88524  0.05307  0.12397  1.0000
  O   O3        1.0  0.47801  0.09490  0.79155  1.0000
  O   O4        1.0  0.52200  0.90510  0.29154  1.0000
  O   O5        1.0  0.57825  0.91199  0.58240  1.0000
  O   O6        1.0  0.42175  0.08802  0.08240  1.0000
  O   O7        1.0  0.82230  0.00677  0.42521  1.0000
  O   O8        1.0  0.17770  0.99323  0.92521  1.0000
  O   O9        1.0  0.37033  0.05076  0.41750  1.0000
  O   O10       1.0  0.62967  0.94924  0.91750  1.0000
  O   O11       1.0  0.02426  0.88887  0.24306  1.0000
  O   O12       1.0  0.97574  0.11113  0.74306  1.0000
