data_image0
_chemical_formula_structural       Cd2H28C44O18
_chemical_formula_sum              "Cd2 H28 C44 O18"
_cell_length_a       4.79092
_cell_length_b       12.9856
_cell_length_c       15.2139
_cell_angle_alpha    91.907
_cell_angle_beta     95.7362
_cell_angle_gamma    91.1911

_space_group_name_H-M_alt    "P 1"
_space_group_IT_number       1

loop_
  _space_group_symop_operation_xyz
  'x, y, z'

loop_
  _atom_site_type_symbol
  _atom_site_label
  _atom_site_symmetry_multiplicity
  _atom_site_fract_x
  _atom_site_fract_y
  _atom_site_fract_z
  _atom_site_occupancy
  Cd  Cd1       1.0  0.18509  0.22633  0.78865  1.0000
  Cd  Cd2       1.0  0.81490  0.77367  0.21135  1.0000
  H   H1        1.0  0.52704  0.51411  0.27426  1.0000
  H   H2        1.0  0.47296  0.48589  0.72574  1.0000
  H   H3        1.0  0.82518  0.16618  0.61835  1.0000
  H   H4        1.0  0.17482  0.83382  0.38165  1.0000
  H   H5        1.0  0.08272  0.40734  0.88709  1.0000
  H   H6        1.0  0.91728  0.59266  0.11291  1.0000
  H   H7        1.0  0.41274  0.40589  0.87675  1.0000
  H   H8        1.0  0.58726  0.59411  0.12325  1.0000
  H   H9        1.0  0.42004  0.97401  0.83731  1.0000
  H   H10       1.0  0.57996  0.02599  0.16269  1.0000
  H   H11       1.0  0.58016  0.28383  0.98965  1.0000
  H   H12       1.0  0.41983  0.71617  0.01035  1.0000
  H   H13       1.0  0.85234  0.43863  0.04702  1.0000
  H   H14       1.0  0.14766  0.56137  0.95298  1.0000
  H   H15       1.0  0.32263  0.25678  0.23960  1.0000
  H   H16       1.0  0.67737  0.74323  0.76040  1.0000
  H   H17       1.0  0.06596  0.09906  0.17577  1.0000
  H   H18       1.0  0.93404  0.90094  0.82423  1.0000
  H   H19       1.0  0.33382  0.89107  0.69679  1.0000
  H   H20       1.0  0.66618  0.10893  0.30321  1.0000
  H   H21       1.0  0.34609  0.70744  0.64548  1.0000
  H   H22       1.0  0.65392  0.29256  0.35452  1.0000
  H   H23       1.0  0.60766  0.75076  0.46531  1.0000
  H   H24       1.0  0.39235  0.24924  0.53470  1.0000
  H   H25       1.0  0.59871  0.93221  0.51531  1.0000
  H   H26       1.0  0.40129  0.06779  0.48469  1.0000
  H   H27       1.0  0.07418  0.56084  0.65589  1.0000
  H   H28       1.0  0.92582  0.43916  0.34411  1.0000
  C   C1        1.0  0.76130  0.13525  0.88348  1.0000
  C   C2        1.0  0.23870  0.86475  0.11652  1.0000
  C   C3        1.0  0.61158  0.07062  0.94466  1.0000
  C   C4        1.0  0.38841  0.92938  0.05534  1.0000
  C   C5        1.0  0.45326  0.98517  0.90896  1.0000
  C   C6        1.0  0.54674  0.01483  0.09104  1.0000
  C   C7        1.0  0.65852  0.08698  0.03715  1.0000
  C   C8        1.0  0.34148  0.91302  0.96285  1.0000
  C   C9        1.0  0.81075  0.17990  0.07675  1.0000
  C   C10       1.0  0.18925  0.82010  0.92325  1.0000
  C   C11       1.0  0.74893  0.27702  0.04255  1.0000
  C   C12       1.0  0.25107  0.72298  0.95745  1.0000
  C   C13       1.0  0.89734  0.36467  0.07640  1.0000
  C   C14       1.0  0.10266  0.63533  0.92360  1.0000
  C   C15       1.0  0.10579  0.35835  0.14771  1.0000
  C   C16       1.0  0.89421  0.64165  0.85229  1.0000
  C   C17       1.0  0.16116  0.26214  0.18442  1.0000
  C   C18       1.0  0.83883  0.73786  0.81558  1.0000
  C   C19       1.0  0.01625  0.17402  0.14895  1.0000
  C   C20       1.0  0.98375  0.82598  0.85105  1.0000
  C   C21       1.0  0.26617  0.45245  0.18009  1.0000
  C   C22       1.0  0.73383  0.54755  0.81991  1.0000
  C   C23       1.0  0.97508  0.03307  0.64117  1.0000
  C   C24       1.0  0.02492  0.96693  0.35883  1.0000
  C   C25       1.0  0.96718  0.92389  0.60972  1.0000
  C   C26       1.0  0.03283  0.07611  0.39028  1.0000
  C   C27       1.0  0.17542  0.85923  0.64637  1.0000
  C   C28       1.0  0.82458  0.14077  0.35363  1.0000
  C   C29       1.0  0.18152  0.75694  0.61757  1.0000
  C   C30       1.0  0.81849  0.24306  0.38243  1.0000
  C   C31       1.0  0.98088  0.71667  0.55082  1.0000
  C   C32       1.0  0.01913  0.28334  0.44918  1.0000
  C   C33       1.0  0.77050  0.78140  0.51509  1.0000
  C   C34       1.0  0.22951  0.21860  0.48491  1.0000
  C   C35       1.0  0.76380  0.88389  0.54405  1.0000
  C   C36       1.0  0.23620  0.11611  0.45595  1.0000
  C   C37       1.0  0.99247  0.60732  0.52213  1.0000
  C   C38       1.0  0.00753  0.39268  0.47787  1.0000
  C   C39       1.0  0.04697  0.53414  0.58691  1.0000
  C   C40       1.0  0.95303  0.46586  0.41309  1.0000
  C   C41       1.0  0.94562  0.57138  0.43318  1.0000
  C   C42       1.0  0.05438  0.42862  0.56682  1.0000
  C   C43       1.0  0.89505  0.64079  0.35672  1.0000
  C   C44       1.0  0.10495  0.35921  0.64327  1.0000
  O   O1        1.0  0.02590  0.14129  0.90021  1.0000
  O   O2        1.0  0.97410  0.85871  0.09979  1.0000
  O   O3        1.0  0.63568  0.17701  0.81585  1.0000
  O   O4        1.0  0.36432  0.82299  0.18416  1.0000
  O   O5        1.0  0.25079  0.53511  0.13989  1.0000
  O   O6        1.0  0.74921  0.46489  0.86011  1.0000
  O   O7        1.0  0.43115  0.44418  0.25501  1.0000
  O   O8        1.0  0.56885  0.55582  0.74499  1.0000
  O   O9        1.0  0.15249  0.06614  0.70131  1.0000
  O   O10       1.0  0.84751  0.93386  0.29869  1.0000
  O   O11       1.0  0.78351  0.09194  0.59955  1.0000
  O   O12       1.0  0.21650  0.90806  0.40045  1.0000
  O   O13       1.0  0.05881  0.71768  0.34807  1.0000
  O   O14       1.0  0.94118  0.28232  0.65193  1.0000
  O   O15       1.0  0.68922  0.61902  0.29881  1.0000
  O   O16       1.0  0.31078  0.38098  0.70119  1.0000
  O   O17       1.0  0.25171  0.36459  0.89350  1.0000
  O   O18       1.0  0.74829  0.63541  0.10650  1.0000
