data_image0
_chemical_formula_structural       H32Pb2C16N8Cl4
_chemical_formula_sum              "H32 Pb2 C16 N8 Cl4"
_cell_length_a       8.09593
_cell_length_b       8.87605
_cell_length_c       8.87588
_cell_angle_alpha    86.265
_cell_angle_beta     83.1276
_cell_angle_gamma    83.1261

_space_group_name_H-M_alt    "P 1"
_space_group_IT_number       1

loop_
  _space_group_symop_operation_xyz
  'x, y, z'

loop_
  _atom_site_type_symbol
  _atom_site_label
  _atom_site_symmetry_multiplicity
  _atom_site_fract_x
  _atom_site_fract_y
  _atom_site_fract_z
  _atom_site_occupancy
  H   H1        1.0  0.68967  0.17615  0.39476  1.0000
  H   H2        1.0  0.81036  0.60525  0.82386  1.0000
  H   H3        1.0  0.31032  0.82390  0.60526  1.0000
  H   H4        1.0  0.18971  0.39473  0.17610  1.0000
  H   H5        1.0  0.63109  0.32231  0.52383  1.0000
  H   H6        1.0  0.86892  0.47619  0.67765  1.0000
  H   H7        1.0  0.36891  0.67768  0.47618  1.0000
  H   H8        1.0  0.13107  0.52382  0.32233  1.0000
  H   H9        1.0  0.61728  0.12902  0.58772  1.0000
  H   H10       1.0  0.88270  0.41230  0.87100  1.0000
  H   H11       1.0  0.38266  0.87102  0.41236  1.0000
  H   H12       1.0  0.11732  0.58766  0.12896  1.0000
  H   H13       1.0  0.16451  0.04062  0.70805  1.0000
  H   H14       1.0  0.33547  0.29193  0.95934  1.0000
  H   H15       1.0  0.83547  0.95927  0.29194  1.0000
  H   H16       1.0  0.66456  0.70800  0.04062  1.0000
  H   H17       1.0  0.11021  0.22937  0.76379  1.0000
  H   H18       1.0  0.38983  0.23626  0.77064  1.0000
  H   H19       1.0  0.88978  0.77071  0.23619  1.0000
  H   H20       1.0  0.61025  0.76388  0.22939  1.0000
  H   H21       1.0  0.21898  0.31057  0.51270  1.0000
  H   H22       1.0  0.28101  0.48731  0.68941  1.0000
  H   H23       1.0  0.78103  0.68946  0.48729  1.0000
  H   H24       1.0  0.71899  0.51272  0.31049  1.0000
  H   H25       1.0  0.22831  0.12592  0.44478  1.0000
  H   H26       1.0  0.27170  0.55523  0.87409  1.0000
  H   H27       1.0  0.77169  0.87410  0.55528  1.0000
  H   H28       1.0  0.72832  0.44468  0.12591  1.0000
  H   H29       1.0  0.98041  0.25349  0.33995  1.0000
  H   H30       1.0  0.51955  0.66007  0.74652  1.0000
  H   H31       1.0  0.01955  0.74652  0.66012  1.0000
  H   H32       1.0  0.48041  0.33988  0.25351  1.0000
  Pb  Pb1       1.0  0.75009  0.07055  0.92931  1.0000
  Pb  Pb2       1.0  0.24993  0.92935  0.07046  1.0000
  C   C1        1.0  0.86592  0.19357  0.55273  1.0000
  C   C2        1.0  0.63409  0.44728  0.80645  1.0000
  C   C3        1.0  0.13406  0.80647  0.44729  1.0000
  C   C4        1.0  0.36593  0.55270  0.19358  1.0000
  C   C5        1.0  0.69137  0.20513  0.51289  1.0000
  C   C6        1.0  0.80862  0.48713  0.79487  1.0000
  C   C7        1.0  0.30861  0.79487  0.48713  1.0000
  C   C8        1.0  0.19135  0.51287  0.20512  1.0000
  C   C9        1.0  0.09467  0.15003  0.67769  1.0000
  C   C10       1.0  0.40534  0.32235  0.84998  1.0000
  C   C11       1.0  0.90535  0.84995  0.32236  1.0000
  C   C12       1.0  0.59466  0.67775  0.15003  1.0000
  C   C13       1.0  0.14983  0.21103  0.51421  1.0000
  C   C14       1.0  0.35016  0.48582  0.78894  1.0000
  C   C15       1.0  0.85017  0.78896  0.48586  1.0000
  C   C16       1.0  0.64984  0.51422  0.21099  1.0000
  N   N1        1.0  0.91477  0.13419  0.68100  1.0000
  N   N2        1.0  0.58525  0.31897  0.86576  1.0000
  N   N3        1.0  0.08522  0.86573  0.31899  1.0000
  N   N4        1.0  0.41475  0.68099  0.13422  1.0000
  N   N5        1.0  0.98777  0.25207  0.45474  1.0000
  N   N6        1.0  0.51223  0.54527  0.74796  1.0000
  N   N7        1.0  0.01222  0.74796  0.54532  1.0000
  N   N8        1.0  0.48780  0.45468  0.25205  1.0000
  Cl  Cl1       1.0  0.98234  0.21167  0.08576  1.0000
  Cl  Cl2       1.0  0.51765  0.91424  0.78837  1.0000
  Cl  Cl3       1.0  0.01765  0.78837  0.91423  1.0000
  Cl  Cl4       1.0  0.48235  0.08577  0.21168  1.0000
