data_image0
_chemical_formula_structural       Zn4H28C20N20O24
_chemical_formula_sum              "Zn4 H28 C20 N20 O24"
_cell_length_a       8.18108
_cell_length_b       9.98218
_cell_length_c       11.1408
_cell_angle_alpha    90
_cell_angle_beta     105.929
_cell_angle_gamma    90

_space_group_name_H-M_alt    "P 1"
_space_group_IT_number       1

loop_
  _space_group_symop_operation_xyz
  'x, y, z'

loop_
  _atom_site_type_symbol
  _atom_site_label
  _atom_site_symmetry_multiplicity
  _atom_site_fract_x
  _atom_site_fract_y
  _atom_site_fract_z
  _atom_site_occupancy
  Zn  Zn1       1.0  0.24092  0.13855  0.26041  1.0000
  Zn  Zn2       1.0  0.75908  0.63855  0.23959  1.0000
  Zn  Zn3       1.0  0.75908  0.86145  0.73959  1.0000
  Zn  Zn4       1.0  0.24092  0.36145  0.76041  1.0000
  H   H1        1.0  0.22255  0.13131  0.50791  1.0000
  H   H2        1.0  0.77745  0.63131  0.99209  1.0000
  H   H3        1.0  0.77745  0.86869  0.49209  1.0000
  H   H4        1.0  0.22255  0.36869  0.00791  1.0000
  H   H5        1.0  0.26751  0.27822  0.48182  1.0000
  H   H6        1.0  0.73249  0.77822  0.01818  1.0000
  H   H7        1.0  0.73249  0.72178  0.51818  1.0000
  H   H8        1.0  0.26751  0.22178  0.98182  1.0000
  H   H9        1.0  0.46406  0.33434  0.22474  1.0000
  H   H10       1.0  0.53594  0.83434  0.27526  1.0000
  H   H11       1.0  0.53594  0.66566  0.77526  1.0000
  H   H12       1.0  0.46406  0.16566  0.72474  1.0000
  H   H13       1.0  0.39907  0.93002  0.39506  1.0000
  H   H14       1.0  0.60094  0.43002  0.10494  1.0000
  H   H15       1.0  0.60094  0.06998  0.60494  1.0000
  H   H16       1.0  0.39906  0.56998  0.89506  1.0000
  H   H17       1.0  0.08775  0.68299  0.15590  1.0000
  H   H18       1.0  0.91225  0.18299  0.34410  1.0000
  H   H19       1.0  0.91225  0.31701  0.84410  1.0000
  H   H20       1.0  0.08775  0.81701  0.65590  1.0000
  H   H21       1.0  0.51857  0.18453  0.19999  1.0000
  H   H22       1.0  0.48143  0.68453  0.30001  1.0000
  H   H23       1.0  0.48143  0.81547  0.80001  1.0000
  H   H24       1.0  0.51857  0.31547  0.69999  1.0000
  H   H25       1.0  0.53818  0.03530  0.38058  1.0000
  H   H26       1.0  0.46182  0.53530  0.11942  1.0000
  H   H27       1.0  0.46182  0.96470  0.61942  1.0000
  H   H28       1.0  0.53818  0.46470  0.88058  1.0000
  C   C1        1.0  0.23601  0.96160  0.03557  1.0000
  C   C2        1.0  0.76399  0.46160  0.46443  1.0000
  C   C3        1.0  0.76399  0.03840  0.96443  1.0000
  C   C4        1.0  0.23601  0.53840  0.53557  1.0000
  C   C5        1.0  0.19460  0.83416  0.08106  1.0000
  C   C6        1.0  0.80541  0.33417  0.41894  1.0000
  C   C7        1.0  0.80540  0.16584  0.91894  1.0000
  C   C8        1.0  0.19460  0.66584  0.58106  1.0000
  C   C9        1.0  0.28045  0.75976  0.00469  1.0000
  C   C10       1.0  0.71955  0.25976  0.49531  1.0000
  C   C11       1.0  0.71955  0.24024  0.99531  1.0000
  C   C12       1.0  0.28045  0.74024  0.50469  1.0000
  C   C13       1.0  0.31921  0.88971  0.94981  1.0000
  C   C14       1.0  0.68079  0.38971  0.55019  1.0000
  C   C15       1.0  0.68079  0.11029  0.05019  1.0000
  C   C16       1.0  0.31921  0.61029  0.44981  1.0000
  C   C17       1.0  0.03274  0.86059  0.23242  1.0000
  C   C18       1.0  0.96726  0.36059  0.26758  1.0000
  C   C19       1.0  0.96726  0.13941  0.76758  1.0000
  C   C20       1.0  0.03274  0.63941  0.73242  1.0000
  N   N1        1.0  0.05943  0.99015  0.26451  1.0000
  N   N2        1.0  0.94058  0.49015  0.23549  1.0000
  N   N3        1.0  0.94058  0.00985  0.73549  1.0000
  N   N4        1.0  0.05942  0.50985  0.76451  1.0000
  N   N5        1.0  0.95951  0.01502  0.34083  1.0000
  N   N6        1.0  0.04049  0.51502  0.15917  1.0000
  N   N7        1.0  0.04049  0.98498  0.65917  1.0000
  N   N8        1.0  0.95951  0.48498  0.84083  1.0000
  N   N9        1.0  0.87758  0.90746  0.35486  1.0000
  N   N10       1.0  0.12242  0.40746  0.14514  1.0000
  N   N11       1.0  0.12242  0.09254  0.64514  1.0000
  N   N12       1.0  0.87758  0.59254  0.85486  1.0000
  N   N13       1.0  0.91979  0.80723  0.28734  1.0000
  N   N14       1.0  0.08021  0.30723  0.21266  1.0000
  N   N15       1.0  0.08021  0.19277  0.71266  1.0000
  N   N16       1.0  0.91979  0.69277  0.78734  1.0000
  N   N17       1.0  0.10905  0.78720  0.15917  1.0000
  N   N18       1.0  0.89095  0.28721  0.34083  1.0000
  N   N19       1.0  0.89095  0.21279  0.84083  1.0000
  N   N20       1.0  0.10905  0.71279  0.65917  1.0000
  O   O1        1.0  0.21446  0.08301  0.05896  1.0000
  O   O2        1.0  0.78554  0.58301  0.44104  1.0000
  O   O3        1.0  0.78554  0.91699  0.94104  1.0000
  O   O4        1.0  0.21446  0.41699  0.55896  1.0000
  O   O5        1.0  0.27712  0.18429  0.45443  1.0000
  O   O6        1.0  0.72288  0.68429  0.04557  1.0000
  O   O7        1.0  0.72288  0.81571  0.54557  1.0000
  O   O8        1.0  0.27712  0.31571  0.95443  1.0000
  O   O9        1.0  0.30863  0.63757  0.99365  1.0000
  O   O10       1.0  0.69137  0.13757  0.50635  1.0000
  O   O11       1.0  0.69137  0.36243  0.00635  1.0000
  O   O12       1.0  0.30863  0.86243  0.49365  1.0000
  O   O13       1.0  0.45588  0.23961  0.24881  1.0000
  O   O14       1.0  0.54412  0.73961  0.25119  1.0000
  O   O15       1.0  0.54412  0.76039  0.75119  1.0000
  O   O16       1.0  0.45588  0.26039  0.74881  1.0000
  O   O17       1.0  0.38683  0.92488  0.86812  1.0000
  O   O18       1.0  0.61317  0.42488  0.63188  1.0000
  O   O19       1.0  0.61317  0.07512  0.13188  1.0000
  O   O20       1.0  0.38683  0.57512  0.36812  1.0000
  O   O21       1.0  0.44175  0.98112  0.33148  1.0000
  O   O22       1.0  0.55825  0.48112  0.16852  1.0000
  O   O23       1.0  0.55825  0.01888  0.66852  1.0000
  O   O24       1.0  0.44175  0.51888  0.83148  1.0000
