data_image0
_chemical_formula_structural       Co4H28C20N20O24
_chemical_formula_sum              "Co4 H28 C20 N20 O24"
_cell_length_a       8.17833
_cell_length_b       9.96349
_cell_length_c       10.971
_cell_angle_alpha    89.9936
_cell_angle_beta     106.012
_cell_angle_gamma    89.9937

_space_group_name_H-M_alt    "P 1"
_space_group_IT_number       1

loop_
  _space_group_symop_operation_xyz
  'x, y, z'

loop_
  _atom_site_type_symbol
  _atom_site_label
  _atom_site_symmetry_multiplicity
  _atom_site_fract_x
  _atom_site_fract_y
  _atom_site_fract_z
  _atom_site_occupancy
  Co  Co1       1.0  0.23513  0.13488  0.25601  1.0000
  Co  Co2       1.0  0.76486  0.63492  0.24398  1.0000
  Co  Co3       1.0  0.76488  0.86518  0.74392  1.0000
  Co  Co4       1.0  0.23518  0.36518  0.75611  1.0000
  H   H1        1.0  0.22198  0.13067  0.50691  1.0000
  H   H2        1.0  0.77810  0.63066  0.99312  1.0000
  H   H3        1.0  0.77813  0.86934  0.49308  1.0000
  H   H4        1.0  0.22190  0.36927  0.00690  1.0000
  H   H5        1.0  0.26252  0.27785  0.47654  1.0000
  H   H6        1.0  0.73753  0.77785  0.02343  1.0000
  H   H7        1.0  0.73758  0.72218  0.52352  1.0000
  H   H8        1.0  0.26234  0.22207  0.97648  1.0000
  H   H9        1.0  0.45955  0.33755  0.22688  1.0000
  H   H10       1.0  0.54039  0.83756  0.27312  1.0000
  H   H11       1.0  0.54029  0.66248  0.77299  1.0000
  H   H12       1.0  0.45963  0.16250  0.72696  1.0000
  H   H13       1.0  0.39555  0.93062  0.39361  1.0000
  H   H14       1.0  0.60449  0.43066  0.10640  1.0000
  H   H15       1.0  0.60426  0.06933  0.60624  1.0000
  H   H16       1.0  0.39562  0.56928  0.89373  1.0000
  H   H17       1.0  0.08893  0.68144  0.15799  1.0000
  H   H18       1.0  0.91108  0.18143  0.34201  1.0000
  H   H19       1.0  0.91111  0.31858  0.84197  1.0000
  H   H20       1.0  0.08893  0.81859  0.65806  1.0000
  H   H21       1.0  0.51341  0.18809  0.19932  1.0000
  H   H22       1.0  0.48655  0.68808  0.30064  1.0000
  H   H23       1.0  0.48642  0.81194  0.80046  1.0000
  H   H24       1.0  0.51356  0.31197  0.69954  1.0000
  H   H25       1.0  0.53199  0.03768  0.37699  1.0000
  H   H26       1.0  0.46803  0.53772  0.12300  1.0000
  H   H27       1.0  0.46790  0.96225  0.62293  1.0000
  H   H28       1.0  0.53201  0.46218  0.87710  1.0000
  C   C1        1.0  0.23590  0.96116  0.03694  1.0000
  C   C2        1.0  0.76407  0.46114  0.46306  1.0000
  C   C3        1.0  0.76411  0.03886  0.96299  1.0000
  C   C4        1.0  0.23592  0.53886  0.53706  1.0000
  C   C5        1.0  0.19501  0.83368  0.08327  1.0000
  C   C6        1.0  0.80496  0.33368  0.41672  1.0000
  C   C7        1.0  0.80508  0.16634  0.91671  1.0000
  C   C8        1.0  0.19493  0.66633  0.58331  1.0000
  C   C9        1.0  0.28268  0.75952  0.00655  1.0000
  C   C10       1.0  0.71730  0.25950  0.49343  1.0000
  C   C11       1.0  0.71747  0.24049  0.99347  1.0000
  C   C12       1.0  0.28252  0.74047  0.50651  1.0000
  C   C13       1.0  0.32133  0.88983  0.95093  1.0000
  C   C14       1.0  0.67864  0.38978  0.54907  1.0000
  C   C15       1.0  0.67875  0.11019  0.04904  1.0000
  C   C16       1.0  0.32123  0.61014  0.45098  1.0000
  C   C17       1.0  0.03003  0.85987  0.23461  1.0000
  C   C18       1.0  0.96998  0.35987  0.26539  1.0000
  C   C19       1.0  0.97007  0.14017  0.76534  1.0000
  C   C20       1.0  0.02998  0.64014  0.73468  1.0000
  N   N1        1.0  0.05502  0.99041  0.26574  1.0000
  N   N2        1.0  0.94499  0.49043  0.23427  1.0000
  N   N3        1.0  0.94515  0.00960  0.73426  1.0000
  N   N4        1.0  0.05491  0.50956  0.76571  1.0000
  N   N5        1.0  0.95368  0.01505  0.34211  1.0000
  N   N6        1.0  0.04633  0.51506  0.15789  1.0000
  N   N7        1.0  0.04647  0.98501  0.65792  1.0000
  N   N8        1.0  0.95361  0.48491  0.84208  1.0000
  N   N9        1.0  0.87302  0.90678  0.35718  1.0000
  N   N10       1.0  0.12699  0.40678  0.14282  1.0000
  N   N11       1.0  0.12712  0.09330  0.64284  1.0000
  N   N12       1.0  0.87297  0.59320  0.85719  1.0000
  N   N13       1.0  0.91671  0.80575  0.28984  1.0000
  N   N14       1.0  0.08330  0.30575  0.21017  1.0000
  N   N15       1.0  0.08338  0.19432  0.71011  1.0000
  N   N16       1.0  0.91667  0.69424  0.78994  1.0000
  N   N17       1.0  0.10912  0.78638  0.16187  1.0000
  N   N18       1.0  0.89088  0.28638  0.33813  1.0000
  N   N19       1.0  0.89094  0.21363  0.83807  1.0000
  N   N20       1.0  0.10908  0.71363  0.66193  1.0000
  O   O1        1.0  0.21215  0.08302  0.06045  1.0000
  O   O2        1.0  0.78779  0.58301  0.43956  1.0000
  O   O3        1.0  0.78769  0.91700  0.93938  1.0000
  O   O4        1.0  0.21240  0.41697  0.56071  1.0000
  O   O5        1.0  0.27050  0.18381  0.44851  1.0000
  O   O6        1.0  0.72953  0.68381  0.05148  1.0000
  O   O7        1.0  0.72952  0.81625  0.55147  1.0000
  O   O8        1.0  0.27050  0.31616  0.94851  1.0000
  O   O9        1.0  0.31216  0.63730  0.99617  1.0000
  O   O10       1.0  0.68783  0.13727  0.50379  1.0000
  O   O11       1.0  0.68804  0.36272  0.00391  1.0000
  O   O12       1.0  0.31190  0.86269  0.49602  1.0000
  O   O13       1.0  0.44804  0.24205  0.24749  1.0000
  O   O14       1.0  0.55188  0.74206  0.25246  1.0000
  O   O15       1.0  0.55175  0.75795  0.75229  1.0000
  O   O16       1.0  0.44825  0.25797  0.74775  1.0000
  O   O17       1.0  0.39048  0.92444  0.86877  1.0000
  O   O18       1.0  0.60954  0.42439  0.63123  1.0000
  O   O19       1.0  0.60951  0.07558  0.13114  1.0000
  O   O20       1.0  0.39046  0.57553  0.36886  1.0000
  O   O21       1.0  0.43568  0.98244  0.32811  1.0000
  O   O22       1.0  0.56436  0.48247  0.17190  1.0000
  O   O23       1.0  0.56424  0.01749  0.67177  1.0000
  O   O24       1.0  0.43568  0.51744  0.82822  1.0000
