data_image0
_chemical_formula_structural       ZnH26C22N4O6
_chemical_formula_sum              "Zn1 H26 C22 N4 O6"
_cell_length_a       5.22827
_cell_length_b       7.58069
_cell_length_c       13.9513
_cell_angle_alpha    99.5451
_cell_angle_beta     100.817
_cell_angle_gamma    90.0106

_space_group_name_H-M_alt    "P 1"
_space_group_IT_number       1

loop_
  _space_group_symop_operation_xyz
  'x, y, z'

loop_
  _atom_site_type_symbol
  _atom_site_label
  _atom_site_symmetry_multiplicity
  _atom_site_fract_x
  _atom_site_fract_y
  _atom_site_fract_z
  _atom_site_occupancy
  Zn  Zn1       1.0  0.07070  0.99964  0.99993  1.0000
  H   H1        1.0  0.43117  0.67621  0.00147  1.0000
  H   H2        1.0  0.42953  0.32323  0.99841  1.0000
  H   H3        1.0  0.26745  0.64164  0.09791  1.0000
  H   H4        1.0  0.16903  0.35773  0.90204  1.0000
  H   H5        1.0  0.09752  0.55094  0.22874  1.0000
  H   H6        1.0  0.86748  0.44890  0.77114  1.0000
  H   H7        1.0  0.90179  0.50120  0.36423  1.0000
  H   H8        1.0  0.53674  0.49855  0.63556  1.0000
  H   H9        1.0  0.72672  0.30707  0.29507  1.0000
  H   H10       1.0  0.43016  0.69235  0.70463  1.0000
  H   H11       1.0  0.38058  0.47378  0.44289  1.0000
  H   H12       1.0  0.93758  0.52690  0.55734  1.0000
  H   H13       1.0  0.72282  0.26825  0.50195  1.0000
  H   H14       1.0  0.22006  0.73319  0.49857  1.0000
  H   H15       1.0  0.67122  0.94200  0.44234  1.0000
  H   H16       1.0  0.22646  0.05933  0.55804  1.0000
  H   H17       1.0  0.26547  0.81835  0.32300  1.0000
  H   H18       1.0  0.93917  0.18214  0.67719  1.0000
  H   H19       1.0  0.92439  0.02070  0.26605  1.0000
  H   H20       1.0  0.65570  0.97896  0.73387  1.0000
  H   H21       1.0  0.32452  0.94349  0.16578  1.0000
  H   H22       1.0  0.15824  0.05592  0.83412  1.0000
  H   H23       1.0  0.53674  0.98279  0.09808  1.0000
  H   H24       1.0  0.43831  0.01670  0.90181  1.0000
  H   H25       1.0  0.53633  0.43852  0.16101  1.0000
  H   H26       1.0  0.37411  0.56089  0.83880  1.0000
  C   C1        1.0  0.42714  0.71661  0.08047  1.0000
  C   C2        1.0  0.34633  0.28291  0.91943  1.0000
  C   C3        1.0  0.69263  0.67428  0.13656  1.0000
  C   C4        1.0  0.55551  0.32542  0.86334  1.0000
  C   C5        1.0  0.94725  0.44347  0.21232  1.0000
  C   C6        1.0  0.73370  0.55639  0.78753  1.0000
  C   C7        1.0  0.04172  0.29264  0.14009  1.0000
  C   C8        1.0  0.90062  0.70721  0.85976  1.0000
  C   C9        1.0  0.91525  0.38023  0.30980  1.0000
  C   C10       1.0  0.60427  0.61952  0.69005  1.0000
  C   C11       1.0  0.12623  0.26197  0.35018  1.0000
  C   C12       1.0  0.77470  0.73814  0.64987  1.0000
  C   C13       1.0  0.35279  0.32965  0.41723  1.0000
  C   C14       1.0  0.93470  0.67097  0.58299  1.0000
  C   C15       1.0  0.54630  0.21463  0.45035  1.0000
  C   C16       1.0  0.09486  0.78643  0.55007  1.0000
  C   C17       1.0  0.51885  0.03040  0.41636  1.0000
  C   C18       1.0  0.10033  0.97065  0.58398  1.0000
  C   C19       1.0  0.29329  0.96195  0.34994  1.0000
  C   C20       1.0  0.94054  0.03864  0.65019  1.0000
  C   C21       1.0  0.09854  0.07653  0.31810  1.0000
  C   C22       1.0  0.77815  0.92354  0.68192  1.0000
  N   N1        1.0  0.37147  0.90827  0.09722  1.0000
  N   N2        1.0  0.27395  0.09124  0.90266  1.0000
  N   N3        1.0  0.70464  0.51647  0.16939  1.0000
  N   N4        1.0  0.53415  0.48316  0.83040  1.0000
  O   O1        1.0  0.88394  0.77843  0.14625  1.0000
  O   O2        1.0  0.73734  0.22149  0.85371  1.0000
  O   O3        1.0  0.28306  0.28556  0.14202  1.0000
  O   O4        1.0  0.14020  0.71389  0.85801  1.0000
  O   O5        1.0  0.87421  0.17919  0.08278  1.0000
  O   O6        1.0  0.79058  0.82075  0.91704  1.0000
