data_image0
_chemical_formula_structural       Mn2H28C20N8O8
_chemical_formula_sum              "Mn2 H28 C20 N8 O8"
_cell_length_a       4.91763
_cell_length_b       9.20208
_cell_length_c       13.1269
_cell_angle_alpha    91.3758
_cell_angle_beta     88.6797
_cell_angle_gamma    90.3359

_space_group_name_H-M_alt    "P 1"
_space_group_IT_number       1

loop_
  _space_group_symop_operation_xyz
  'x, y, z'

loop_
  _atom_site_type_symbol
  _atom_site_label
  _atom_site_symmetry_multiplicity
  _atom_site_fract_x
  _atom_site_fract_y
  _atom_site_fract_z
  _atom_site_occupancy
  Mn  Mn1       1.0  0.99999  0.00000  0.00000  1.0000
  Mn  Mn2       1.0  0.50001  0.50000  0.50000  1.0000
  H   H1        1.0  0.52738  0.11945  0.86606  1.0000
  H   H2        1.0  0.02584  0.37886  0.62366  1.0000
  H   H3        1.0  0.47262  0.88054  0.13394  1.0000
  H   H4        1.0  0.97416  0.62114  0.37634  1.0000
  H   H5        1.0  0.45176  0.62371  0.88987  1.0000
  H   H6        1.0  0.97084  0.86748  0.59735  1.0000
  H   H7        1.0  0.54824  0.37629  0.11013  1.0000
  H   H8        1.0  0.02916  0.13253  0.40266  1.0000
  H   H9        1.0  0.40010  0.69761  0.76862  1.0000
  H   H10       1.0  0.92494  0.79810  0.72100  1.0000
  H   H11       1.0  0.59989  0.30239  0.23138  1.0000
  H   H12       1.0  0.07505  0.20189  0.27901  1.0000
  H   H13       1.0  0.14370  0.72077  0.86556  1.0000
  H   H14       1.0  0.65959  0.77575  0.63123  1.0000
  H   H15       1.0  0.85630  0.27924  0.13444  1.0000
  H   H16       1.0  0.34042  0.22425  0.36877  1.0000
  H   H17       1.0  0.47839  0.36255  0.77052  1.0000
  H   H18       1.0  0.98595  0.13304  0.71526  1.0000
  H   H19       1.0  0.52161  0.63745  0.22947  1.0000
  H   H20       1.0  0.01405  0.86695  0.28474  1.0000
  H   H21       1.0  0.91093  0.53289  0.83233  1.0000
  H   H22       1.0  0.44666  0.98116  0.65449  1.0000
  H   H23       1.0  0.08907  0.46711  0.16766  1.0000
  H   H24       1.0  0.55334  0.01884  0.34551  1.0000
  H   H25       1.0  0.18774  0.35469  0.96068  1.0000
  H   H26       1.0  0.72995  0.17337  0.53421  1.0000
  H   H27       1.0  0.81225  0.64532  0.03932  1.0000
  H   H28       1.0  0.27007  0.82664  0.46579  1.0000
  C   C1        1.0  0.49390  0.85707  0.88402  1.0000
  C   C2        1.0  0.99591  0.63366  0.60440  1.0000
  C   C3        1.0  0.50609  0.14293  0.11598  1.0000
  C   C4        1.0  0.00409  0.36634  0.39560  1.0000
  C   C5        1.0  0.36327  0.71554  0.85097  1.0000
  C   C6        1.0  0.88012  0.77758  0.64014  1.0000
  C   C7        1.0  0.63674  0.28446  0.14903  1.0000
  C   C8        1.0  0.11989  0.22242  0.35986  1.0000
  C   C9        1.0  0.64341  0.33865  0.82061  1.0000
  C   C10       1.0  0.15752  0.16457  0.66738  1.0000
  C   C11       1.0  0.35659  0.66135  0.17940  1.0000
  C   C12       1.0  0.84247  0.83542  0.33261  1.0000
  C   C13       1.0  0.86263  0.42251  0.85312  1.0000
  C   C14       1.0  0.39036  0.09051  0.63551  1.0000
  C   C15       1.0  0.13736  0.57749  0.14687  1.0000
  C   C16       1.0  0.60965  0.90948  0.36448  1.0000
  C   C17       1.0  0.00592  0.33246  0.91784  1.0000
  C   C18       1.0  0.53837  0.18852  0.57497  1.0000
  C   C19       1.0  0.99407  0.66755  0.08216  1.0000
  C   C20       1.0  0.46163  0.81149  0.42503  1.0000
  N   N1        1.0  0.88333  0.20194  0.92423  1.0000
  N   N2        1.0  0.40617  0.31628  0.57032  1.0000
  N   N3        1.0  0.11666  0.79807  0.07578  1.0000
  N   N4        1.0  0.59383  0.68372  0.42968  1.0000
  N   N5        1.0  0.66349  0.20804  0.86440  1.0000
  N   N6        1.0  0.17375  0.29888  0.62734  1.0000
  N   N7        1.0  0.33650  0.79196  0.13560  1.0000
  N   N8        1.0  0.82626  0.70111  0.37266  1.0000
  O   O1        1.0  0.34380  0.97142  0.88941  1.0000
  O   O2        1.0  0.83256  0.52522  0.58919  1.0000
  O   O3        1.0  0.65619  0.02858  0.11059  1.0000
  O   O4        1.0  0.16744  0.47478  0.41081  1.0000
  O   O5        1.0  0.74601  0.85884  0.90287  1.0000
  O   O6        1.0  0.25410  0.62269  0.59330  1.0000
  O   O7        1.0  0.25399  0.14117  0.09713  1.0000
  O   O8        1.0  0.74590  0.37731  0.40670  1.0000
