data_image0
_chemical_formula_structural       Cd4P8H48C40N8O32
_chemical_formula_sum              "Cd4 P8 H48 C40 N8 O32"
_cell_length_a       10.8583
_cell_length_b       10.8583
_cell_length_c       13.7306
_cell_angle_alpha    98.8315
_cell_angle_beta     98.8316
_cell_angle_gamma    111.513

_space_group_name_H-M_alt    "P 1"
_space_group_IT_number       1

loop_
  _space_group_symop_operation_xyz
  'x, y, z'

loop_
  _atom_site_type_symbol
  _atom_site_label
  _atom_site_symmetry_multiplicity
  _atom_site_fract_x
  _atom_site_fract_y
  _atom_site_fract_z
  _atom_site_occupancy
  Cd  Cd1       1.0  0.43682  0.36059  0.62092  1.0000
  Cd  Cd2       1.0  0.36059  0.43682  0.12092  1.0000
  Cd  Cd3       1.0  0.56318  0.63941  0.37908  1.0000
  Cd  Cd4       1.0  0.63941  0.56318  0.87908  1.0000
  P   P1        1.0  0.35057  0.31720  0.35473  1.0000
  P   P2        1.0  0.31720  0.35057  0.85473  1.0000
  P   P3        1.0  0.64943  0.68280  0.64527  1.0000
  P   P4        1.0  0.68280  0.64943  0.14527  1.0000
  P   P5        1.0  0.19548  0.50871  0.56919  1.0000
  P   P6        1.0  0.50871  0.19548  0.06920  1.0000
  P   P7        1.0  0.80453  0.49129  0.43081  1.0000
  P   P8        1.0  0.49129  0.80452  0.93080  1.0000
  H   H1        1.0  0.40459  0.64790  0.56469  1.0000
  H   H2        1.0  0.64790  0.40459  0.06469  1.0000
  H   H3        1.0  0.59541  0.35210  0.43531  1.0000
  H   H4        1.0  0.35210  0.59541  0.93531  1.0000
  H   H5        1.0  0.00995  0.54420  0.59254  1.0000
  H   H6        1.0  0.54420  0.00995  0.09254  1.0000
  H   H7        1.0  0.99005  0.45580  0.40746  1.0000
  H   H8        1.0  0.45580  0.99005  0.90746  1.0000
  H   H9        1.0  0.17371  0.34121  0.40720  1.0000
  H   H10       1.0  0.34121  0.17371  0.90719  1.0000
  H   H11       1.0  0.82629  0.65879  0.59281  1.0000
  H   H12       1.0  0.65879  0.82629  0.09280  1.0000
  H   H13       1.0  0.37813  0.21114  0.21512  1.0000
  H   H14       1.0  0.21115  0.37813  0.71512  1.0000
  H   H15       1.0  0.62187  0.78885  0.78488  1.0000
  H   H16       1.0  0.78885  0.62187  0.28488  1.0000
  H   H17       1.0  0.11814  0.16535  0.58678  1.0000
  H   H18       1.0  0.16535  0.11813  0.08678  1.0000
  H   H19       1.0  0.88186  0.83465  0.41322  1.0000
  H   H20       1.0  0.83465  0.88186  0.91322  1.0000
  H   H21       1.0  0.97575  0.93296  0.61070  1.0000
  H   H22       1.0  0.93296  0.97576  0.11070  1.0000
  H   H23       1.0  0.02425  0.06704  0.38930  1.0000
  H   H24       1.0  0.06704  0.02424  0.88929  1.0000
  H   H25       1.0  0.09314  0.78028  0.64862  1.0000
  H   H26       1.0  0.78029  0.09314  0.14862  1.0000
  H   H27       1.0  0.90686  0.21971  0.35138  1.0000
  H   H28       1.0  0.21971  0.90686  0.85137  1.0000
  H   H29       1.0  0.34075  0.85994  0.66301  1.0000
  H   H30       1.0  0.85994  0.34075  0.16301  1.0000
  H   H31       1.0  0.65925  0.14006  0.33699  1.0000
  H   H32       1.0  0.14006  0.65925  0.83699  1.0000
  H   H33       1.0  0.52544  0.91125  0.62333  1.0000
  H   H34       1.0  0.91125  0.52544  0.12333  1.0000
  H   H35       1.0  0.47456  0.08875  0.37667  1.0000
  H   H36       1.0  0.08875  0.47456  0.87667  1.0000
  H   H37       1.0  0.76850  0.00422  0.62065  1.0000
  H   H38       1.0  0.00422  0.76850  0.12065  1.0000
  H   H39       1.0  0.23150  0.99578  0.37935  1.0000
  H   H40       1.0  0.99578  0.23150  0.87935  1.0000
  H   H41       1.0  0.88784  0.25491  0.62490  1.0000
  H   H42       1.0  0.25491  0.88784  0.12490  1.0000
  H   H43       1.0  0.11216  0.74509  0.37510  1.0000
  H   H44       1.0  0.74509  0.11216  0.87510  1.0000
  H   H45       1.0  0.75260  0.39769  0.63389  1.0000
  H   H46       1.0  0.39769  0.75260  0.13389  1.0000
  H   H47       1.0  0.24740  0.60231  0.36611  1.0000
  H   H48       1.0  0.60231  0.24740  0.86611  1.0000
  C   C1        1.0  0.16249  0.09338  0.60279  1.0000
  C   C2        1.0  0.09338  0.16250  0.10279  1.0000
  C   C3        1.0  0.83750  0.90663  0.39721  1.0000
  C   C4        1.0  0.90662  0.83750  0.89721  1.0000
  C   C5        1.0  0.08450  0.96559  0.61586  1.0000
  C   C6        1.0  0.96559  0.08449  0.11587  1.0000
  C   C7        1.0  0.91550  0.03441  0.38414  1.0000
  C   C8        1.0  0.03441  0.91550  0.88413  1.0000
  C   C9        1.0  0.15002  0.88082  0.63748  1.0000
  C   C10       1.0  0.88083  0.15002  0.13748  1.0000
  C   C11       1.0  0.84998  0.11918  0.36252  1.0000
  C   C12       1.0  0.11917  0.84997  0.86252  1.0000
  C   C13       1.0  0.28954  0.92554  0.64518  1.0000
  C   C14       1.0  0.92554  0.28954  0.14518  1.0000
  C   C15       1.0  0.71046  0.07446  0.35482  1.0000
  C   C16       1.0  0.07446  0.71046  0.85482  1.0000
  C   C17       1.0  0.36101  0.05428  0.62920  1.0000
  C   C18       1.0  0.05428  0.36102  0.12920  1.0000
  C   C19       1.0  0.63898  0.94572  0.37080  1.0000
  C   C20       1.0  0.94572  0.63898  0.87080  1.0000
  C   C21       1.0  0.50862  0.10522  0.63042  1.0000
  C   C22       1.0  0.10522  0.50862  0.13042  1.0000
  C   C23       1.0  0.49138  0.89478  0.36958  1.0000
  C   C24       1.0  0.89478  0.49138  0.86958  1.0000
  C   C25       1.0  0.57737  0.01862  0.62579  1.0000
  C   C26       1.0  0.01862  0.57738  0.12579  1.0000
  C   C27       1.0  0.42263  0.98138  0.37421  1.0000
  C   C28       1.0  0.98138  0.42263  0.87421  1.0000
  C   C29       1.0  0.71461  0.07134  0.62367  1.0000
  C   C30       1.0  0.07133  0.71461  0.12366  1.0000
  C   C31       1.0  0.28539  0.92866  0.37634  1.0000
  C   C32       1.0  0.92867  0.28539  0.87634  1.0000
  C   C33       1.0  0.78060  0.20895  0.62599  1.0000
  C   C34       1.0  0.20895  0.78060  0.12599  1.0000
  C   C35       1.0  0.21940  0.79105  0.37401  1.0000
  C   C36       1.0  0.79105  0.21940  0.87401  1.0000
  C   C37       1.0  0.70596  0.28929  0.63119  1.0000
  C   C38       1.0  0.28929  0.70596  0.13119  1.0000
  C   C39       1.0  0.29404  0.71071  0.36881  1.0000
  C   C40       1.0  0.71071  0.29404  0.86881  1.0000
  N   N1        1.0  0.29655  0.13609  0.60916  1.0000
  N   N2        1.0  0.13609  0.29655  0.10916  1.0000
  N   N3        1.0  0.70345  0.86391  0.39084  1.0000
  N   N4        1.0  0.86391  0.70345  0.89084  1.0000
  N   N5        1.0  0.57403  0.23850  0.63319  1.0000
  N   N6        1.0  0.23850  0.57403  0.13319  1.0000
  N   N7        1.0  0.42597  0.76150  0.36681  1.0000
  N   N8        1.0  0.76150  0.42597  0.86681  1.0000
  O   O1        1.0  0.25047  0.41628  0.61876  1.0000
  O   O2        1.0  0.41628  0.25047  0.11877  1.0000
  O   O3        1.0  0.74953  0.58372  0.38124  1.0000
  O   O4        1.0  0.58372  0.74953  0.88124  1.0000
  O   O5        1.0  0.45572  0.34489  0.45303  1.0000
  O   O6        1.0  0.34489  0.45572  0.95303  1.0000
  O   O7        1.0  0.54428  0.65511  0.54697  1.0000
  O   O8        1.0  0.65511  0.54428  0.04697  1.0000
  O   O9        1.0  0.38325  0.44052  0.30635  1.0000
  O   O10       1.0  0.44052  0.38325  0.80635  1.0000
  O   O11       1.0  0.61676  0.55948  0.69365  1.0000
  O   O12       1.0  0.55948  0.61676  0.19365  1.0000
  O   O13       1.0  0.31559  0.65034  0.58005  1.0000
  O   O14       1.0  0.65034  0.31559  0.08005  1.0000
  O   O15       1.0  0.68441  0.34966  0.41995  1.0000
  O   O16       1.0  0.34966  0.68441  0.91995  1.0000
  O   O17       1.0  0.09717  0.54151  0.63183  1.0000
  O   O18       1.0  0.54151  0.09717  0.13183  1.0000
  O   O19       1.0  0.90283  0.45849  0.36817  1.0000
  O   O20       1.0  0.45849  0.90283  0.86817  1.0000
  O   O21       1.0  0.20277  0.26782  0.37445  1.0000
  O   O22       1.0  0.26782  0.20278  0.87445  1.0000
  O   O23       1.0  0.79723  0.73218  0.62555  1.0000
  O   O24       1.0  0.73218  0.79723  0.12555  1.0000
  O   O25       1.0  0.34419  0.18957  0.27879  1.0000
  O   O26       1.0  0.18957  0.34419  0.77879  1.0000
  O   O27       1.0  0.65581  0.81043  0.72121  1.0000
  O   O28       1.0  0.81043  0.65581  0.22121  1.0000
  O   O29       1.0  0.12152  0.44406  0.45764  1.0000
  O   O30       1.0  0.44406  0.12152  0.95764  1.0000
  O   O31       1.0  0.87848  0.55594  0.54236  1.0000
  O   O32       1.0  0.55594  0.87848  0.04236  1.0000
