data_image0
_chemical_formula_structural       Ag4H28C20O8
_chemical_formula_sum              "Ag4 H28 C20 O8"
_cell_length_a       5.90896
_cell_length_b       8.87762
_cell_length_c       10.4057
_cell_angle_alpha    90.0001
_cell_angle_beta     90.8954
_cell_angle_gamma    90.0003

_space_group_name_H-M_alt    "P 1"
_space_group_IT_number       1

loop_
  _space_group_symop_operation_xyz
  'x, y, z'

loop_
  _atom_site_type_symbol
  _atom_site_label
  _atom_site_symmetry_multiplicity
  _atom_site_fract_x
  _atom_site_fract_y
  _atom_site_fract_z
  _atom_site_occupancy
  Ag  Ag1       1.0  0.08962  0.62559  0.43795  1.0000
  Ag  Ag2       1.0  0.58962  0.87441  0.43796  1.0000
  Ag  Ag3       1.0  0.91040  0.37441  0.56204  1.0000
  Ag  Ag4       1.0  0.41040  0.12560  0.56203  1.0000
  H   H1        1.0  0.26076  0.33895  0.33472  1.0000
  H   H2        1.0  0.76077  0.16105  0.33471  1.0000
  H   H3        1.0  0.73924  0.66105  0.66528  1.0000
  H   H4        1.0  0.23921  0.83895  0.66528  1.0000
  H   H5        1.0  0.90663  0.37128  0.21135  1.0000
  H   H6        1.0  0.40664  0.12873  0.21135  1.0000
  H   H7        1.0  0.09337  0.62872  0.78865  1.0000
  H   H8        1.0  0.59334  0.87126  0.78864  1.0000
  H   H9        1.0  0.09841  0.30410  0.09768  1.0000
  H   H10       1.0  0.59843  0.19591  0.09768  1.0000
  H   H11       1.0  0.90159  0.69590  0.90232  1.0000
  H   H12       1.0  0.40157  0.80409  0.90232  1.0000
  H   H13       1.0  0.03239  0.49943  0.10170  1.0000
  H   H14       1.0  0.53240  0.00058  0.10170  1.0000
  H   H15       1.0  0.96761  0.50058  0.89830  1.0000
  H   H16       1.0  0.46760  0.99941  0.89830  1.0000
  H   H17       1.0  0.61710  0.61078  0.09105  1.0000
  H   H18       1.0  0.11710  0.88921  0.09105  1.0000
  H   H19       1.0  0.38291  0.38921  0.90895  1.0000
  H   H20       1.0  0.88289  0.11079  0.90896  1.0000
  H   H21       1.0  0.46220  0.74546  0.17856  1.0000
  H   H22       1.0  0.96219  0.75453  0.17857  1.0000
  H   H23       1.0  0.53782  0.25454  0.82144  1.0000
  H   H24       1.0  0.03780  0.24546  0.82144  1.0000
  H   H25       1.0  0.31870  0.62311  0.06882  1.0000
  H   H26       1.0  0.81869  0.87689  0.06882  1.0000
  H   H27       1.0  0.68132  0.37689  0.93118  1.0000
  H   H28       1.0  0.18130  0.12311  0.93118  1.0000
  C   C1        1.0  0.61628  0.51247  0.34543  1.0000
  C   C2        1.0  0.11628  0.98755  0.34543  1.0000
  C   C3        1.0  0.38372  0.48753  0.65457  1.0000
  C   C4        1.0  0.88371  0.01247  0.65458  1.0000
  C   C5        1.0  0.42849  0.51814  0.24646  1.0000
  C   C6        1.0  0.92849  0.98186  0.24646  1.0000
  C   C7        1.0  0.57152  0.48186  0.75355  1.0000
  C   C8        1.0  0.07150  0.01814  0.75355  1.0000
  C   C9        1.0  0.25420  0.41970  0.25557  1.0000
  C   C10       1.0  0.75421  0.08030  0.25557  1.0000
  C   C11       1.0  0.74580  0.58030  0.74443  1.0000
  C   C12       1.0  0.24578  0.91969  0.74443  1.0000
  C   C13       1.0  0.06304  0.39995  0.16174  1.0000
  C   C14       1.0  0.56305  0.10006  0.16174  1.0000
  C   C15       1.0  0.93697  0.60005  0.83826  1.0000
  C   C16       1.0  0.43694  0.89994  0.83826  1.0000
  C   C17       1.0  0.45642  0.63032  0.14023  1.0000
  C   C18       1.0  0.95642  0.86968  0.14023  1.0000
  C   C19       1.0  0.54359  0.36968  0.85977  1.0000
  C   C20       1.0  0.04357  0.13032  0.85978  1.0000
  O   O1        1.0  0.74518  0.62935  0.35139  1.0000
  O   O2        1.0  0.24518  0.87066  0.35139  1.0000
  O   O3        1.0  0.25482  0.37065  0.64862  1.0000
  O   O4        1.0  0.75481  0.12935  0.64862  1.0000
  O   O5        1.0  0.64177  0.39355  0.41210  1.0000
  O   O6        1.0  0.14178  0.10646  0.41208  1.0000
  O   O7        1.0  0.35823  0.60644  0.58791  1.0000
  O   O8        1.0  0.85822  0.89355  0.58791  1.0000
