data_image0
_chemical_formula_structural       Nd2Fe2H36C32N16O12
_chemical_formula_sum              "Nd2 Fe2 H36 C32 N16 O12"
_cell_length_a       9.4206
_cell_length_b       9.73086
_cell_length_c       15.0666
_cell_angle_alpha    77.8813
_cell_angle_beta     71.769
_cell_angle_gamma    61.0338

_space_group_name_H-M_alt    "P 1"
_space_group_IT_number       1

loop_
  _space_group_symop_operation_xyz
  'x, y, z'

loop_
  _atom_site_type_symbol
  _atom_site_label
  _atom_site_symmetry_multiplicity
  _atom_site_fract_x
  _atom_site_fract_y
  _atom_site_fract_z
  _atom_site_occupancy
  Nd  Nd1       1.0  0.38999  0.75001  0.24999  1.0000
  Nd  Nd2       1.0  0.61001  0.24999  0.75001  1.0000
  Fe  Fe1       1.0  0.50000  0.00000  0.50000  1.0000
  Fe  Fe2       1.0  0.00000  0.50000  0.00000  1.0000
  H   H1        1.0  0.63737  0.93199  0.02693  1.0000
  H   H2        1.0  0.59629  0.56836  0.47284  1.0000
  H   H3        1.0  0.36263  0.06801  0.97307  1.0000
  H   H4        1.0  0.40371  0.43164  0.52716  1.0000
  H   H5        1.0  0.81828  0.06940  0.98767  1.0000
  H   H6        1.0  0.87542  0.43117  0.51207  1.0000
  H   H7        1.0  0.18172  0.93060  0.01233  1.0000
  H   H8        1.0  0.12458  0.56882  0.48794  1.0000
  H   H9        1.0  0.75333  0.27233  0.09234  1.0000
  H   H10       1.0  0.11826  0.22812  0.40750  1.0000
  H   H11       1.0  0.24667  0.72767  0.90766  1.0000
  H   H12       1.0  0.88174  0.77188  0.59250  1.0000
  H   H13       1.0  0.51073  0.32478  0.23597  1.0000
  H   H14       1.0  0.07182  0.17522  0.26400  1.0000
  H   H15       1.0  0.48927  0.67522  0.76403  1.0000
  H   H16       1.0  0.92818  0.82477  0.73600  1.0000
  H   H17       1.0  0.34103  0.17839  0.26381  1.0000
  H   H18       1.0  0.78345  0.32127  0.23626  1.0000
  H   H19       1.0  0.65897  0.82161  0.73619  1.0000
  H   H20       1.0  0.21655  0.67873  0.76374  1.0000
  H   H21       1.0  0.18918  0.58074  0.23941  1.0000
  H   H22       1.0  0.00926  0.91927  0.26056  1.0000
  H   H23       1.0  0.81083  0.41926  0.76059  1.0000
  H   H24       1.0  0.99074  0.08073  0.73944  1.0000
  H   H25       1.0  0.25701  0.49435  0.33067  1.0000
  H   H26       1.0  0.08201  0.00568  0.16931  1.0000
  H   H27       1.0  0.74299  0.50565  0.66933  1.0000
  H   H28       1.0  0.91799  0.99432  0.83068  1.0000
  H   H29       1.0  0.37630  0.58466  0.09635  1.0000
  H   H30       1.0  0.05727  0.91520  0.40370  1.0000
  H   H31       1.0  0.62370  0.41534  0.90366  1.0000
  H   H32       1.0  0.94273  0.08480  0.59630  1.0000
  H   H33       1.0  0.54912  0.59689  0.05436  1.0000
  H   H34       1.0  0.20042  0.90297  0.44560  1.0000
  H   H35       1.0  0.45088  0.40311  0.94564  1.0000
  H   H36       1.0  0.79958  0.09702  0.55440  1.0000
  C   C1        1.0  0.51485  0.90334  0.39835  1.0000
  C   C2        1.0  0.81634  0.59678  0.10157  1.0000
  C   C3        1.0  0.48516  0.09667  0.60165  1.0000
  C   C4        1.0  0.18366  0.40322  0.89843  1.0000
  C   C5        1.0  0.28331  0.01329  0.55818  1.0000
  C   C6        1.0  0.85508  0.48640  0.94174  1.0000
  C   C7        1.0  0.71669  0.98671  0.44182  1.0000
  C   C8        1.0  0.14491  0.51360  0.05826  1.0000
  C   C9        1.0  0.60769  0.79920  0.56182  1.0000
  C   C10       1.0  0.96852  0.70079  0.93816  1.0000
  C   C11       1.0  0.39232  0.20081  0.43818  1.0000
  C   C12       1.0  0.03148  0.29922  0.06184  1.0000
  C   C13       1.0  0.61631  0.02067  0.06918  1.0000
  C   C14       1.0  0.70628  0.47962  0.43064  1.0000
  C   C15       1.0  0.38369  0.97933  0.93082  1.0000
  C   C16       1.0  0.29372  0.52037  0.56936  1.0000
  C   C17       1.0  0.71405  0.09828  0.04953  1.0000
  C   C18       1.0  0.86203  0.40211  0.45026  1.0000
  C   C19       1.0  0.28595  0.90172  0.95047  1.0000
  C   C20       1.0  0.13798  0.59788  0.54974  1.0000
  C   C21       1.0  0.67756  0.21032  0.10829  1.0000
  C   C22       1.0  0.99641  0.29002  0.39154  1.0000
  C   C23       1.0  0.32243  0.78968  0.89171  1.0000
  C   C24       1.0  0.00359  0.70998  0.60846  1.0000
  C   C25       1.0  0.54363  0.23995  0.18712  1.0000
  C   C26       1.0  0.97096  0.26010  0.31281  1.0000
  C   C27       1.0  0.45637  0.76005  0.81288  1.0000
  C   C28       1.0  0.02904  0.73990  0.68719  1.0000
  C   C29       1.0  0.44776  0.16104  0.20452  1.0000
  C   C30       1.0  0.81352  0.33887  0.29545  1.0000
  C   C31       1.0  0.55224  0.83896  0.79547  1.0000
  C   C32       1.0  0.18648  0.66113  0.70455  1.0000
  N   N1        1.0  0.51258  0.84248  0.33963  1.0000
  N   N2        1.0  0.69452  0.65780  0.16030  1.0000
  N   N3        1.0  0.48741  0.15753  0.66037  1.0000
  N   N4        1.0  0.30548  0.34220  0.83970  1.0000
  N   N5        1.0  0.14796  0.02299  0.58977  1.0000
  N   N6        1.0  0.76116  0.47670  0.91007  1.0000
  N   N7        1.0  0.85205  0.97702  0.41023  1.0000
  N   N8        1.0  0.23885  0.52330  0.08995  1.0000
  N   N9        1.0  0.67752  0.67570  0.59928  1.0000
  N   N10       1.0  0.95234  0.82430  0.90075  1.0000
  N   N11       1.0  0.32248  0.32430  0.40072  1.0000
  N   N12       1.0  0.04766  0.17570  0.09925  1.0000
  N   N13       1.0  0.48385  0.05424  0.14546  1.0000
  N   N14       1.0  0.68370  0.44579  0.35446  1.0000
  N   N15       1.0  0.51615  0.94576  0.85454  1.0000
  N   N16       1.0  0.31630  0.55421  0.64554  1.0000
  O   O1        1.0  0.38647  0.98434  0.16175  1.0000
  O   O2        1.0  0.53269  0.51566  0.33817  1.0000
  O   O3        1.0  0.61353  0.01566  0.83825  1.0000
  O   O4        1.0  0.46731  0.48434  0.66183  1.0000
  O   O5        1.0  0.22244  0.59601  0.29049  1.0000
  O   O6        1.0  0.10890  0.90401  0.20948  1.0000
  O   O7        1.0  0.77756  0.40399  0.70951  1.0000
  O   O8        1.0  0.89110  0.09599  0.79052  1.0000
  O   O9        1.0  0.44996  0.62450  0.10652  1.0000
  O   O10       1.0  0.18104  0.87511  0.39354  1.0000
  O   O11       1.0  0.55004  0.37550  0.89348  1.0000
  O   O12       1.0  0.81896  0.12489  0.60646  1.0000
