data_image0
_chemical_formula_structural       Cu2Ag4H12C28N4O20
_chemical_formula_sum              "Cu2 Ag4 H12 C28 N4 O20"
_cell_length_a       7.00632
_cell_length_b       7.00634
_cell_length_c       17.1346
_cell_angle_alpha    84.0438
_cell_angle_beta     84.0436
_cell_angle_gamma    66.9637

_space_group_name_H-M_alt    "P 1"
_space_group_IT_number       1

loop_
  _space_group_symop_operation_xyz
  'x, y, z'

loop_
  _atom_site_type_symbol
  _atom_site_label
  _atom_site_symmetry_multiplicity
  _atom_site_fract_x
  _atom_site_fract_y
  _atom_site_fract_z
  _atom_site_occupancy
  Cu  Cu1       1.0  0.08270  0.91730  0.25000  1.0000
  Cu  Cu2       1.0  0.91729  0.08270  0.75000  1.0000
  Ag  Ag1       1.0  0.29098  0.28326  0.29295  1.0000
  Ag  Ag2       1.0  0.71673  0.70903  0.20705  1.0000
  Ag  Ag3       1.0  0.70901  0.71672  0.70705  1.0000
  Ag  Ag4       1.0  0.28326  0.29098  0.79294  1.0000
  H   H1        1.0  0.43723  0.84643  0.88671  1.0000
  H   H2        1.0  0.15357  0.56277  0.61329  1.0000
  H   H3        1.0  0.56278  0.15357  0.11330  1.0000
  H   H4        1.0  0.84645  0.43723  0.38670  1.0000
  H   H5        1.0  0.40167  0.63524  0.99205  1.0000
  H   H6        1.0  0.36477  0.59836  0.50795  1.0000
  H   H7        1.0  0.59837  0.36476  0.00796  1.0000
  H   H8        1.0  0.63524  0.40167  0.49204  1.0000
  H   H9        1.0  0.13005  0.30560  0.99068  1.0000
  H   H10       1.0  0.69440  0.86994  0.50933  1.0000
  H   H11       1.0  0.86993  0.69440  0.00933  1.0000
  H   H12       1.0  0.30560  0.13004  0.49067  1.0000
  C   C1        1.0  0.24964  0.76793  0.10065  1.0000
  C   C2        1.0  0.23206  0.75038  0.39936  1.0000
  C   C3        1.0  0.75037  0.23206  0.89936  1.0000
  C   C4        1.0  0.76793  0.24964  0.60064  1.0000
  C   C5        1.0  0.31865  0.77636  0.02223  1.0000
  C   C6        1.0  0.22365  0.68137  0.47777  1.0000
  C   C7        1.0  0.68137  0.22364  0.97777  1.0000
  C   C8        1.0  0.77636  0.31865  0.52223  1.0000
  C   C9        1.0  0.27948  0.97092  0.98129  1.0000
  C   C10       1.0  0.02908  0.72052  0.51872  1.0000
  C   C11       1.0  0.72052  0.02907  0.01872  1.0000
  C   C12       1.0  0.97093  0.27949  0.48128  1.0000
  C   C13       1.0  0.16594  0.15199  0.02081  1.0000
  C   C14       1.0  0.84801  0.83406  0.47920  1.0000
  C   C15       1.0  0.83406  0.84800  0.97920  1.0000
  C   C16       1.0  0.15199  0.16593  0.52080  1.0000
  C   C17       1.0  0.10327  0.12975  0.09972  1.0000
  C   C18       1.0  0.87025  0.89673  0.40028  1.0000
  C   C19       1.0  0.89672  0.87025  0.90028  1.0000
  C   C20       1.0  0.12974  0.10327  0.59972  1.0000
  C   C21       1.0  0.28721  0.56683  0.14960  1.0000
  C   C22       1.0  0.43316  0.71282  0.35040  1.0000
  C   C23       1.0  0.71281  0.43315  0.85040  1.0000
  C   C24       1.0  0.56683  0.28721  0.64959  1.0000
  C   C25       1.0  0.98855  0.30814  0.15059  1.0000
  C   C26       1.0  0.69187  0.01144  0.34941  1.0000
  C   C27       1.0  0.01143  0.69186  0.84941  1.0000
  C   C28       1.0  0.30813  0.98854  0.65058  1.0000
  N   N1        1.0  0.14501  0.94208  0.13846  1.0000
  N   N2        1.0  0.05792  0.85499  0.36154  1.0000
  N   N3        1.0  0.85498  0.05792  0.86154  1.0000
  N   N4        1.0  0.94207  0.14501  0.63846  1.0000
  O   O1        1.0  0.19571  0.58649  0.21924  1.0000
  O   O2        1.0  0.41348  0.80430  0.28076  1.0000
  O   O3        1.0  0.80428  0.41348  0.78076  1.0000
  O   O4        1.0  0.58648  0.19572  0.71923  1.0000
  O   O5        1.0  0.40097  0.39848  0.12118  1.0000
  O   O6        1.0  0.60153  0.59909  0.37881  1.0000
  O   O7        1.0  0.59908  0.60152  0.87882  1.0000
  O   O8        1.0  0.39847  0.40096  0.62117  1.0000
  O   O9        1.0  0.98769  0.26513  0.22491  1.0000
  O   O10       1.0  0.73490  0.01229  0.27509  1.0000
  O   O11       1.0  0.01228  0.73489  0.77509  1.0000
  O   O12       1.0  0.26512  0.98769  0.72490  1.0000
  O   O13       1.0  0.89983  0.48737  0.11711  1.0000
  O   O14       1.0  0.51263  0.10014  0.38288  1.0000
  O   O15       1.0  0.10014  0.51263  0.88288  1.0000
  O   O16       1.0  0.48736  0.89983  0.61711  1.0000
  O   O17       1.0  0.34726  0.98700  0.90548  1.0000
  O   O18       1.0  0.01300  0.65275  0.59452  1.0000
  O   O19       1.0  0.65275  0.01299  0.09452  1.0000
  O   O20       1.0  0.98701  0.34726  0.40547  1.0000
