data_image0
_chemical_formula_structural       Zn2H16C20O10
_chemical_formula_sum              "Zn2 H16 C20 O10"
_cell_length_a       4.81277
_cell_length_b       9.4868
_cell_length_c       11.5824
_cell_angle_alpha    83.1407
_cell_angle_beta     87.0968
_cell_angle_gamma    84.724

_space_group_name_H-M_alt    "P 1"
_space_group_IT_number       1

loop_
  _space_group_symop_operation_xyz
  'x, y, z'

loop_
  _atom_site_type_symbol
  _atom_site_label
  _atom_site_symmetry_multiplicity
  _atom_site_fract_x
  _atom_site_fract_y
  _atom_site_fract_z
  _atom_site_occupancy
  Zn  Zn1       1.0  0.29483  0.93149  0.62063  1.0000
  Zn  Zn2       1.0  0.70517  0.06851  0.37937  1.0000
  H   H1        1.0  0.31054  0.24642  0.80341  1.0000
  H   H2        1.0  0.68946  0.75358  0.19659  1.0000
  H   H3        1.0  0.42359  0.42583  0.93100  1.0000
  H   H4        1.0  0.57641  0.57418  0.06900  1.0000
  H   H5        1.0  0.00226  0.59387  0.66238  1.0000
  H   H6        1.0  0.99774  0.40613  0.33762  1.0000
  H   H7        1.0  0.89510  0.41006  0.54091  1.0000
  H   H8        1.0  0.10490  0.58994  0.45909  1.0000
  H   H9        1.0  0.13364  0.69315  0.80436  1.0000
  H   H10       1.0  0.86636  0.30685  0.19564  1.0000
  H   H11       1.0  0.08569  0.73811  0.01184  1.0000
  H   H12       1.0  0.91431  0.26189  0.98816  1.0000
  H   H13       1.0  0.76986  0.84929  0.98296  1.0000
  H   H14       1.0  0.23014  0.15071  0.01704  1.0000
  H   H15       1.0  0.09621  0.90004  0.91751  1.0000
  H   H16       1.0  0.90379  0.09996  0.08249  1.0000
  C   C1        1.0  0.53807  0.20723  0.59008  1.0000
  C   C2        1.0  0.46193  0.79277  0.40992  1.0000
  C   C3        1.0  0.59596  0.31738  0.66375  1.0000
  C   C4        1.0  0.40404  0.68262  0.33625  1.0000
  C   C5        1.0  0.46332  0.32226  0.77425  1.0000
  C   C6        1.0  0.53668  0.67774  0.22575  1.0000
  C   C7        1.0  0.52545  0.42208  0.84510  1.0000
  C   C8        1.0  0.47455  0.57792  0.15490  1.0000
  C   C9        1.0  0.72019  0.52057  0.80575  1.0000
  C   C10       1.0  0.27981  0.47943  0.19425  1.0000
  C   C11       1.0  0.85061  0.51865  0.69467  1.0000
  C   C12       1.0  0.14939  0.48135  0.30533  1.0000
  C   C13       1.0  0.78950  0.41612  0.62567  1.0000
  C   C14       1.0  0.21050  0.58388  0.37433  1.0000
  C   C15       1.0  0.92961  0.73122  0.84133  1.0000
  C   C16       1.0  0.07039  0.26878  0.15867  1.0000
  C   C17       1.0  0.97206  0.80981  0.94538  1.0000
  C   C18       1.0  0.02794  0.19018  0.05462  1.0000
  C   C19       1.0  0.76985  0.83162  0.74862  1.0000
  C   C20       1.0  0.23015  0.16838  0.25138  1.0000
  O   O1        1.0  0.33664  0.13101  0.62315  1.0000
  O   O2        1.0  0.66336  0.86899  0.37685  1.0000
  O   O3        1.0  0.69359  0.19618  0.49819  1.0000
  O   O4        1.0  0.30641  0.80382  0.50181  1.0000
  O   O5        1.0  0.77192  0.61262  0.88282  1.0000
  O   O6        1.0  0.22808  0.38738  0.11718  1.0000
  O   O7        1.0  0.89699  0.91480  0.67435  1.0000
  O   O8        1.0  0.10301  0.08520  0.32565  1.0000
  O   O9        1.0  0.50591  0.82871  0.75326  1.0000
  O   O10       1.0  0.49409  0.17129  0.24674  1.0000
