data_image0
_chemical_formula_structural       Cd4H52C56N8O16
_chemical_formula_sum              "Cd4 H52 C56 N8 O16"
_cell_length_a       7.7414
_cell_length_b       11.9641
_cell_length_c       15.3448
_cell_angle_alpha    96.0388
_cell_angle_beta     89.9999
_cell_angle_gamma    90

_space_group_name_H-M_alt    "P 1"
_space_group_IT_number       1

loop_
  _space_group_symop_operation_xyz
  'x, y, z'

loop_
  _atom_site_type_symbol
  _atom_site_label
  _atom_site_symmetry_multiplicity
  _atom_site_fract_x
  _atom_site_fract_y
  _atom_site_fract_z
  _atom_site_occupancy
  Cd  Cd1       1.0  0.74531  0.50151  0.97458  1.0000
  Cd  Cd2       1.0  0.24531  0.99849  0.52542  1.0000
  Cd  Cd3       1.0  0.25469  0.49849  0.02542  1.0000
  Cd  Cd4       1.0  0.75469  0.00151  0.47458  1.0000
  H   H1        1.0  0.89072  0.62077  0.51816  1.0000
  H   H2        1.0  0.39072  0.87923  0.98184  1.0000
  H   H3        1.0  0.10928  0.37923  0.48184  1.0000
  H   H4        1.0  0.60928  0.12077  0.01816  1.0000
  H   H5        1.0  0.97173  0.46535  0.60676  1.0000
  H   H6        1.0  0.47173  0.03465  0.89324  1.0000
  H   H7        1.0  0.02827  0.53465  0.39324  1.0000
  H   H8        1.0  0.52827  0.96535  0.10676  1.0000
  H   H9        1.0  0.19894  0.70716  0.80093  1.0000
  H   H10       1.0  0.69894  0.79284  0.69907  1.0000
  H   H11       1.0  0.80106  0.29284  0.19907  1.0000
  H   H12       1.0  0.30106  0.20716  0.30093  1.0000
  H   H13       1.0  0.11870  0.86143  0.71137  1.0000
  H   H14       1.0  0.61870  0.63857  0.78863  1.0000
  H   H15       1.0  0.88130  0.13857  0.28863  1.0000
  H   H16       1.0  0.38130  0.36143  0.21137  1.0000
  H   H17       1.0  0.25445  0.49108  0.79597  1.0000
  H   H18       1.0  0.75445  0.00892  0.70403  1.0000
  H   H19       1.0  0.74555  0.50892  0.20403  1.0000
  H   H20       1.0  0.24555  0.99108  0.29597  1.0000
  H   H21       1.0  0.11065  0.40063  0.72955  1.0000
  H   H22       1.0  0.61065  0.09937  0.77045  1.0000
  H   H23       1.0  0.88935  0.59937  0.27045  1.0000
  H   H24       1.0  0.38935  0.90063  0.22955  1.0000
  H   H25       1.0  0.01240  0.72170  0.98453  1.0000
  H   H26       1.0  0.51240  0.77830  0.51548  1.0000
  H   H27       1.0  0.98759  0.27830  0.01548  1.0000
  H   H28       1.0  0.48760  0.22170  0.48453  1.0000
  H   H29       1.0  0.57486  0.69131  0.14396  1.0000
  H   H30       1.0  0.07486  0.80869  0.35604  1.0000
  H   H31       1.0  0.42514  0.30869  0.85604  1.0000
  H   H32       1.0  0.92514  0.19131  0.64396  1.0000
  H   H33       1.0  0.75757  0.88185  0.20923  1.0000
  H   H34       1.0  0.25757  0.61815  0.29077  1.0000
  H   H35       1.0  0.24243  0.11815  0.79077  1.0000
  H   H36       1.0  0.74243  0.38185  0.70923  1.0000
  H   H37       1.0  0.17308  0.87739  0.07874  1.0000
  H   H38       1.0  0.67309  0.62261  0.42126  1.0000
  H   H39       1.0  0.82691  0.12261  0.92126  1.0000
  H   H40       1.0  0.32692  0.37739  0.57874  1.0000
  H   H41       1.0  0.06754  0.94795  0.17129  1.0000
  H   H42       1.0  0.56755  0.55205  0.32870  1.0000
  H   H43       1.0  0.93245  0.05205  0.82870  1.0000
  H   H44       1.0  0.43245  0.44795  0.67130  1.0000
  H   H45       1.0  0.88563  0.05515  0.07491  1.0000
  H   H46       1.0  0.38563  0.44485  0.42509  1.0000
  H   H47       1.0  0.11437  0.94485  0.92509  1.0000
  H   H48       1.0  0.61437  0.55515  0.57491  1.0000
  H   H49       1.0  0.10895  0.07944  0.06396  1.0000
  H   H50       1.0  0.60895  0.42056  0.43604  1.0000
  H   H51       1.0  0.89105  0.92056  0.93604  1.0000
  H   H52       1.0  0.39105  0.57944  0.56396  1.0000
  C   C1        1.0  0.93157  0.84247  0.56055  1.0000
  C   C2        1.0  0.43157  0.65753  0.93945  1.0000
  C   C3        1.0  0.06843  0.15753  0.43945  1.0000
  C   C4        1.0  0.56843  0.34247  0.06055  1.0000
  C   C5        1.0  0.99647  0.75040  0.61004  1.0000
  C   C6        1.0  0.49647  0.74960  0.88996  1.0000
  C   C7        1.0  0.00353  0.24960  0.38996  1.0000
  C   C8        1.0  0.50353  0.25040  0.11004  1.0000
  C   C9        1.0  0.95865  0.63842  0.58018  1.0000
  C   C10       1.0  0.45865  0.86158  0.91982  1.0000
  C   C11       1.0  0.04135  0.36158  0.41982  1.0000
  C   C12       1.0  0.54135  0.13842  0.08018  1.0000
  C   C13       1.0  0.00466  0.55211  0.62964  1.0000
  C   C14       1.0  0.50466  0.94789  0.87037  1.0000
  C   C15       1.0  0.99534  0.44789  0.37037  1.0000
  C   C16       1.0  0.49534  0.05211  0.12963  1.0000
  C   C17       1.0  0.08898  0.57588  0.71031  1.0000
  C   C18       1.0  0.58897  0.92412  0.78969  1.0000
  C   C19       1.0  0.91103  0.42412  0.28969  1.0000
  C   C20       1.0  0.41102  0.07588  0.21030  1.0000
  C   C21       1.0  0.13186  0.68786  0.73874  1.0000
  C   C22       1.0  0.63186  0.81213  0.76126  1.0000
  C   C23       1.0  0.86814  0.31214  0.26126  1.0000
  C   C24       1.0  0.36814  0.18786  0.23874  1.0000
  C   C25       1.0  0.08685  0.77432  0.68910  1.0000
  C   C26       1.0  0.58684  0.72568  0.81090  1.0000
  C   C27       1.0  0.91316  0.22568  0.31090  1.0000
  C   C28       1.0  0.41315  0.27432  0.18910  1.0000
  C   C29       1.0  0.12443  0.48315  0.76741  1.0000
  C   C30       1.0  0.62443  0.01685  0.73260  1.0000
  C   C31       1.0  0.87557  0.51685  0.23259  1.0000
  C   C32       1.0  0.37557  0.98315  0.26741  1.0000
  C   C33       1.0  0.99521  0.49223  0.84287  1.0000
  C   C34       1.0  0.49521  0.00777  0.65713  1.0000
  C   C35       1.0  0.00479  0.50777  0.15713  1.0000
  C   C36       1.0  0.50480  0.99223  0.34287  1.0000
  C   C37       1.0  0.91422  0.74010  0.03433  1.0000
  C   C38       1.0  0.41422  0.75990  0.46567  1.0000
  C   C39       1.0  0.08578  0.25990  0.96567  1.0000
  C   C40       1.0  0.58578  0.24010  0.53433  1.0000
  C   C41       1.0  0.69220  0.72684  0.11995  1.0000
  C   C42       1.0  0.19221  0.77316  0.38005  1.0000
  C   C43       1.0  0.30779  0.27316  0.88005  1.0000
  C   C44       1.0  0.80780  0.22684  0.61995  1.0000
  C   C45       1.0  0.78063  0.82218  0.15187  1.0000
  C   C46       1.0  0.28063  0.67782  0.34812  1.0000
  C   C47       1.0  0.21937  0.17782  0.84813  1.0000
  C   C48       1.0  0.71937  0.32218  0.65188  1.0000
  C   C49       1.0  0.05155  0.91774  0.10180  1.0000
  C   C50       1.0  0.55155  0.58227  0.39820  1.0000
  C   C51       1.0  0.94845  0.08226  0.89820  1.0000
  C   C52       1.0  0.44845  0.41773  0.60180  1.0000
  C   C53       1.0  0.00697  0.01607  0.04950  1.0000
  C   C54       1.0  0.50697  0.48393  0.45050  1.0000
  C   C55       1.0  0.99303  0.98393  0.95050  1.0000
  C   C56       1.0  0.49303  0.51607  0.54950  1.0000
  N   N1        1.0  0.77693  0.67644  0.04678  1.0000
  N   N2        1.0  0.27693  0.82356  0.45322  1.0000
  N   N3        1.0  0.22307  0.32356  0.95322  1.0000
  N   N4        1.0  0.72307  0.17644  0.54678  1.0000
  N   N5        1.0  0.92052  0.82930  0.09652  1.0000
  N   N6        1.0  0.42053  0.67070  0.40348  1.0000
  N   N7        1.0  0.07947  0.17070  0.90348  1.0000
  N   N8        1.0  0.57947  0.32930  0.59652  1.0000
  O   O1        1.0  0.83126  0.81789  0.49552  1.0000
  O   O2        1.0  0.33125  0.68211  0.00448  1.0000
  O   O3        1.0  0.16875  0.18211  0.50448  1.0000
  O   O4        1.0  0.66875  0.31789  0.99552  1.0000
  O   O5        1.0  0.97360  0.94482  0.58649  1.0000
  O   O6        1.0  0.47360  0.55518  0.91351  1.0000
  O   O7        1.0  0.02640  0.05518  0.41351  1.0000
  O   O8        1.0  0.52640  0.44482  0.08649  1.0000
  O   O9        1.0  0.84623  0.44816  0.83103  1.0000
  O   O10       1.0  0.34623  0.05183  0.66897  1.0000
  O   O11       1.0  0.15377  0.55184  0.16897  1.0000
  O   O12       1.0  0.65377  0.94817  0.33103  1.0000
  O   O13       1.0  0.03823  0.54757  0.91513  1.0000
  O   O14       1.0  0.53823  0.95243  0.58487  1.0000
  O   O15       1.0  0.96177  0.45243  0.08487  1.0000
  O   O16       1.0  0.46178  0.04756  0.41513  1.0000
