data_image0
_chemical_formula_structural       Zn2H56C48N8O8
_chemical_formula_sum              "Zn2 H56 C48 N8 O8"
_cell_length_a       6.40921
_cell_length_b       10.0729
_cell_length_c       17.149
_cell_angle_alpha    89.9981
_cell_angle_beta     89.9997
_cell_angle_gamma    96.7881

_space_group_name_H-M_alt    "P 1"
_space_group_IT_number       1

loop_
  _space_group_symop_operation_xyz
  'x, y, z'

loop_
  _atom_site_type_symbol
  _atom_site_label
  _atom_site_symmetry_multiplicity
  _atom_site_fract_x
  _atom_site_fract_y
  _atom_site_fract_z
  _atom_site_occupancy
  Zn  Zn1       1.0  0.45121  0.37274  0.09958  1.0000
  Zn  Zn2       1.0  0.54879  0.62725  0.59957  1.0000
  H   H1        1.0  0.17536  0.96615  0.17824  1.0000
  H   H2        1.0  0.82462  0.03383  0.67822  1.0000
  H   H3        1.0  0.05804  0.99474  0.00872  1.0000
  H   H4        1.0  0.94197  0.00529  0.50870  1.0000
  H   H5        1.0  0.89529  0.98172  0.09140  1.0000
  H   H6        1.0  0.10471  0.01829  0.59138  1.0000
  H   H7        1.0  0.83018  0.74730  0.06516  1.0000
  H   H8        1.0  0.16983  0.25272  0.56515  1.0000
  H   H9        1.0  0.01837  0.76345  0.98993  1.0000
  H   H10       1.0  0.98165  0.23659  0.48991  1.0000
  H   H11       1.0  0.58151  0.93000  0.02540  1.0000
  H   H12       1.0  0.41849  0.07002  0.52539  1.0000
  H   H13       1.0  0.34598  0.86347  0.97759  1.0000
  H   H14       1.0  0.65403  0.13658  0.47758  1.0000
  H   H15       1.0  0.52126  0.75438  0.01292  1.0000
  H   H16       1.0  0.47872  0.24565  0.51291  1.0000
  H   H17       1.0  0.55846  0.72473  0.16636  1.0000
  H   H18       1.0  0.44152  0.27525  0.66636  1.0000
  H   H19       1.0  0.42675  0.83003  0.22771  1.0000
  H   H20       1.0  0.57323  0.16993  0.72770  1.0000
  H   H21       1.0  0.63297  0.90133  0.16641  1.0000
  H   H22       1.0  0.36702  0.09865  0.66640  1.0000
  H   H23       1.0  0.16570  0.66930  0.22651  1.0000
  H   H24       1.0  0.83429  0.33068  0.72648  1.0000
  H   H25       1.0  0.91799  0.62274  0.18172  1.0000
  H   H26       1.0  0.08200  0.37726  0.68171  1.0000
  H   H27       1.0  0.99206  0.79134  0.20844  1.0000
  H   H28       1.0  0.00792  0.20865  0.70843  1.0000
  H   H29       1.0  0.15198  0.75975  0.53964  1.0000
  H   H30       1.0  0.84803  0.24024  0.03965  1.0000
  H   H31       1.0  0.49749  0.48348  0.42841  1.0000
  H   H32       1.0  0.50252  0.51651  0.92842  1.0000
  H   H33       1.0  0.16749  0.54488  0.32960  1.0000
  H   H34       1.0  0.83250  0.45510  0.82961  1.0000
  H   H35       1.0  0.84093  0.65595  0.35810  1.0000
  H   H36       1.0  0.15907  0.34405  0.85811  1.0000
  H   H37       1.0  0.81295  0.72152  0.45264  1.0000
  H   H38       1.0  0.18705  0.27847  0.95266  1.0000
  H   H39       1.0  0.65990  0.86373  0.32415  1.0000
  H   H40       1.0  0.34010  0.13627  0.82414  1.0000
  H   H41       1.0  0.72389  0.09578  0.27591  1.0000
  H   H42       1.0  0.27612  0.90424  0.77590  1.0000
  H   H43       1.0  0.35595  0.12621  0.36628  1.0000
  H   H44       1.0  0.64407  0.87377  0.86630  1.0000
  H   H45       1.0  0.29414  0.89330  0.41178  1.0000
  H   H46       1.0  0.70586  0.10667  0.91181  1.0000
  H   H47       1.0  0.19803  0.27519  0.24124  1.0000
  H   H48       1.0  0.80199  0.72484  0.74124  1.0000
  H   H49       1.0  0.17353  0.32984  0.33916  1.0000
  H   H50       1.0  0.82648  0.67017  0.83916  1.0000
  H   H51       1.0  0.91921  0.29151  0.14751  1.0000
  H   H52       1.0  0.08078  0.70850  0.64751  1.0000
  H   H53       1.0  0.79259  0.39669  0.37983  1.0000
  H   H54       1.0  0.20741  0.60330  0.87983  1.0000
  H   H55       1.0  0.48050  0.47601  0.28063  1.0000
  H   H56       1.0  0.51949  0.52398  0.78062  1.0000
  C   C1        1.0  0.35608  0.10243  0.10768  1.0000
  C   C2        1.0  0.64392  0.89756  0.60765  1.0000
  C   C3        1.0  0.22715  0.96607  0.11678  1.0000
  C   C4        1.0  0.77284  0.03392  0.61676  1.0000
  C   C5        1.0  0.03000  0.94197  0.06437  1.0000
  C   C6        1.0  0.96999  0.05805  0.56435  1.0000
  C   C7        1.0  0.99152  0.78877  0.05101  1.0000
  C   C8        1.0  0.00848  0.21125  0.55099  1.0000
  C   C9        1.0  0.14886  0.72688  0.10389  1.0000
  C   C10       1.0  0.85113  0.27312  0.60388  1.0000
  C   C11       1.0  0.34271  0.84039  0.10508  1.0000
  C   C12       1.0  0.65728  0.15961  0.60507  1.0000
  C   C13       1.0  0.21849  0.59557  0.07269  1.0000
  C   C14       1.0  0.78151  0.40443  0.57269  1.0000
  C   C15       1.0  0.45419  0.84738  0.02544  1.0000
  C   C16       1.0  0.54581  0.15265  0.52543  1.0000
  C   C17       1.0  0.49977  0.82266  0.17010  1.0000
  C   C18       1.0  0.50021  0.17732  0.67009  1.0000
  C   C19       1.0  0.05156  0.70155  0.18526  1.0000
  C   C20       1.0  0.94844  0.29843  0.68524  1.0000
  C   C21       1.0  0.20003  0.68840  0.49808  1.0000
  C   C22       1.0  0.79996  0.31159  0.99809  1.0000
  C   C23       1.0  0.37594  0.54852  0.43593  1.0000
  C   C24       1.0  0.62405  0.45146  0.93594  1.0000
  C   C25       1.0  0.21489  0.57643  0.38791  1.0000
  C   C26       1.0  0.78510  0.42355  0.88792  1.0000
  C   C27       1.0  0.92040  0.72208  0.40258  1.0000
  C   C28       1.0  0.07961  0.27791  0.90259  1.0000
  C   C29       1.0  0.97147  0.86237  0.37154  1.0000
  C   C30       1.0  0.02853  0.13763  0.87155  1.0000
  C   C31       1.0  0.81284  0.92143  0.33360  1.0000
  C   C32       1.0  0.18716  0.07857  0.83360  1.0000
  C   C33       1.0  0.84860  0.05275  0.30683  1.0000
  C   C34       1.0  0.15142  0.94726  0.80683  1.0000
  C   C35       1.0  0.04396  0.12753  0.31883  1.0000
  C   C36       1.0  0.95606  0.87249  0.81884  1.0000
  C   C37       1.0  0.20341  0.06826  0.35612  1.0000
  C   C38       1.0  0.79661  0.93174  0.85613  1.0000
  C   C39       1.0  0.16817  0.93649  0.38183  1.0000
  C   C40       1.0  0.83184  0.06350  0.88185  1.0000
  C   C41       1.0  0.09296  0.27039  0.29211  1.0000
  C   C42       1.0  0.90706  0.72963  0.79211  1.0000
  C   C43       1.0  0.83604  0.33247  0.19507  1.0000
  C   C44       1.0  0.16398  0.66756  0.69506  1.0000
  C   C45       1.0  0.76938  0.38885  0.31695  1.0000
  C   C46       1.0  0.23064  0.61116  0.81694  1.0000
  C   C47       1.0  0.61521  0.42435  0.26788  1.0000
  C   C48       1.0  0.38479  0.57565  0.76787  1.0000
  N   N1        1.0  0.36520  0.61990  0.50433  1.0000
  N   N2        1.0  0.63480  0.38008  0.00434  1.0000
  N   N3        1.0  0.10444  0.66320  0.42872  1.0000
  N   N4        1.0  0.89555  0.33678  0.92873  1.0000
  N   N5        1.0  0.90893  0.33233  0.26903  1.0000
  N   N6        1.0  0.09108  0.66768  0.76903  1.0000
  N   N7        1.0  0.65712  0.38734  0.19228  1.0000
  N   N8        1.0  0.34289  0.61267  0.69227  1.0000
  O   O1        1.0  0.55251  0.11652  0.10786  1.0000
  O   O2        1.0  0.44749  0.88346  0.60783  1.0000
  O   O3        1.0  0.24721  0.20491  0.10316  1.0000
  O   O4        1.0  0.75280  0.79508  0.60314  1.0000
  O   O5        1.0  0.29818  0.52379  0.12586  1.0000
  O   O6        1.0  0.70181  0.47619  0.62586  1.0000
  O   O7        1.0  0.20496  0.56414  0.00210  1.0000
  O   O8        1.0  0.79504  0.43589  0.50209  1.0000
