data_image0
_chemical_formula_structural       Co2H28C28N8O16
_chemical_formula_sum              "Co2 H28 C28 N8 O16"
_cell_length_a       7.41802
_cell_length_b       9.3663
_cell_length_c       12.6587
_cell_angle_alpha    105.781
_cell_angle_beta     89.997
_cell_angle_gamma    113.316

_space_group_name_H-M_alt    "P 1"
_space_group_IT_number       1

loop_
  _space_group_symop_operation_xyz
  'x, y, z'

loop_
  _atom_site_type_symbol
  _atom_site_label
  _atom_site_symmetry_multiplicity
  _atom_site_fract_x
  _atom_site_fract_y
  _atom_site_fract_z
  _atom_site_occupancy
  Co  Co1       1.0  0.85706  0.99993  0.24981  1.0000
  Co  Co2       1.0  0.14294  0.00007  0.75019  1.0000
  H   H1        1.0  0.44028  0.40118  0.19431  1.0000
  H   H2        1.0  0.03894  0.59847  0.30538  1.0000
  H   H3        1.0  0.55972  0.59882  0.80569  1.0000
  H   H4        1.0  0.96106  0.40153  0.69463  1.0000
  H   H5        1.0  0.32996  0.24164  0.06967  1.0000
  H   H6        1.0  0.08808  0.75821  0.42990  1.0000
  H   H7        1.0  0.67004  0.75837  0.93033  1.0000
  H   H8        1.0  0.91192  0.24179  0.57010  1.0000
  H   H9        1.0  0.21382  0.86648  0.15229  1.0000
  H   H10       1.0  0.34781  0.13338  0.34757  1.0000
  H   H11       1.0  0.78619  0.13352  0.84771  1.0000
  H   H12       1.0  0.65219  0.86663  0.65243  1.0000
  H   H13       1.0  0.24331  0.85556  0.01054  1.0000
  H   H14       1.0  0.38808  0.14427  0.48932  1.0000
  H   H15       1.0  0.75668  0.14444  0.98946  1.0000
  H   H16       1.0  0.61192  0.85572  0.51068  1.0000
  H   H17       1.0  0.38420  0.67619  0.21965  1.0000
  H   H18       1.0  0.70808  0.32361  0.28023  1.0000
  H   H19       1.0  0.61580  0.32381  0.78035  1.0000
  H   H20       1.0  0.29192  0.67639  0.71978  1.0000
  H   H21       1.0  0.20449  0.30553  0.90995  1.0000
  H   H22       1.0  0.89907  0.69442  0.58988  1.0000
  H   H23       1.0  0.79551  0.69447  0.09004  1.0000
  H   H24       1.0  0.10092  0.30558  0.41013  1.0000
  H   H25       1.0  0.17353  0.58604  0.88656  1.0000
  H   H26       1.0  0.58768  0.41397  0.61336  1.0000
  H   H27       1.0  0.82647  0.41396  0.11344  1.0000
  H   H28       1.0  0.41231  0.58603  0.38664  1.0000
  C   C1        1.0  0.12414  0.27199  0.18793  1.0000
  C   C2        1.0  0.85163  0.72743  0.31168  1.0000
  C   C3        1.0  0.87586  0.72801  0.81207  1.0000
  C   C4        1.0  0.14837  0.27257  0.68832  1.0000
  C   C5        1.0  0.30995  0.33990  0.13169  1.0000
  C   C6        1.0  0.96984  0.65980  0.36796  1.0000
  C   C7        1.0  0.69005  0.66010  0.86830  1.0000
  C   C8        1.0  0.03015  0.34020  0.63204  1.0000
  C   C9        1.0  0.51556  0.96599  0.12127  1.0000
  C   C10       1.0  0.55026  0.03406  0.37866  1.0000
  C   C11       1.0  0.48444  0.03402  0.87873  1.0000
  C   C12       1.0  0.44975  0.96594  0.62134  1.0000
  C   C13       1.0  0.30031  0.84085  0.08484  1.0000
  C   C14       1.0  0.45986  0.15906  0.41506  1.0000
  C   C15       1.0  0.69970  0.15915  0.91516  1.0000
  C   C16       1.0  0.54014  0.84094  0.58494  1.0000
  C   C17       1.0  0.32501  0.60992  0.13357  1.0000
  C   C18       1.0  0.71524  0.38991  0.36632  1.0000
  C   C19       1.0  0.67499  0.39008  0.86643  1.0000
  C   C20       1.0  0.28477  0.61009  0.63369  1.0000
  C   C21       1.0  0.23316  0.42215  0.96920  1.0000
  C   C22       1.0  0.81112  0.57777  0.53066  1.0000
  C   C23       1.0  0.76683  0.57785  0.03080  1.0000
  C   C24       1.0  0.18887  0.42222  0.46934  1.0000
  C   C25       1.0  0.22105  0.55875  0.95682  1.0000
  C   C26       1.0  0.66249  0.44116  0.54308  1.0000
  C   C27       1.0  0.77895  0.44125  0.04318  1.0000
  C   C28       1.0  0.33751  0.55883  0.45692  1.0000
  N   N1        1.0  0.29899  0.45709  0.07947  1.0000
  N   N2        1.0  0.84199  0.54274  0.42036  1.0000
  N   N3        1.0  0.70100  0.54291  0.92053  1.0000
  N   N4        1.0  0.15801  0.45726  0.57964  1.0000
  N   N5        1.0  0.27755  0.67303  0.06007  1.0000
  N   N6        1.0  0.60474  0.32686  0.43984  1.0000
  N   N7        1.0  0.72245  0.32697  0.93993  1.0000
  N   N8        1.0  0.39526  0.67314  0.56017  1.0000
  O   O1        1.0  0.10878  0.14553  0.21652  1.0000
  O   O2        1.0  0.96252  0.85382  0.28297  1.0000
  O   O3        1.0  0.89122  0.85447  0.78348  1.0000
  O   O4        1.0  0.03747  0.14618  0.71703  1.0000
  O   O5        1.0  0.00874  0.34045  0.20475  1.0000
  O   O6        1.0  0.66783  0.65883  0.29492  1.0000
  O   O7        1.0  0.99126  0.65955  0.79525  1.0000
  O   O8        1.0  0.33216  0.34117  0.70508  1.0000
  O   O9        1.0  0.64527  0.90696  0.12728  1.0000
  O   O10       1.0  0.73898  0.09326  0.37263  1.0000
  O   O11       1.0  0.35473  0.09304  0.87272  1.0000
  O   O12       1.0  0.26102  0.90674  0.62736  1.0000
  O   O13       1.0  0.54528  0.11185  0.14429  1.0000
  O   O14       1.0  0.43439  0.88815  0.35565  1.0000
  O   O15       1.0  0.45472  0.88815  0.85571  1.0000
  O   O16       1.0  0.56562  0.11185  0.64435  1.0000
