data_image0
_chemical_formula_structural       Ag4H20C28N16O16
_chemical_formula_sum              "Ag4 H20 C28 N16 O16"
_cell_length_a       5.22566
_cell_length_b       13.1893
_cell_length_c       14.4385
_cell_angle_alpha    114.415
_cell_angle_beta     90.0002
_cell_angle_gamma    89.9999

_space_group_name_H-M_alt    "P 1"
_space_group_IT_number       1

loop_
  _space_group_symop_operation_xyz
  'x, y, z'

loop_
  _atom_site_type_symbol
  _atom_site_label
  _atom_site_symmetry_multiplicity
  _atom_site_fract_x
  _atom_site_fract_y
  _atom_site_fract_z
  _atom_site_occupancy
  Ag  Ag1       1.0  0.25982  0.11566  0.52885  1.0000
  Ag  Ag2       1.0  0.75987  0.38431  0.97114  1.0000
  Ag  Ag3       1.0  0.74019  0.88433  0.47115  1.0000
  Ag  Ag4       1.0  0.24016  0.61567  0.02885  1.0000
  H   H1        1.0  0.75952  0.84658  0.69113  1.0000
  H   H2        1.0  0.25950  0.65343  0.80887  1.0000
  H   H3        1.0  0.24048  0.15342  0.30886  1.0000
  H   H4        1.0  0.74050  0.34658  0.19114  1.0000
  H   H5        1.0  0.65384  0.80430  0.84428  1.0000
  H   H6        1.0  0.15382  0.69570  0.65571  1.0000
  H   H7        1.0  0.34619  0.19570  0.15571  1.0000
  H   H8        1.0  0.84619  0.30430  0.34429  1.0000
  H   H9        1.0  0.27201  0.89046  0.94869  1.0000
  H   H10       1.0  0.77197  0.60955  0.55132  1.0000
  H   H11       1.0  0.72803  0.10955  0.05132  1.0000
  H   H12       1.0  0.22803  0.39045  0.44868  1.0000
  H   H13       1.0  0.00735  0.02940  0.90972  1.0000
  H   H14       1.0  0.50733  0.47060  0.59028  1.0000
  H   H15       1.0  0.99267  0.97059  0.09028  1.0000
  H   H16       1.0  0.49266  0.52941  0.40972  1.0000
  H   H17       1.0  0.91476  0.19750  0.70859  1.0000
  H   H18       1.0  0.41479  0.30249  0.79140  1.0000
  H   H19       1.0  0.08518  0.80249  0.29140  1.0000
  H   H20       1.0  0.58520  0.69751  0.20860  1.0000
  C   C1        1.0  0.59953  0.88225  0.74261  1.0000
  C   C2        1.0  0.09952  0.61776  0.75739  1.0000
  C   C3        1.0  0.40046  0.11775  0.25740  1.0000
  C   C4        1.0  0.90047  0.38225  0.24261  1.0000
  C   C5        1.0  0.53540  0.86044  0.82466  1.0000
  C   C6        1.0  0.03538  0.63957  0.67534  1.0000
  C   C7        1.0  0.46461  0.13958  0.17534  1.0000
  C   C8        1.0  0.96460  0.36043  0.32466  1.0000
  C   C9        1.0  0.31979  0.91184  0.88549  1.0000
  C   C10       1.0  0.81977  0.58817  0.61451  1.0000
  C   C11       1.0  0.68023  0.08817  0.11451  1.0000
  C   C12       1.0  0.18022  0.41183  0.38549  1.0000
  C   C13       1.0  0.17153  0.98638  0.86435  1.0000
  C   C14       1.0  0.67152  0.51362  0.63565  1.0000
  C   C15       1.0  0.82848  0.01362  0.13565  1.0000
  C   C16       1.0  0.32847  0.48638  0.36435  1.0000
  C   C17       1.0  0.23844  0.00806  0.78007  1.0000
  C   C18       1.0  0.73843  0.49194  0.71993  1.0000
  C   C19       1.0  0.76156  0.99193  0.21994  1.0000
  C   C20       1.0  0.26155  0.50806  0.28006  1.0000
  C   C21       1.0  0.14484  0.07358  0.73090  1.0000
  C   C22       1.0  0.64485  0.42642  0.76910  1.0000
  C   C23       1.0  0.85514  0.92641  0.26910  1.0000
  C   C24       1.0  0.35516  0.57358  0.23090  1.0000
  C   C25       1.0  0.93010  0.14970  0.75606  1.0000
  C   C26       1.0  0.43010  0.35030  0.74394  1.0000
  C   C27       1.0  0.06985  0.85029  0.24396  1.0000
  C   C28       1.0  0.56987  0.64970  0.25605  1.0000
  N   N1        1.0  0.29995  0.05518  0.64963  1.0000
  N   N2        1.0  0.79995  0.44482  0.85037  1.0000
  N   N3        1.0  0.70003  0.94482  0.35037  1.0000
  N   N4        1.0  0.20005  0.55518  0.14963  1.0000
  N   N5        1.0  0.48381  0.98451  0.64271  1.0000
  N   N6        1.0  0.98380  0.51549  0.85728  1.0000
  N   N7        1.0  0.51618  0.01549  0.35729  1.0000
  N   N8        1.0  0.01619  0.48451  0.14272  1.0000
  N   N9        1.0  0.44835  0.95480  0.72224  1.0000
  N   N10       1.0  0.94835  0.54520  0.77776  1.0000
  N   N11       1.0  0.55164  0.04520  0.27776  1.0000
  N   N12       1.0  0.05164  0.45480  0.22225  1.0000
  N   N13       1.0  0.78977  0.21782  0.48900  1.0000
  N   N14       1.0  0.28978  0.28217  0.01100  1.0000
  N   N15       1.0  0.21025  0.78218  0.51101  1.0000
  N   N16       1.0  0.71022  0.71783  0.98900  1.0000
  O   O1        1.0  0.77571  0.16131  0.82460  1.0000
  O   O2        1.0  0.27572  0.33869  0.67540  1.0000
  O   O3        1.0  0.22430  0.83867  0.17539  1.0000
  O   O4        1.0  0.72431  0.66131  0.32460  1.0000
  O   O5        1.0  0.01163  0.19434  0.44542  1.0000
  O   O6        1.0  0.51164  0.30565  0.05459  1.0000
  O   O7        1.0  0.98839  0.80566  0.55459  1.0000
  O   O8        1.0  0.48836  0.69435  0.94541  1.0000
  O   O9        1.0  0.63107  0.27050  0.46077  1.0000
  O   O10       1.0  0.13107  0.22950  0.03923  1.0000
  O   O11       1.0  0.36895  0.72950  0.53924  1.0000
  O   O12       1.0  0.86892  0.77051  0.96076  1.0000
  O   O13       1.0  0.73812  0.18511  0.55775  1.0000
  O   O14       1.0  0.23814  0.31489  0.94225  1.0000
  O   O15       1.0  0.26189  0.81489  0.44225  1.0000
  O   O16       1.0  0.76186  0.68512  0.05775  1.0000
