data_image0
_chemical_formula_structural       Na4H36C8O20
_chemical_formula_sum              "Na4 H36 C8 O20"
_cell_length_a       7.94683
_cell_length_b       7.94683
_cell_length_c       10.1888
_cell_angle_alpha    74.5484
_cell_angle_beta     74.5483
_cell_angle_gamma    81.6496

_space_group_name_H-M_alt    "P 1"
_space_group_IT_number       1

loop_
  _space_group_symop_operation_xyz
  'x, y, z'

loop_
  _atom_site_type_symbol
  _atom_site_label
  _atom_site_symmetry_multiplicity
  _atom_site_fract_x
  _atom_site_fract_y
  _atom_site_fract_z
  _atom_site_occupancy
  Na  Na1       1.0  0.51306  0.65531  0.58108  1.0000
  Na  Na2       1.0  0.34469  0.48694  0.91892  1.0000
  Na  Na3       1.0  0.48694  0.34469  0.41892  1.0000
  Na  Na4       1.0  0.65531  0.51306  0.08108  1.0000
  H   H1        1.0  0.86250  0.90514  0.36841  1.0000
  H   H2        1.0  0.09486  0.13750  0.13159  1.0000
  H   H3        1.0  0.13750  0.09486  0.63159  1.0000
  H   H4        1.0  0.90514  0.86250  0.86841  1.0000
  H   H5        1.0  0.01038  0.71290  0.37935  1.0000
  H   H6        1.0  0.28710  0.98962  0.12065  1.0000
  H   H7        1.0  0.98962  0.28710  0.62065  1.0000
  H   H8        1.0  0.71290  0.01038  0.87935  1.0000
  H   H9        1.0  0.07442  0.90517  0.40074  1.0000
  H   H10       1.0  0.09483  0.92558  0.09926  1.0000
  H   H11       1.0  0.92558  0.09483  0.59926  1.0000
  H   H12       1.0  0.90517  0.07442  0.90074  1.0000
  H   H13       1.0  0.36418  0.96720  0.39342  1.0000
  H   H14       1.0  0.03280  0.63582  0.10658  1.0000
  H   H15       1.0  0.63582  0.03280  0.60658  1.0000
  H   H16       1.0  0.96720  0.36418  0.89342  1.0000
  H   H17       1.0  0.53644  0.89834  0.30196  1.0000
  H   H18       1.0  0.10166  0.46357  0.19804  1.0000
  H   H19       1.0  0.46356  0.10166  0.69804  1.0000
  H   H20       1.0  0.89835  0.53644  0.80196  1.0000
  H   H21       1.0  0.73977  0.62132  0.31034  1.0000
  H   H22       1.0  0.37867  0.26023  0.18966  1.0000
  H   H23       1.0  0.26023  0.37868  0.68966  1.0000
  H   H24       1.0  0.62133  0.73977  0.81034  1.0000
  H   H25       1.0  0.81509  0.45739  0.40673  1.0000
  H   H26       1.0  0.54261  0.18491  0.09327  1.0000
  H   H27       1.0  0.18491  0.54261  0.59327  1.0000
  H   H28       1.0  0.45739  0.81510  0.90674  1.0000
  H   H29       1.0  0.61279  0.30029  0.70573  1.0000
  H   H30       1.0  0.69971  0.38721  0.79427  1.0000
  H   H31       1.0  0.38721  0.69971  0.29427  1.0000
  H   H32       1.0  0.30029  0.61279  0.20573  1.0000
  H   H33       1.0  0.25686  0.84411  0.78444  1.0000
  H   H34       1.0  0.15589  0.74314  0.71556  1.0000
  H   H35       1.0  0.74314  0.15589  0.21556  1.0000
  H   H36       1.0  0.84411  0.25686  0.28444  1.0000
  C   C1        1.0  0.88763  0.77007  0.57784  1.0000
  C   C2        1.0  0.22994  0.11237  0.92216  1.0000
  C   C3        1.0  0.11237  0.22993  0.42216  1.0000
  C   C4        1.0  0.77006  0.88763  0.07784  1.0000
  C   C5        1.0  0.96157  0.82892  0.42174  1.0000
  C   C6        1.0  0.17108  0.03843  0.07826  1.0000
  C   C7        1.0  0.03843  0.17108  0.57826  1.0000
  C   C8        1.0  0.82892  0.96157  0.92174  1.0000
  O   O1        1.0  0.72710  0.81025  0.62983  1.0000
  O   O2        1.0  0.18975  0.27290  0.87017  1.0000
  O   O3        1.0  0.27290  0.18975  0.37017  1.0000
  O   O4        1.0  0.81025  0.72710  0.12983  1.0000
  O   O5        1.0  0.99108  0.67913  0.65228  1.0000
  O   O6        1.0  0.32087  0.00892  0.84772  1.0000
  O   O7        1.0  0.00892  0.32087  0.34772  1.0000
  O   O8        1.0  0.67913  0.99108  0.15228  1.0000
  O   O9        1.0  0.43474  0.85666  0.38111  1.0000
  O   O10       1.0  0.14334  0.56526  0.11889  1.0000
  O   O11       1.0  0.56526  0.14334  0.61889  1.0000
  O   O12       1.0  0.85666  0.43474  0.88111  1.0000
  O   O13       1.0  0.71065  0.54153  0.40529  1.0000
  O   O14       1.0  0.45846  0.28935  0.09471  1.0000
  O   O15       1.0  0.28935  0.45846  0.59471  1.0000
  O   O16       1.0  0.54154  0.71065  0.90529  1.0000
  O   O17       1.0  0.60046  0.39954  0.75000  1.0000
  O   O18       1.0  0.39954  0.60046  0.25000  1.0000
  O   O19       1.0  0.26153  0.73847  0.75000  1.0000
  O   O20       1.0  0.73847  0.26153  0.25000  1.0000
