data_image0
_chemical_formula_structural       Na4H28C24O24
_chemical_formula_sum              "Na4 H28 C24 O24"
_cell_length_a       4.45102
_cell_length_b       8.56221
_cell_length_c       18.7848
_cell_angle_alpha    90.0001
_cell_angle_beta     90
_cell_angle_gamma    90

_space_group_name_H-M_alt    "P 1"
_space_group_IT_number       1

loop_
  _space_group_symop_operation_xyz
  'x, y, z'

loop_
  _atom_site_type_symbol
  _atom_site_label
  _atom_site_symmetry_multiplicity
  _atom_site_fract_x
  _atom_site_fract_y
  _atom_site_fract_z
  _atom_site_occupancy
  Na  Na1       1.0  0.36042  0.89329  0.63156  1.0000
  Na  Na2       1.0  0.86042  0.60671  0.36844  1.0000
  Na  Na3       1.0  0.63958  0.39329  0.86844  1.0000
  Na  Na4       1.0  0.13958  0.10671  0.13156  1.0000
  H   H1        1.0  0.81055  0.79004  0.72727  1.0000
  H   H2        1.0  0.31055  0.70996  0.27273  1.0000
  H   H3        1.0  0.18946  0.29004  0.77273  1.0000
  H   H4        1.0  0.68946  0.20996  0.22727  1.0000
  H   H5        1.0  0.49661  0.17988  0.70296  1.0000
  H   H6        1.0  0.99660  0.32012  0.29704  1.0000
  H   H7        1.0  0.50339  0.67988  0.79704  1.0000
  H   H8        1.0  0.00340  0.82012  0.20296  1.0000
  H   H9        1.0  0.90671  0.89694  0.52226  1.0000
  H   H10       1.0  0.40671  0.60306  0.47774  1.0000
  H   H11       1.0  0.09329  0.39694  0.97774  1.0000
  H   H12       1.0  0.59329  0.10306  0.02226  1.0000
  H   H13       1.0  0.16971  0.36098  0.61729  1.0000
  H   H14       1.0  0.66971  0.13902  0.38271  1.0000
  H   H15       1.0  0.83029  0.86098  0.88271  1.0000
  H   H16       1.0  0.33029  0.63902  0.11729  1.0000
  H   H17       1.0  0.97896  0.13087  0.67411  1.0000
  H   H18       1.0  0.47896  0.36913  0.32589  1.0000
  H   H19       1.0  0.02103  0.63087  0.82589  1.0000
  H   H20       1.0  0.52103  0.86913  0.17411  1.0000
  H   H21       1.0  0.72715  0.14786  0.52342  1.0000
  H   H22       1.0  0.22715  0.35214  0.47658  1.0000
  H   H23       1.0  0.27285  0.64786  0.97658  1.0000
  H   H24       1.0  0.77285  0.85214  0.02342  1.0000
  H   H25       1.0  0.11908  0.14603  0.54266  1.0000
  H   H26       1.0  0.61909  0.35397  0.45734  1.0000
  H   H27       1.0  0.88092  0.64603  0.95734  1.0000
  H   H28       1.0  0.38092  0.85397  0.04266  1.0000
  C   C1        1.0  0.64350  0.57250  0.60254  1.0000
  C   C2        1.0  0.14349  0.92750  0.39746  1.0000
  C   C3        1.0  0.35650  0.07250  0.89746  1.0000
  C   C4        1.0  0.85651  0.42750  0.10254  1.0000
  C   C5        1.0  0.72328  0.58755  0.67592  1.0000
  C   C6        1.0  0.22328  0.91245  0.32408  1.0000
  C   C7        1.0  0.27672  0.08755  0.82408  1.0000
  C   C8        1.0  0.77672  0.41245  0.17592  1.0000
  C   C9        1.0  0.87571  0.45444  0.69762  1.0000
  C   C10       1.0  0.37571  0.04557  0.30238  1.0000
  C   C11       1.0  0.12429  0.95444  0.80238  1.0000
  C   C12       1.0  0.62429  0.54557  0.19762  1.0000
  C   C13       1.0  0.92872  0.35833  0.63071  1.0000
  C   C14       1.0  0.42872  0.14167  0.36929  1.0000
  C   C15       1.0  0.07128  0.85833  0.86929  1.0000
  C   C16       1.0  0.57128  0.64167  0.13071  1.0000
  C   C17       1.0  0.83675  0.18652  0.63341  1.0000
  C   C18       1.0  0.33675  0.31348  0.36659  1.0000
  C   C19       1.0  0.16325  0.68653  0.86659  1.0000
  C   C20       1.0  0.66325  0.81348  0.13341  1.0000
  C   C21       1.0  0.89734  0.10965  0.56228  1.0000
  C   C22       1.0  0.39734  0.39035  0.43772  1.0000
  C   C23       1.0  0.10267  0.60965  0.93772  1.0000
  C   C24       1.0  0.60266  0.89035  0.06228  1.0000
  O   O1        1.0  0.48088  0.65824  0.56497  1.0000
  O   O2        1.0  0.98090  0.84177  0.43503  1.0000
  O   O3        1.0  0.51911  0.15824  0.93504  1.0000
  O   O4        1.0  0.01910  0.34177  0.06497  1.0000
  O   O5        1.0  0.63064  0.71445  0.71549  1.0000
  O   O6        1.0  0.13064  0.78555  0.28451  1.0000
  O   O7        1.0  0.36936  0.21445  0.78451  1.0000
  O   O8        1.0  0.86936  0.28555  0.21549  1.0000
  O   O9        1.0  0.96344  0.41274  0.76016  1.0000
  O   O10       1.0  0.46344  0.08726  0.23984  1.0000
  O   O11       1.0  0.03656  0.91274  0.73984  1.0000
  O   O12       1.0  0.53656  0.58726  0.26016  1.0000
  O   O13       1.0  0.76724  0.43946  0.57432  1.0000
  O   O14       1.0  0.26725  0.06054  0.42567  1.0000
  O   O15       1.0  0.23276  0.93946  0.92568  1.0000
  O   O16       1.0  0.73275  0.56054  0.07433  1.0000
  O   O17       1.0  0.52884  0.16070  0.65096  1.0000
  O   O18       1.0  0.02883  0.33930  0.34904  1.0000
  O   O19       1.0  0.47116  0.66070  0.84904  1.0000
  O   O20       1.0  0.97116  0.83930  0.15096  1.0000
  O   O21       1.0  0.88597  0.94297  0.57092  1.0000
  O   O22       1.0  0.38597  0.55703  0.42908  1.0000
  O   O23       1.0  0.11403  0.44297  0.92908  1.0000
  O   O24       1.0  0.61403  0.05703  0.07092  1.0000
