data_image0
_chemical_formula_structural       Cu2H36C28S2N4O12
_chemical_formula_sum              "Cu2 H36 C28 S2 N4 O12"
_cell_length_a       8.49859
_cell_length_b       8.78594
_cell_length_c       11.9383
_cell_angle_alpha    102.524
_cell_angle_beta     93.6293
_cell_angle_gamma    117.875

_space_group_name_H-M_alt    "P 1"
_space_group_IT_number       1

loop_
  _space_group_symop_operation_xyz
  'x, y, z'

loop_
  _atom_site_type_symbol
  _atom_site_label
  _atom_site_symmetry_multiplicity
  _atom_site_fract_x
  _atom_site_fract_y
  _atom_site_fract_z
  _atom_site_occupancy
  Cu  Cu1       1.0  0.49999  0.99999  1.00000  1.0000
  Cu  Cu2       1.0  0.00000  0.50000  0.50000  1.0000
  H   H1        1.0  0.83257  0.13467  0.02472  1.0000
  H   H2        1.0  0.16742  0.86532  0.97528  1.0000
  H   H3        1.0  0.82573  0.87784  0.94527  1.0000
  H   H4        1.0  0.17426  0.12215  0.05473  1.0000
  H   H5        1.0  0.88305  0.98573  0.83257  1.0000
  H   H6        1.0  0.11695  0.01427  0.16743  1.0000
  H   H7        1.0  0.97942  0.77762  0.57069  1.0000
  H   H8        1.0  0.02059  0.22239  0.42931  1.0000
  H   H9        1.0  0.54032  0.83533  0.75221  1.0000
  H   H10       1.0  0.45967  0.16467  0.24779  1.0000
  H   H11       1.0  0.64190  0.69672  0.73517  1.0000
  H   H12       1.0  0.35809  0.30328  0.26483  1.0000
  H   H13       1.0  0.46075  0.41983  0.76076  1.0000
  H   H14       1.0  0.53926  0.58017  0.23925  1.0000
  H   H15       1.0  0.24976  0.22359  0.86792  1.0000
  H   H16       1.0  0.75025  0.77639  0.13209  1.0000
  H   H17       1.0  0.14611  0.37045  0.03513  1.0000
  H   H18       1.0  0.85387  0.62953  0.96487  1.0000
  H   H19       1.0  0.26227  0.69692  0.07953  1.0000
  H   H20       1.0  0.73771  0.30306  0.92046  1.0000
  H   H21       1.0  0.09508  0.93251  0.44845  1.0000
  H   H22       1.0  0.90493  0.06750  0.55155  1.0000
  H   H23       1.0  0.87749  0.79638  0.35656  1.0000
  H   H24       1.0  0.12252  0.20363  0.64344  1.0000
  H   H25       1.0  0.96713  0.56746  0.27192  1.0000
  H   H26       1.0  0.03288  0.43255  0.72808  1.0000
  H   H27       1.0  0.09577  0.77844  0.24293  1.0000
  H   H28       1.0  0.90424  0.22157  0.75708  1.0000
  H   H29       1.0  0.41670  0.90240  0.27449  1.0000
  H   H30       1.0  0.58331  0.09760  0.72551  1.0000
  H   H31       1.0  0.69531  0.93161  0.37551  1.0000
  H   H32       1.0  0.30471  0.06840  0.62449  1.0000
  H   H33       1.0  0.66964  0.75865  0.52571  1.0000
  H   H34       1.0  0.33037  0.24137  0.47430  1.0000
  H   H35       1.0  0.36070  0.56882  0.56392  1.0000
  H   H36       1.0  0.63931  0.43120  0.43609  1.0000
  C   C1        1.0  0.77618  0.92836  0.88289  1.0000
  C   C2        1.0  0.22381  0.07163  0.11711  1.0000
  C   C3        1.0  0.60419  0.77765  0.79953  1.0000
  C   C4        1.0  0.39580  0.22234  0.20047  1.0000
  C   C5        1.0  0.47070  0.65916  0.86109  1.0000
  C   C6        1.0  0.52929  0.34084  0.13891  1.0000
  C   C7        1.0  0.41045  0.47529  0.83091  1.0000
  C   C8        1.0  0.58955  0.52470  0.16909  1.0000
  C   C9        1.0  0.29195  0.36623  0.89105  1.0000
  C   C10       1.0  0.70805  0.63376  0.10895  1.0000
  C   C11       1.0  0.23611  0.44564  0.98233  1.0000
  C   C12       1.0  0.76387  0.55434  0.01766  1.0000
  C   C13       1.0  0.30147  0.62924  0.00883  1.0000
  C   C14       1.0  0.69852  0.37075  0.99116  1.0000
  C   C15       1.0  0.99215  0.79355  0.40207  1.0000
  C   C16       1.0  0.00786  0.20646  0.59794  1.0000
  C   C17       1.0  0.06917  0.70935  0.31172  1.0000
  C   C18       1.0  0.93084  0.29065  0.68828  1.0000
  C   C19       1.0  0.24032  0.72313  0.36613  1.0000
  C   C20       1.0  0.75969  0.27688  0.63387  1.0000
  C   C21       1.0  0.40818  0.83117  0.33993  1.0000
  C   C22       1.0  0.59183  0.16884  0.66007  1.0000
  C   C23       1.0  0.56516  0.84701  0.39692  1.0000
  C   C24       1.0  0.43485  0.15300  0.60308  1.0000
  C   C25       1.0  0.55130  0.75235  0.47921  1.0000
  C   C26       1.0  0.44871  0.24767  0.52080  1.0000
  C   C27       1.0  0.38091  0.64634  0.50124  1.0000
  C   C28       1.0  0.61910  0.35368  0.49876  1.0000
  S   S1        1.0  0.15257  0.83578  0.76585  1.0000
  S   S2        1.0  0.84743  0.16422  0.23415  1.0000
  N   N1        1.0  0.41524  0.73434  0.94980  1.0000
  N   N2        1.0  0.58474  0.26564  0.05020  1.0000
  N   N3        1.0  0.22945  0.63239  0.44624  1.0000
  N   N4        1.0  0.77056  0.36762  0.55376  1.0000
  O   O1        1.0  0.74156  0.06577  0.94466  1.0000
  O   O2        1.0  0.25843  0.93422  0.05534  1.0000
  O   O3        1.0  0.92954  0.69240  0.48524  1.0000
  O   O4        1.0  0.07047  0.30761  0.51476  1.0000
  O   O5        1.0  0.33164  0.99511  0.82286  1.0000
  O   O6        1.0  0.66836  0.00489  0.17714  1.0000
  O   O7        1.0  0.04825  0.76992  0.85859  1.0000
  O   O8        1.0  0.95175  0.23008  0.14141  1.0000
  O   O9        1.0  0.04681  0.89009  0.69218  1.0000
  O   O10       1.0  0.95319  0.10992  0.30782  1.0000
  O   O11       1.0  0.17397  0.69129  0.69053  1.0000
  O   O12       1.0  0.82603  0.30872  0.30947  1.0000
