data_image0
_chemical_formula_structural       Cu2H32C32N4O8
_chemical_formula_sum              "Cu2 H32 C32 N4 O8"
_cell_length_a       9.87289
_cell_length_b       9.56832
_cell_length_c       10.7647
_cell_angle_alpha    105.049
_cell_angle_beta     115.582
_cell_angle_gamma    106.603

_space_group_name_H-M_alt    "P 1"
_space_group_IT_number       1

loop_
  _space_group_symop_operation_xyz
  'x, y, z'

loop_
  _atom_site_type_symbol
  _atom_site_label
  _atom_site_symmetry_multiplicity
  _atom_site_fract_x
  _atom_site_fract_y
  _atom_site_fract_z
  _atom_site_occupancy
  Cu  Cu1       1.0  0.94043  0.62317  0.62507  1.0000
  Cu  Cu2       1.0  0.05955  0.37682  0.37491  1.0000
  H   H1        1.0  0.79343  0.08950  0.42331  1.0000
  H   H2        1.0  0.20658  0.91048  0.57670  1.0000
  H   H3        1.0  0.58959  0.06095  0.37637  1.0000
  H   H4        1.0  0.41042  0.93906  0.62364  1.0000
  H   H5        1.0  0.68034  0.91514  0.53076  1.0000
  H   H6        1.0  0.31966  0.08485  0.46923  1.0000
  H   H7        1.0  0.65492  0.07395  0.62953  1.0000
  H   H8        1.0  0.34505  0.92604  0.37046  1.0000
  H   H9        1.0  0.96341  0.25421  0.78715  1.0000
  H   H10       1.0  0.03657  0.74576  0.21284  1.0000
  H   H11       1.0  0.99612  0.10397  0.68558  1.0000
  H   H12       1.0  0.00385  0.89602  0.31443  1.0000
  H   H13       1.0  0.05727  0.12193  0.94617  1.0000
  H   H14       1.0  0.94270  0.87805  0.05384  1.0000
  H   H15       1.0  0.83777  0.04224  0.86795  1.0000
  H   H16       1.0  0.16219  0.95772  0.13204  1.0000
  H   H17       1.0  0.98653  0.62374  0.91320  1.0000
  H   H18       1.0  0.01346  0.37625  0.08681  1.0000
  H   H19       1.0  0.21015  0.62813  0.15002  1.0000
  H   H20       1.0  0.78985  0.37184  0.84998  1.0000
  H   H21       1.0  0.52185  0.68621  0.96426  1.0000
  H   H22       1.0  0.47818  0.31384  0.03575  1.0000
  H   H23       1.0  0.28780  0.68134  0.73984  1.0000
  H   H24       1.0  0.71219  0.31866  0.26015  1.0000
  H   H25       1.0  0.33511  0.45675  0.21794  1.0000
  H   H26       1.0  0.66492  0.54327  0.78207  1.0000
  H   H27       1.0  0.56092  0.44322  0.42851  1.0000
  H   H28       1.0  0.43910  0.55676  0.57147  1.0000
  H   H29       1.0  0.93582  0.79285  0.44174  1.0000
  H   H30       1.0  0.06418  0.20720  0.55828  1.0000
  H   H31       1.0  0.72678  0.82108  0.22705  1.0000
  H   H32       1.0  0.27322  0.17895  0.77297  1.0000
  C   C1        1.0  0.78172  0.29973  0.54455  1.0000
  C   C2        1.0  0.21830  0.70027  0.45545  1.0000
  C   C3        1.0  0.72207  0.11694  0.47295  1.0000
  C   C4        1.0  0.27793  0.88306  0.52704  1.0000
  C   C5        1.0  0.73391  0.04836  0.58869  1.0000
  C   C6        1.0  0.26605  0.95163  0.41128  1.0000
  C   C7        1.0  0.91483  0.12187  0.72621  1.0000
  C   C8        1.0  0.08513  0.87811  0.27378  1.0000
  C   C9        1.0  0.93200  0.04723  0.83834  1.0000
  C   C10       1.0  0.06797  0.95273  0.16165  1.0000
  C   C11       1.0  0.91297  0.87604  0.77548  1.0000
  C   C12       1.0  0.08704  0.12395  0.22451  1.0000
  C   C13       1.0  0.10667  0.63459  0.92992  1.0000
  C   C14       1.0  0.89333  0.36540  0.07009  1.0000
  C   C15       1.0  0.22937  0.63530  0.05879  1.0000
  C   C16       1.0  0.77064  0.36468  0.94122  1.0000
  C   C17       1.0  0.38172  0.65051  0.07310  1.0000
  C   C18       1.0  0.61831  0.34952  0.92691  1.0000
  C   C19       1.0  0.40611  0.67300  0.95936  1.0000
  C   C20       1.0  0.59389  0.32702  0.04064  1.0000
  C   C21       1.0  0.27690  0.66979  0.83355  1.0000
  C   C22       1.0  0.72308  0.33022  0.16645  1.0000
  C   C23       1.0  0.51103  0.64051  0.20200  1.0000
  C   C24       1.0  0.48899  0.35951  0.79801  1.0000
  C   C25       1.0  0.46577  0.53453  0.26168  1.0000
  C   C26       1.0  0.53425  0.46548  0.73832  1.0000
  C   C27       1.0  0.59165  0.52524  0.38030  1.0000
  C   C28       1.0  0.40835  0.47476  0.61969  1.0000
  C   C29       1.0  0.80110  0.71968  0.38606  1.0000
  C   C30       1.0  0.19891  0.28034  0.61395  1.0000
  C   C31       1.0  0.68342  0.73414  0.26637  1.0000
  C   C32       1.0  0.31661  0.26588  0.73366  1.0000
  N   N1        1.0  0.12818  0.64702  0.81721  1.0000
  N   N2        1.0  0.87181  0.35299  0.18279  1.0000
  N   N3        1.0  0.75664  0.61652  0.44161  1.0000
  N   N4        1.0  0.24336  0.38347  0.55838  1.0000
  O   O1        1.0  0.73729  0.35990  0.62891  1.0000
  O   O2        1.0  0.26273  0.64011  0.37108  1.0000
  O   O3        1.0  0.87793  0.38639  0.51231  1.0000
  O   O4        1.0  0.12210  0.61362  0.48770  1.0000
  O   O5        1.0  0.00989  0.86125  0.72605  1.0000
  O   O6        1.0  0.99012  0.13874  0.27394  1.0000
  O   O7        1.0  0.81123  0.76016  0.77331  1.0000
  O   O8        1.0  0.18880  0.23983  0.22669  1.0000
