data_image0
_chemical_formula_structural       Tl2P2H24C32N12O4
_chemical_formula_sum              "Tl2 P2 H24 C32 N12 O4"
_cell_length_a       8.26612
_cell_length_b       8.56048
_cell_length_c       13.756
_cell_angle_alpha    100.965
_cell_angle_beta     100.301
_cell_angle_gamma    95.5827

_space_group_name_H-M_alt    "P 1"
_space_group_IT_number       1

loop_
  _space_group_symop_operation_xyz
  'x, y, z'

loop_
  _atom_site_type_symbol
  _atom_site_label
  _atom_site_symmetry_multiplicity
  _atom_site_fract_x
  _atom_site_fract_y
  _atom_site_fract_z
  _atom_site_occupancy
  Tl  Tl1       1.0  0.28319  0.91698  0.22484  1.0000
  Tl  Tl2       1.0  0.71681  0.08302  0.77516  1.0000
  P   P1        1.0  0.74372  0.86708  0.16040  1.0000
  P   P2        1.0  0.25629  0.13292  0.83960  1.0000
  H   H1        1.0  0.92317  0.15693  0.51672  1.0000
  H   H2        1.0  0.07683  0.84308  0.48328  1.0000
  H   H3        1.0  0.00750  0.97174  0.35102  1.0000
  H   H4        1.0  0.99250  0.02826  0.64897  1.0000
  H   H5        1.0  0.16348  0.23654  0.42633  1.0000
  H   H6        1.0  0.83652  0.76345  0.57367  1.0000
  H   H7        1.0  0.24852  0.41548  0.59868  1.0000
  H   H8        1.0  0.75148  0.58452  0.40132  1.0000
  H   H9        1.0  0.54868  0.45372  0.68554  1.0000
  H   H10       1.0  0.45132  0.54629  0.31446  1.0000
  H   H11       1.0  0.74883  0.31492  0.59566  1.0000
  H   H12       1.0  0.25117  0.68508  0.40434  1.0000
  H   H13       1.0  0.63321  0.08648  0.01599  1.0000
  H   H14       1.0  0.36678  0.91352  0.98401  1.0000
  H   H15       1.0  0.87649  0.30662  0.98960  1.0000
  H   H16       1.0  0.12351  0.69338  0.01040  1.0000
  H   H17       1.0  0.58445  0.22901  0.21199  1.0000
  H   H18       1.0  0.41555  0.77098  0.78802  1.0000
  H   H19       1.0  0.65268  0.48578  0.15378  1.0000
  H   H20       1.0  0.34732  0.51422  0.84623  1.0000
  H   H21       1.0  0.41983  0.60636  0.06794  1.0000
  H   H22       1.0  0.58018  0.39365  0.93206  1.0000
  H   H23       1.0  0.12802  0.46407  0.04001  1.0000
  H   H24       1.0  0.87199  0.53593  0.95998  1.0000
  C   C1        1.0  0.67335  0.11418  0.41046  1.0000
  C   C2        1.0  0.32666  0.88582  0.58954  1.0000
  C   C3        1.0  0.84437  0.10455  0.44367  1.0000
  C   C4        1.0  0.15563  0.89545  0.55633  1.0000
  C   C5        1.0  0.89038  0.01140  0.36215  1.0000
  C   C6        1.0  0.10962  0.98860  0.63785  1.0000
  C   C7        1.0  0.29229  0.25478  0.46699  1.0000
  C   C8        1.0  0.70772  0.74522  0.53302  1.0000
  C   C9        1.0  0.33969  0.35558  0.56269  1.0000
  C   C10       1.0  0.66031  0.64442  0.43731  1.0000
  C   C11       1.0  0.50618  0.37658  0.61069  1.0000
  C   C12       1.0  0.49382  0.62342  0.38931  1.0000
  C   C13       1.0  0.61731  0.29774  0.56101  1.0000
  C   C14       1.0  0.38270  0.70227  0.43899  1.0000
  C   C15       1.0  0.55897  0.19735  0.46516  1.0000
  C   C16       1.0  0.44103  0.80265  0.53484  1.0000
  C   C17       1.0  0.76466  0.10996  0.04939  1.0000
  C   C18       1.0  0.23533  0.89004  0.95061  1.0000
  C   C19       1.0  0.88892  0.22041  0.03775  1.0000
  C   C20       1.0  0.11108  0.77959  0.96225  1.0000
  C   C21       1.0  0.03648  0.19257  0.09908  1.0000
  C   C22       1.0  0.96352  0.80743  0.90091  1.0000
  C   C23       1.0  0.48743  0.28629  0.17342  1.0000
  C   C24       1.0  0.51257  0.71370  0.82658  1.0000
  C   C25       1.0  0.52484  0.42816  0.14144  1.0000
  C   C26       1.0  0.47516  0.57183  0.85856  1.0000
  C   C27       1.0  0.39392  0.49472  0.09288  1.0000
  C   C28       1.0  0.60609  0.50528  0.90712  1.0000
  C   C29       1.0  0.23321  0.41702  0.07845  1.0000
  C   C30       1.0  0.76681  0.58298  0.92155  1.0000
  C   C31       1.0  0.20555  0.27505  0.11329  1.0000
  C   C32       1.0  0.79445  0.72495  0.88671  1.0000
  N   N1        1.0  0.75329  0.97038  0.28590  1.0000
  N   N2        1.0  0.24670  0.02963  0.71409  1.0000
  N   N3        1.0  0.62083  0.03342  0.31429  1.0000
  N   N4        1.0  0.37916  0.96659  0.68571  1.0000
  N   N5        1.0  0.39712  0.17554  0.41920  1.0000
  N   N6        1.0  0.60288  0.82446  0.58080  1.0000
  N   N7        1.0  0.83794  0.02235  0.11452  1.0000
  N   N8        1.0  0.16206  0.97765  0.88547  1.0000
  N   N9        1.0  0.00347  0.07277  0.14593  1.0000
  N   N10       1.0  0.99653  0.92723  0.85406  1.0000
  N   N11       1.0  0.33263  0.21091  0.16022  1.0000
  N   N12       1.0  0.66736  0.78908  0.83978  1.0000
  O   O1        1.0  0.56613  0.84216  0.10884  1.0000
  O   O2        1.0  0.43386  0.15784  0.89115  1.0000
  O   O3        1.0  0.85871  0.74555  0.16887  1.0000
  O   O4        1.0  0.14127  0.25445  0.83112  1.0000
