data_image0
_chemical_formula_structural       Mo8H40C40N8O28
_chemical_formula_sum              "Mo8 H40 C40 N8 O28"
_cell_length_a       3.74336
_cell_length_b       17.1753
_cell_length_c       19.9319
_cell_angle_alpha    90.0002
_cell_angle_beta     89.9996
_cell_angle_gamma    96.4196

_space_group_name_H-M_alt    "P 1"
_space_group_IT_number       1

loop_
  _space_group_symop_operation_xyz
  'x, y, z'

loop_
  _atom_site_type_symbol
  _atom_site_label
  _atom_site_symmetry_multiplicity
  _atom_site_fract_x
  _atom_site_fract_y
  _atom_site_fract_z
  _atom_site_occupancy
  Mo  Mo1       1.0  0.30652  0.54134  0.70306  1.0000
  Mo  Mo2       1.0  0.19351  0.95865  0.20306  1.0000
  Mo  Mo3       1.0  0.69344  0.45866  0.29694  1.0000
  Mo  Mo4       1.0  0.80655  0.04134  0.79694  1.0000
  Mo  Mo5       1.0  0.79401  0.58141  0.97598  1.0000
  Mo  Mo6       1.0  0.70600  0.91859  0.47598  1.0000
  Mo  Mo7       1.0  0.20598  0.41859  0.02402  1.0000
  Mo  Mo8       1.0  0.29402  0.08141  0.52402  1.0000
  H   H1        1.0  0.33476  0.51643  0.54399  1.0000
  H   H2        1.0  0.16529  0.98356  0.04398  1.0000
  H   H3        1.0  0.66516  0.48357  0.45602  1.0000
  H   H4        1.0  0.83482  0.01643  0.95601  1.0000
  H   H5        1.0  0.19618  0.58425  0.43603  1.0000
  H   H6        1.0  0.30388  0.91575  0.93603  1.0000
  H   H7        1.0  0.80377  0.41576  0.56397  1.0000
  H   H8        1.0  0.69623  0.08424  0.06397  1.0000
  H   H9        1.0  0.01895  0.72232  0.44488  1.0000
  H   H10       1.0  0.48110  0.77768  0.94488  1.0000
  H   H11       1.0  0.98105  0.27769  0.55512  1.0000
  H   H12       1.0  0.51896  0.22232  0.05511  1.0000
  H   H13       1.0  0.03654  0.78690  0.55520  1.0000
  H   H14       1.0  0.46348  0.71309  0.05520  1.0000
  H   H15       1.0  0.96346  0.21310  0.44480  1.0000
  H   H16       1.0  0.53655  0.28690  0.94479  1.0000
  H   H17       1.0  0.14476  0.84094  0.64351  1.0000
  H   H18       1.0  0.35523  0.65905  0.14351  1.0000
  H   H19       1.0  0.85519  0.15907  0.35649  1.0000
  H   H20       1.0  0.64480  0.34094  0.85649  1.0000
  H   H21       1.0  0.21753  0.89411  0.75947  1.0000
  H   H22       1.0  0.28241  0.60588  0.25947  1.0000
  H   H23       1.0  0.78237  0.10589  0.24054  1.0000
  H   H24       1.0  0.71757  0.39411  0.74053  1.0000
  H   H25       1.0  0.37444  0.80642  0.85187  1.0000
  H   H26       1.0  0.12551  0.69358  0.35187  1.0000
  H   H27       1.0  0.62546  0.19358  0.14814  1.0000
  H   H28       1.0  0.87448  0.30641  0.64813  1.0000
  H   H29       1.0  0.43119  0.66524  0.82637  1.0000
  H   H30       1.0  0.06883  0.83475  0.32637  1.0000
  H   H31       1.0  0.56877  0.33476  0.17363  1.0000
  H   H32       1.0  0.93121  0.16524  0.67363  1.0000
  H   H33       1.0  0.54324  0.50483  0.85250  1.0000
  H   H34       1.0  0.95677  0.99517  0.35249  1.0000
  H   H35       1.0  0.45672  0.49517  0.14751  1.0000
  H   H36       1.0  0.04326  0.00483  0.64750  1.0000
  H   H37       1.0  0.96045  0.50472  0.85190  1.0000
  H   H38       1.0  0.53956  0.99528  0.35190  1.0000
  H   H39       1.0  0.03952  0.49528  0.14810  1.0000
  H   H40       1.0  0.46046  0.00472  0.64810  1.0000
  C   C1        1.0  0.27711  0.57717  0.54312  1.0000
  C   C2        1.0  0.22294  0.92283  0.04312  1.0000
  C   C3        1.0  0.72283  0.42284  0.45688  1.0000
  C   C4        1.0  0.77716  0.07717  0.95688  1.0000
  C   C5        1.0  0.19551  0.61465  0.48404  1.0000
  C   C6        1.0  0.30453  0.88534  0.98404  1.0000
  C   C7        1.0  0.80444  0.38535  0.51596  1.0000
  C   C8        1.0  0.69554  0.11465  0.01596  1.0000
  C   C9        1.0  0.10176  0.69085  0.48855  1.0000
  C   C10       1.0  0.39828  0.80915  0.98855  1.0000
  C   C11       1.0  0.89822  0.30916  0.51145  1.0000
  C   C12       1.0  0.60178  0.19085  0.01145  1.0000
  C   C13       1.0  0.11076  0.72782  0.55058  1.0000
  C   C14       1.0  0.38928  0.77218  0.05058  1.0000
  C   C15       1.0  0.88922  0.27219  0.44942  1.0000
  C   C16       1.0  0.61079  0.22782  0.94941  1.0000
  C   C17       1.0  0.20890  0.68763  0.60735  1.0000
  C   C18       1.0  0.29113  0.81237  0.10735  1.0000
  C   C19       1.0  0.79107  0.31238  0.39265  1.0000
  C   C20       1.0  0.70893  0.18763  0.89264  1.0000
  C   C21       1.0  0.24081  0.72391  0.67424  1.0000
  C   C22       1.0  0.25921  0.77609  0.17423  1.0000
  C   C23       1.0  0.75915  0.27610  0.32577  1.0000
  C   C24       1.0  0.74084  0.22390  0.82576  1.0000
  C   C25       1.0  0.20256  0.80299  0.68491  1.0000
  C   C26       1.0  0.29743  0.69700  0.18490  1.0000
  C   C27       1.0  0.79738  0.19701  0.31510  1.0000
  C   C28       1.0  0.70260  0.30299  0.81509  1.0000
  C   C29       1.0  0.24658  0.83293  0.74957  1.0000
  C   C30       1.0  0.25340  0.66706  0.24957  1.0000
  C   C31       1.0  0.75335  0.16707  0.25044  1.0000
  C   C32       1.0  0.74662  0.33293  0.75043  1.0000
  C   C33       1.0  0.33232  0.78390  0.80130  1.0000
  C   C34       1.0  0.16765  0.71609  0.30129  1.0000
  C   C35       1.0  0.66759  0.21610  0.19871  1.0000
  C   C36       1.0  0.83236  0.28390  0.69870  1.0000
  C   C37       1.0  0.36543  0.70562  0.78728  1.0000
  C   C38       1.0  0.13458  0.79438  0.28728  1.0000
  C   C39       1.0  0.63452  0.29438  0.21272  1.0000
  C   C40       1.0  0.86547  0.20562  0.71272  1.0000
  N   N1        1.0  0.28060  0.61233  0.60329  1.0000
  N   N2        1.0  0.21943  0.88767  0.10329  1.0000
  N   N3        1.0  0.71934  0.38768  0.39671  1.0000
  N   N4        1.0  0.78065  0.11232  0.89670  1.0000
  N   N5        1.0  0.31842  0.67632  0.72511  1.0000
  N   N6        1.0  0.18161  0.82367  0.22511  1.0000
  N   N7        1.0  0.68154  0.32368  0.27489  1.0000
  N   N8        1.0  0.81845  0.17632  0.77488  1.0000
  O   O1        1.0  0.78952  0.56388  0.69758  1.0000
  O   O2        1.0  0.71052  0.93612  0.19758  1.0000
  O   O3        1.0  0.21043  0.43613  0.30242  1.0000
  O   O4        1.0  0.28954  0.06387  0.80242  1.0000
  O   O5        1.0  0.23491  0.45695  0.65565  1.0000
  O   O6        1.0  0.26513  0.04305  0.15565  1.0000
  O   O7        1.0  0.76505  0.54306  0.34435  1.0000
  O   O8        1.0  0.73492  0.95694  0.84434  1.0000
  O   O9        1.0  0.25708  0.51340  0.78833  1.0000
  O   O10       1.0  0.24295  0.98660  0.28833  1.0000
  O   O11       1.0  0.74288  0.48660  0.21167  1.0000
  O   O12       1.0  0.75710  0.01340  0.71166  1.0000
  O   O13       1.0  0.27433  0.54594  0.97375  1.0000
  O   O14       1.0  0.22568  0.95406  0.47375  1.0000
  O   O15       1.0  0.72566  0.45405  0.02625  1.0000
  O   O16       1.0  0.77433  0.04595  0.52625  1.0000
  O   O17       1.0  0.81307  0.62182  0.05465  1.0000
  O   O18       1.0  0.68693  0.87818  0.55465  1.0000
  O   O19       1.0  0.18692  0.37818  0.94536  1.0000
  O   O20       1.0  0.31308  0.12182  0.44535  1.0000
  O   O21       1.0  0.83072  0.66202  0.92496  1.0000
  O   O22       1.0  0.66929  0.83798  0.42495  1.0000
  O   O23       1.0  0.16927  0.33798  0.07505  1.0000
  O   O24       1.0  0.33072  0.16203  0.57504  1.0000
  O   O25       1.0  0.75105  0.50127  0.88312  1.0000
  O   O26       1.0  0.74897  0.99873  0.38312  1.0000
  O   O27       1.0  0.24892  0.49873  0.11689  1.0000
  O   O28       1.0  0.25106  0.00127  0.61688  1.0000
