data_image0
_chemical_formula_structural       Ni2H40C48N4O12
_chemical_formula_sum              "Ni2 H40 C48 N4 O12"
_cell_length_a       7.48642
_cell_length_b       10.7675
_cell_length_c       14.2436
_cell_angle_alpha    106.81
_cell_angle_beta     95.7425
_cell_angle_gamma    105.158

_space_group_name_H-M_alt    "P 1"
_space_group_IT_number       1

loop_
  _space_group_symop_operation_xyz
  'x, y, z'

loop_
  _atom_site_type_symbol
  _atom_site_label
  _atom_site_symmetry_multiplicity
  _atom_site_fract_x
  _atom_site_fract_y
  _atom_site_fract_z
  _atom_site_occupancy
  Ni  Ni1       1.0  0.29280  0.06583  0.27112  1.0000
  Ni  Ni2       1.0  0.70720  0.93417  0.72888  1.0000
  H   H1        1.0  0.29799  0.63743  0.16693  1.0000
  H   H2        1.0  0.70200  0.36255  0.83307  1.0000
  H   H3        1.0  0.94917  0.31231  0.07664  1.0000
  H   H4        1.0  0.05080  0.68768  0.92336  1.0000
  H   H5        1.0  0.60881  0.29656  0.06534  1.0000
  H   H6        1.0  0.39116  0.70343  0.93467  1.0000
  H   H7        1.0  0.51224  0.50604  0.11907  1.0000
  H   H8        1.0  0.48775  0.49397  0.88094  1.0000
  H   H9        1.0  0.75921  0.73340  0.18269  1.0000
  H   H10       1.0  0.24078  0.26660  0.81731  1.0000
  H   H11       1.0  0.30649  0.43059  0.35740  1.0000
  H   H12       1.0  0.69352  0.56941  0.64260  1.0000
  H   H13       1.0  0.27165  0.66320  0.41729  1.0000
  H   H14       1.0  0.72837  0.33681  0.58271  1.0000
  H   H15       1.0  0.95285  0.69234  0.42413  1.0000
  H   H16       1.0  0.04716  0.30767  0.57587  1.0000
  H   H17       1.0  0.66909  0.48668  0.37022  1.0000
  H   H18       1.0  0.33093  0.51333  0.62978  1.0000
  H   H19       1.0  0.21976  0.86339  0.37558  1.0000
  H   H20       1.0  0.78019  0.13660  0.62442  1.0000
  H   H21       1.0  0.21817  0.87065  0.55127  1.0000
  H   H22       1.0  0.78178  0.12935  0.44873  1.0000
  H   H23       1.0  0.31475  0.09622  0.68711  1.0000
  H   H24       1.0  0.68527  0.90379  0.31289  1.0000
  H   H25       1.0  0.39181  0.30886  0.63809  1.0000
  H   H26       1.0  0.60827  0.69115  0.36191  1.0000
  H   H27       1.0  0.37995  0.28443  0.45705  1.0000
  H   H28       1.0  0.62010  0.71556  0.54295  1.0000
  H   H29       1.0  0.25207  0.26617  0.18385  1.0000
  H   H30       1.0  0.74791  0.73383  0.81615  1.0000
  H   H31       1.0  0.21683  0.28395  0.01270  1.0000
  H   H32       1.0  0.78315  0.71606  0.98730  1.0000
  H   H33       1.0  0.21941  0.08379  0.86745  1.0000
  H   H34       1.0  0.78056  0.91622  0.13255  1.0000
  H   H35       1.0  0.27103  0.88057  0.90249  1.0000
  H   H36       1.0  0.72897  0.11945  0.09750  1.0000
  H   H37       1.0  0.30908  0.87960  0.07965  1.0000
  H   H38       1.0  0.69093  0.12041  0.92034  1.0000
  H   H39       1.0  0.89545  0.13960  0.27846  1.0000
  H   H40       1.0  0.10457  0.86041  0.72155  1.0000
  C   C1        1.0  0.13998  0.78444  0.19999  1.0000
  C   C2        1.0  0.86002  0.21555  0.80000  1.0000
  C   C3        1.0  0.99098  0.65149  0.16396  1.0000
  C   C4        1.0  0.00901  0.34850  0.83603  1.0000
  C   C5        1.0  0.04449  0.53055  0.13452  1.0000
  C   C6        1.0  0.95550  0.46944  0.86548  1.0000
  C   C7        1.0  0.90487  0.40342  0.09916  1.0000
  C   C8        1.0  0.09511  0.59657  0.90084  1.0000
  C   C9        1.0  0.71628  0.39583  0.09349  1.0000
  C   C10       1.0  0.28369  0.60417  0.90652  1.0000
  C   C11       1.0  0.66100  0.51398  0.12362  1.0000
  C   C12       1.0  0.33899  0.48602  0.87638  1.0000
  C   C13       1.0  0.79847  0.64018  0.15848  1.0000
  C   C14       1.0  0.20152  0.35981  0.84151  1.0000
  C   C15       1.0  0.66070  0.22219  0.30181  1.0000
  C   C16       1.0  0.33930  0.77781  0.69819  1.0000
  C   C17       1.0  0.82659  0.34528  0.33436  1.0000
  C   C18       1.0  0.17342  0.65472  0.66564  1.0000
  C   C19       1.0  0.00878  0.32969  0.33106  1.0000
  C   C20       1.0  0.99123  0.67032  0.66895  1.0000
  C   C21       1.0  0.16821  0.44512  0.36124  1.0000
  C   C22       1.0  0.83180  0.55489  0.63876  1.0000
  C   C23       1.0  0.14685  0.57407  0.39432  1.0000
  C   C24       1.0  0.85317  0.42593  0.60568  1.0000
  C   C25       1.0  0.96801  0.59082  0.39814  1.0000
  C   C26       1.0  0.03200  0.40919  0.60186  1.0000
  C   C27       1.0  0.80995  0.47687  0.36835  1.0000
  C   C28       1.0  0.19006  0.52314  0.63165  1.0000
  C   C29       1.0  0.25438  0.95987  0.43545  1.0000
  C   C30       1.0  0.74560  0.04013  0.56455  1.0000
  C   C31       1.0  0.25490  0.96501  0.53394  1.0000
  C   C32       1.0  0.74508  0.03499  0.46606  1.0000
  C   C33       1.0  0.30619  0.09087  0.60930  1.0000
  C   C34       1.0  0.69383  0.90913  0.39071  1.0000
  C   C35       1.0  0.35128  0.20801  0.58199  1.0000
  C   C36       1.0  0.64878  0.79199  0.41801  1.0000
  C   C37       1.0  0.34538  0.19582  0.48170  1.0000
  C   C38       1.0  0.65466  0.80417  0.51830  1.0000
  C   C39       1.0  0.25402  0.18290  0.11933  1.0000
  C   C40       1.0  0.74596  0.81710  0.88067  1.0000
  C   C41       1.0  0.23327  0.19111  0.02342  1.0000
  C   C42       1.0  0.76672  0.80889  0.97658  1.0000
  C   C43       1.0  0.23656  0.08098  0.94348  1.0000
  C   C44       1.0  0.76343  0.91903  0.05652  1.0000
  C   C45       1.0  0.26330  0.96688  0.96281  1.0000
  C   C46       1.0  0.73669  0.03314  0.03718  1.0000
  C   C47       1.0  0.28363  0.96497  0.06033  1.0000
  C   C48       1.0  0.71637  0.03504  0.93966  1.0000
  N   N1        1.0  0.29945  0.07336  0.40888  1.0000
  N   N2        1.0  0.70055  0.92663  0.59112  1.0000
  N   N3        1.0  0.27707  0.07089  0.13736  1.0000
  N   N4        1.0  0.72293  0.92911  0.86263  1.0000
  O   O1        1.0  0.08883  0.89418  0.22512  1.0000
  O   O2        1.0  0.91118  0.10582  0.77487  1.0000
  O   O3        1.0  0.31261  0.78804  0.20606  1.0000
  O   O4        1.0  0.68739  0.21194  0.79392  1.0000
  O   O5        1.0  0.22661  0.53470  0.13968  1.0000
  O   O6        1.0  0.77337  0.46528  0.86032  1.0000
  O   O7        1.0  0.49712  0.23739  0.31364  1.0000
  O   O8        1.0  0.50289  0.76261  0.68635  1.0000
  O   O9        1.0  0.68256  0.10567  0.26442  1.0000
  O   O10       1.0  0.31745  0.89434  0.73558  1.0000
  O   O11       1.0  0.03130  0.20478  0.29935  1.0000
  O   O12       1.0  0.96871  0.79522  0.70066  1.0000
