data_image0
_chemical_formula_structural       Cu2H24C40N4Cl4O16
_chemical_formula_sum              "Cu2 H24 C40 N4 Cl4 O16"
_cell_length_a       9.3346
_cell_length_b       9.33454
_cell_length_c       12.5146
_cell_angle_alpha    82.4406
_cell_angle_beta     82.4407
_cell_angle_gamma    87.6204

_space_group_name_H-M_alt    "P 1"
_space_group_IT_number       1

loop_
  _space_group_symop_operation_xyz
  'x, y, z'

loop_
  _atom_site_type_symbol
  _atom_site_label
  _atom_site_symmetry_multiplicity
  _atom_site_fract_x
  _atom_site_fract_y
  _atom_site_fract_z
  _atom_site_occupancy
  Cu  Cu1       1.0  0.80459  0.19541  0.75000  1.0000
  Cu  Cu2       1.0  0.19540  0.80459  0.25000  1.0000
  H   H1        1.0  0.81332  0.73920  0.22208  1.0000
  H   H2        1.0  0.26080  0.18668  0.27792  1.0000
  H   H3        1.0  0.18669  0.26080  0.77792  1.0000
  H   H4        1.0  0.73920  0.81332  0.72208  1.0000
  H   H5        1.0  0.70621  0.97741  0.14375  1.0000
  H   H6        1.0  0.02259  0.29378  0.35624  1.0000
  H   H7        1.0  0.29379  0.02259  0.85625  1.0000
  H   H8        1.0  0.97741  0.70622  0.64376  1.0000
  H   H9        1.0  0.43773  0.99649  0.14164  1.0000
  H   H10       1.0  0.00350  0.56226  0.35836  1.0000
  H   H11       1.0  0.56227  0.00351  0.85836  1.0000
  H   H12       1.0  0.99650  0.43774  0.64164  1.0000
  H   H13       1.0  0.66036  0.22711  0.40109  1.0000
  H   H14       1.0  0.77288  0.33964  0.09891  1.0000
  H   H15       1.0  0.33964  0.77289  0.59891  1.0000
  H   H16       1.0  0.22712  0.66036  0.90109  1.0000
  H   H17       1.0  0.73377  0.33803  0.48705  1.0000
  H   H18       1.0  0.66197  0.26622  0.01296  1.0000
  H   H19       1.0  0.26622  0.66198  0.51296  1.0000
  H   H20       1.0  0.33804  0.73378  0.98704  1.0000
  H   H21       1.0  0.54957  0.28181  0.51807  1.0000
  H   H22       1.0  0.71818  0.45042  0.98193  1.0000
  H   H23       1.0  0.45043  0.71820  0.48193  1.0000
  H   H24       1.0  0.28182  0.54958  0.01806  1.0000
  C   C1        1.0  0.90912  0.99432  0.91470  1.0000
  C   C2        1.0  0.00568  0.09088  0.58530  1.0000
  C   C3        1.0  0.09088  0.00567  0.08530  1.0000
  C   C4        1.0  0.99433  0.90912  0.41470  1.0000
  C   C5        1.0  0.94777  0.86533  0.97473  1.0000
  C   C6        1.0  0.13466  0.05223  0.52527  1.0000
  C   C7        1.0  0.05222  0.13466  0.02527  1.0000
  C   C8        1.0  0.86535  0.94777  0.47473  1.0000
  C   C9        1.0  0.96423  0.13721  0.94072  1.0000
  C   C10       1.0  0.86279  0.03577  0.55928  1.0000
  C   C11       1.0  0.03577  0.86278  0.05928  1.0000
  C   C12       1.0  0.13722  0.96423  0.44072  1.0000
  C   C13       1.0  0.46161  0.65016  0.23602  1.0000
  C   C14       1.0  0.34984  0.53839  0.26399  1.0000
  C   C15       1.0  0.53839  0.34984  0.76398  1.0000
  C   C16       1.0  0.65016  0.46161  0.73601  1.0000
  C   C17       1.0  0.60887  0.63430  0.24917  1.0000
  C   C18       1.0  0.36570  0.39113  0.25083  1.0000
  C   C19       1.0  0.39113  0.36570  0.75083  1.0000
  C   C20       1.0  0.63430  0.60887  0.74917  1.0000
  C   C21       1.0  0.69903  0.75141  0.21220  1.0000
  C   C22       1.0  0.24859  0.30097  0.28780  1.0000
  C   C23       1.0  0.30098  0.24859  0.78780  1.0000
  C   C24       1.0  0.75141  0.69903  0.71220  1.0000
  C   C25       1.0  0.64034  0.88257  0.16925  1.0000
  C   C26       1.0  0.11743  0.35965  0.33075  1.0000
  C   C27       1.0  0.35966  0.11743  0.83075  1.0000
  C   C28       1.0  0.88257  0.64035  0.66925  1.0000
  C   C29       1.0  0.49188  0.89436  0.16659  1.0000
  C   C30       1.0  0.10563  0.50812  0.33341  1.0000
  C   C31       1.0  0.50813  0.10563  0.83341  1.0000
  C   C32       1.0  0.89437  0.49188  0.66659  1.0000
  C   C33       1.0  0.67510  0.50341  0.30779  1.0000
  C   C34       1.0  0.49659  0.32490  0.19221  1.0000
  C   C35       1.0  0.32490  0.49659  0.69221  1.0000
  C   C36       1.0  0.50341  0.67510  0.80778  1.0000
  C   C37       1.0  0.63671  0.31312  0.45314  1.0000
  C   C38       1.0  0.68687  0.36329  0.04686  1.0000
  C   C39       1.0  0.36329  0.68688  0.54686  1.0000
  C   C40       1.0  0.31313  0.63671  0.95314  1.0000
  N   N1        1.0  0.40626  0.78070  0.19827  1.0000
  N   N2        1.0  0.21930  0.59373  0.30174  1.0000
  N   N3        1.0  0.59374  0.21930  0.80173  1.0000
  N   N4        1.0  0.78070  0.40627  0.69827  1.0000
  Cl  Cl1       1.0  0.88795  0.70262  0.94851  1.0000
  Cl  Cl2       1.0  0.29738  0.11205  0.55149  1.0000
  Cl  Cl3       1.0  0.11204  0.29737  0.05149  1.0000
  Cl  Cl4       1.0  0.70263  0.88795  0.44851  1.0000
  O   O1        1.0  0.82783  0.00190  0.83928  1.0000
  O   O2        1.0  0.99810  0.17217  0.66072  1.0000
  O   O3        1.0  0.17216  0.99809  0.16072  1.0000
  O   O4        1.0  0.00191  0.82783  0.33929  1.0000
  O   O5        1.0  0.92713  0.25100  0.88492  1.0000
  O   O6        1.0  0.74901  0.07287  0.61508  1.0000
  O   O7        1.0  0.07286  0.74900  0.11508  1.0000
  O   O8        1.0  0.25100  0.92714  0.38492  1.0000
  O   O9        1.0  0.80002  0.46153  0.28525  1.0000
  O   O10       1.0  0.53848  0.19997  0.21475  1.0000
  O   O11       1.0  0.19998  0.53848  0.71474  1.0000
  O   O12       1.0  0.46151  0.80002  0.78524  1.0000
  O   O13       1.0  0.58249  0.44178  0.39126  1.0000
  O   O14       1.0  0.55821  0.41751  0.10874  1.0000
  O   O15       1.0  0.41752  0.55821  0.60874  1.0000
  O   O16       1.0  0.44179  0.58249  0.89126  1.0000
