data_image0
_chemical_formula_structural       Ho4H24C24O36
_chemical_formula_sum              "Ho4 H24 C24 O36"
_cell_length_a       6.52917
_cell_length_b       10.2013
_cell_length_c       13.3707
_cell_angle_alpha    90
_cell_angle_beta     89.9993
_cell_angle_gamma    90

_space_group_name_H-M_alt    "P 1"
_space_group_IT_number       1

loop_
  _space_group_symop_operation_xyz
  'x, y, z'

loop_
  _atom_site_type_symbol
  _atom_site_label
  _atom_site_symmetry_multiplicity
  _atom_site_fract_x
  _atom_site_fract_y
  _atom_site_fract_z
  _atom_site_occupancy
  Ho  Ho1       1.0  0.12917  1.00000  0.19945  1.0000
  Ho  Ho2       1.0  0.87083  0.00000  0.80055  1.0000
  Ho  Ho3       1.0  0.62918  0.50000  0.30055  1.0000
  Ho  Ho4       1.0  0.37082  0.50000  0.69945  1.0000
  H   H1        1.0  0.97517  0.18816  0.34899  1.0000
  H   H2        1.0  0.02483  0.18816  0.65101  1.0000
  H   H3        1.0  0.47517  0.31184  0.15102  1.0000
  H   H4        1.0  0.52482  0.31184  0.84898  1.0000
  H   H5        1.0  0.02483  0.81184  0.65101  1.0000
  H   H6        1.0  0.97517  0.81184  0.34899  1.0000
  H   H7        1.0  0.52482  0.68816  0.84899  1.0000
  H   H8        1.0  0.47517  0.68816  0.15101  1.0000
  H   H9        1.0  0.21175  0.22464  0.34571  1.0000
  H   H10       1.0  0.78825  0.22464  0.65429  1.0000
  H   H11       1.0  0.71175  0.27535  0.15429  1.0000
  H   H12       1.0  0.28825  0.27536  0.84571  1.0000
  H   H13       1.0  0.78826  0.77536  0.65429  1.0000
  H   H14       1.0  0.21175  0.77536  0.34571  1.0000
  H   H15       1.0  0.28825  0.72464  0.84571  1.0000
  H   H16       1.0  0.71175  0.72464  0.15429  1.0000
  H   H17       1.0  0.22671  0.07588  0.98588  1.0000
  H   H18       1.0  0.77329  0.07588  0.01412  1.0000
  H   H19       1.0  0.72671  0.42412  0.51412  1.0000
  H   H20       1.0  0.27329  0.42412  0.48588  1.0000
  H   H21       1.0  0.77329  0.92411  0.01412  1.0000
  H   H22       1.0  0.22671  0.92411  0.98588  1.0000
  H   H23       1.0  0.27329  0.57588  0.48588  1.0000
  H   H24       1.0  0.72671  0.57589  0.51412  1.0000
  C   C1        1.0  0.62143  1.00000  0.29049  1.0000
  C   C2        1.0  0.37857  0.00000  0.70951  1.0000
  C   C3        1.0  0.12144  0.50000  0.20951  1.0000
  C   C4        1.0  0.87856  0.50000  0.79049  1.0000
  C   C5        1.0  0.57320  0.00000  0.40110  1.0000
  C   C6        1.0  0.42680  0.00000  0.59891  1.0000
  C   C7        1.0  0.07321  0.50000  0.09890  1.0000
  C   C8        1.0  0.92678  0.50000  0.90110  1.0000
  C   C9        1.0  0.53743  0.11857  0.45083  1.0000
  C   C10       1.0  0.46257  0.11857  0.54917  1.0000
  C   C11       1.0  0.03744  0.38143  0.04917  1.0000
  C   C12       1.0  0.96255  0.38143  0.95083  1.0000
  C   C13       1.0  0.46257  0.88143  0.54917  1.0000
  C   C14       1.0  0.53743  0.88143  0.45082  1.0000
  C   C15       1.0  0.96256  0.61857  0.95083  1.0000
  C   C16       1.0  0.03744  0.61857  0.04917  1.0000
  C   C17       1.0  0.57376  0.24597  0.39823  1.0000
  C   C18       1.0  0.42624  0.24597  0.60177  1.0000
  C   C19       1.0  0.07376  0.25403  0.10177  1.0000
  C   C20       1.0  0.92624  0.25403  0.89823  1.0000
  C   C21       1.0  0.42624  0.75403  0.60177  1.0000
  C   C22       1.0  0.57376  0.75403  0.39823  1.0000
  C   C23       1.0  0.92624  0.74597  0.89823  1.0000
  C   C24       1.0  0.07376  0.74597  0.10177  1.0000
  O   O1        1.0  0.24975  1.00000  0.02965  1.0000
  O   O2        1.0  0.75025  1.00000  0.97035  1.0000
  O   O3        1.0  0.74975  0.50000  0.47035  1.0000
  O   O4        1.0  0.25024  0.50000  0.52965  1.0000
  O   O5        1.0  0.80433  1.00000  0.26254  1.0000
  O   O6        1.0  0.19567  1.00000  0.73746  1.0000
  O   O7        1.0  0.30435  0.50000  0.23745  1.0000
  O   O8        1.0  0.69565  0.50000  0.76255  1.0000
  O   O9        1.0  0.11272  0.15442  0.33025  1.0000
  O   O10       1.0  0.88727  0.15442  0.66974  1.0000
  O   O11       1.0  0.61273  0.34558  0.16975  1.0000
  O   O12       1.0  0.38727  0.34558  0.83025  1.0000
  O   O13       1.0  0.88728  0.84558  0.66974  1.0000
  O   O14       1.0  0.11273  0.84558  0.33025  1.0000
  O   O15       1.0  0.38727  0.65442  0.83025  1.0000
  O   O16       1.0  0.61273  0.65443  0.16975  1.0000
  O   O17       1.0  0.42395  0.32704  0.38889  1.0000
  O   O18       1.0  0.57605  0.32704  0.61111  1.0000
  O   O19       1.0  0.92396  0.17296  0.11111  1.0000
  O   O20       1.0  0.07604  0.17296  0.88889  1.0000
  O   O21       1.0  0.57605  0.67296  0.61111  1.0000
  O   O22       1.0  0.42396  0.67296  0.38889  1.0000
  O   O23       1.0  0.07604  0.82704  0.88889  1.0000
  O   O24       1.0  0.92396  0.82704  0.11112  1.0000
  O   O25       1.0  0.74867  0.27348  0.36350  1.0000
  O   O26       1.0  0.25133  0.27349  0.63650  1.0000
  O   O27       1.0  0.24867  0.22652  0.13651  1.0000
  O   O28       1.0  0.75133  0.22652  0.86349  1.0000
  O   O29       1.0  0.25133  0.72651  0.63650  1.0000
  O   O30       1.0  0.74868  0.72652  0.36349  1.0000
  O   O31       1.0  0.75133  0.77348  0.86349  1.0000
  O   O32       1.0  0.24867  0.77348  0.13651  1.0000
  O   O33       1.0  0.46730  1.00000  0.23254  1.0000
  O   O34       1.0  0.53270  0.00000  0.76746  1.0000
  O   O35       1.0  0.96732  0.50000  0.26747  1.0000
  O   O36       1.0  0.03269  0.50000  0.73254  1.0000
