data_image0
_chemical_formula_structural       Nd4H24C24O36
_chemical_formula_sum              "Nd4 H24 C24 O36"
_cell_length_a       6.68239
_cell_length_b       10.3204
_cell_length_c       13.5798
_cell_angle_alpha    90
_cell_angle_beta     90
_cell_angle_gamma    89.9998

_space_group_name_H-M_alt    "P 1"
_space_group_IT_number       1

loop_
  _space_group_symop_operation_xyz
  'x, y, z'

loop_
  _atom_site_type_symbol
  _atom_site_label
  _atom_site_symmetry_multiplicity
  _atom_site_fract_x
  _atom_site_fract_y
  _atom_site_fract_z
  _atom_site_occupancy
  Nd  Nd1       1.0  0.13405  0.50000  0.20059  1.0000
  Nd  Nd2       1.0  0.86594  0.50000  0.79941  1.0000
  Nd  Nd3       1.0  0.63405  0.00000  0.29940  1.0000
  Nd  Nd4       1.0  0.36594  1.00000  0.70059  1.0000
  H   H1        1.0  0.22186  0.57520  0.98196  1.0000
  H   H2        1.0  0.77814  0.57520  0.01804  1.0000
  H   H3        1.0  0.72186  0.92480  0.51804  1.0000
  H   H4        1.0  0.27814  0.92480  0.48196  1.0000
  H   H5        1.0  0.77814  0.42480  0.01804  1.0000
  H   H6        1.0  0.22186  0.42480  0.98196  1.0000
  H   H7        1.0  0.27814  0.07520  0.48196  1.0000
  H   H8        1.0  0.72186  0.07520  0.51804  1.0000
  H   H9        1.0  0.21067  0.27042  0.35281  1.0000
  H   H10       1.0  0.78933  0.27042  0.64719  1.0000
  H   H11       1.0  0.71067  0.22958  0.14719  1.0000
  H   H12       1.0  0.28933  0.22958  0.85281  1.0000
  H   H13       1.0  0.78933  0.72958  0.64719  1.0000
  H   H14       1.0  0.21067  0.72958  0.35281  1.0000
  H   H15       1.0  0.28933  0.77042  0.85281  1.0000
  H   H16       1.0  0.71067  0.77042  0.14719  1.0000
  H   H17       1.0  0.97820  0.30716  0.35370  1.0000
  H   H18       1.0  0.02179  0.30716  0.64630  1.0000
  H   H19       1.0  0.47820  0.19284  0.14630  1.0000
  H   H20       1.0  0.52180  0.19284  0.85370  1.0000
  H   H21       1.0  0.02179  0.69284  0.64630  1.0000
  H   H22       1.0  0.97821  0.69284  0.35370  1.0000
  H   H23       1.0  0.52180  0.80716  0.85370  1.0000
  H   H24       1.0  0.47820  0.80716  0.14630  1.0000
  C   C1        1.0  0.03802  0.11727  0.04816  1.0000
  C   C2        1.0  0.96198  0.11727  0.95184  1.0000
  C   C3        1.0  0.53801  0.38273  0.45184  1.0000
  C   C4        1.0  0.46198  0.38273  0.54816  1.0000
  C   C5        1.0  0.96199  0.88272  0.95184  1.0000
  C   C6        1.0  0.03802  0.88273  0.04816  1.0000
  C   C7        1.0  0.46198  0.61727  0.54816  1.0000
  C   C8        1.0  0.53802  0.61728  0.45184  1.0000
  C   C9        1.0  0.07480  0.00000  0.09681  1.0000
  C   C10       1.0  0.92520  0.00000  0.90319  1.0000
  C   C11       1.0  0.57480  0.50000  0.40319  1.0000
  C   C12       1.0  0.42520  0.50000  0.59681  1.0000
  C   C13       1.0  0.07320  0.24347  0.09993  1.0000
  C   C14       1.0  0.92680  0.24347  0.90007  1.0000
  C   C15       1.0  0.57319  0.25653  0.40007  1.0000
  C   C16       1.0  0.42680  0.25653  0.59993  1.0000
  C   C17       1.0  0.92680  0.75653  0.90007  1.0000
  C   C18       1.0  0.07320  0.75653  0.09993  1.0000
  C   C19       1.0  0.42680  0.74347  0.59993  1.0000
  C   C20       1.0  0.57320  0.74347  0.40007  1.0000
  C   C21       1.0  0.12752  1.00000  0.20517  1.0000
  C   C22       1.0  0.87248  0.00000  0.79484  1.0000
  C   C23       1.0  0.62753  0.50000  0.29484  1.0000
  C   C24       1.0  0.37248  0.50000  0.70517  1.0000
  O   O1        1.0  0.24884  0.50000  0.02420  1.0000
  O   O2        1.0  0.75116  0.50000  0.97580  1.0000
  O   O3        1.0  0.74884  0.00000  0.47580  1.0000
  O   O4        1.0  0.25116  0.00000  0.52420  1.0000
  O   O5        1.0  0.11315  0.33841  0.33491  1.0000
  O   O6        1.0  0.88685  0.33841  0.66508  1.0000
  O   O7        1.0  0.61315  0.16159  0.16508  1.0000
  O   O8        1.0  0.38685  0.16159  0.83492  1.0000
  O   O9        1.0  0.88685  0.66159  0.66508  1.0000
  O   O10       1.0  0.11316  0.66159  0.33492  1.0000
  O   O11       1.0  0.38685  0.83841  0.83492  1.0000
  O   O12       1.0  0.61315  0.83841  0.16508  1.0000
  O   O13       1.0  0.24469  0.27080  0.13358  1.0000
  O   O14       1.0  0.75531  0.27080  0.86642  1.0000
  O   O15       1.0  0.74469  0.22920  0.36642  1.0000
  O   O16       1.0  0.25531  0.22920  0.63358  1.0000
  O   O17       1.0  0.75532  0.72920  0.86642  1.0000
  O   O18       1.0  0.24469  0.72920  0.13358  1.0000
  O   O19       1.0  0.25531  0.77080  0.63358  1.0000
  O   O20       1.0  0.74469  0.77080  0.36642  1.0000
  O   O21       1.0  0.92553  0.32270  0.10940  1.0000
  O   O22       1.0  0.07446  0.32270  0.89060  1.0000
  O   O23       1.0  0.42553  0.17730  0.39060  1.0000
  O   O24       1.0  0.57446  0.17730  0.60940  1.0000
  O   O25       1.0  0.07447  0.67730  0.89060  1.0000
  O   O26       1.0  0.92554  0.67730  0.10940  1.0000
  O   O27       1.0  0.57446  0.82270  0.60940  1.0000
  O   O28       1.0  0.42553  0.82270  0.39060  1.0000
  O   O29       1.0  0.30765  1.00000  0.23043  1.0000
  O   O30       1.0  0.69235  1.00000  0.76957  1.0000
  O   O31       1.0  0.80765  0.50000  0.26957  1.0000
  O   O32       1.0  0.19235  0.50000  0.73043  1.0000
  O   O33       1.0  0.97992  1.00000  0.26414  1.0000
  O   O34       1.0  0.02008  0.00000  0.73585  1.0000
  O   O35       1.0  0.47992  0.50000  0.23586  1.0000
  O   O36       1.0  0.52008  0.50000  0.76414  1.0000
