data_image0
_chemical_formula_structural       Tb2H32C42I6O16
_chemical_formula_sum              "Tb2 H32 C42 I6 O16"
_cell_length_a       9.52984
_cell_length_b       9.94605
_cell_length_c       14.0507
_cell_angle_alpha    74.5745
_cell_angle_beta     85.4768
_cell_angle_gamma    74.4677

_space_group_name_H-M_alt    "P 1"
_space_group_IT_number       1

loop_
  _space_group_symop_operation_xyz
  'x, y, z'

loop_
  _atom_site_type_symbol
  _atom_site_label
  _atom_site_symmetry_multiplicity
  _atom_site_fract_x
  _atom_site_fract_y
  _atom_site_fract_z
  _atom_site_occupancy
  Tb  Tb1       1.0  0.24144  0.01852  0.51622  1.0000
  Tb  Tb2       1.0  0.75857  0.98148  0.48378  1.0000
  H   H1        1.0  0.74192  0.67584  0.75453  1.0000
  H   H2        1.0  0.25807  0.32416  0.24547  1.0000
  H   H3        1.0  0.80064  0.55992  0.93209  1.0000
  H   H4        1.0  0.19936  0.44008  0.06791  1.0000
  H   H5        1.0  0.65088  0.66692  0.06149  1.0000
  H   H6        1.0  0.34912  0.33308  0.93852  1.0000
  H   H7        1.0  0.44838  0.88591  0.01216  1.0000
  H   H8        1.0  0.55163  0.11408  0.98785  1.0000
  H   H9        1.0  0.95779  0.58293  0.56925  1.0000
  H   H10       1.0  0.04222  0.41707  0.43075  1.0000
  H   H11       1.0  0.91790  0.35004  0.67264  1.0000
  H   H12       1.0  0.08209  0.64997  0.32735  1.0000
  H   H13       1.0  0.97558  0.27509  0.85232  1.0000
  H   H14       1.0  0.02440  0.72491  0.14767  1.0000
  H   H15       1.0  0.07687  0.42854  0.92586  1.0000
  H   H16       1.0  0.92313  0.57146  0.07414  1.0000
  H   H17       1.0  0.33876  0.67735  0.09989  1.0000
  H   H18       1.0  0.66124  0.32265  0.90011  1.0000
  H   H19       1.0  0.52118  0.44804  0.16619  1.0000
  H   H20       1.0  0.47882  0.55197  0.83381  1.0000
  H   H21       1.0  0.62152  0.39256  0.33520  1.0000
  H   H22       1.0  0.37849  0.60744  0.66480  1.0000
  H   H23       1.0  0.53342  0.57165  0.43589  1.0000
  H   H24       1.0  0.46657  0.42834  0.56411  1.0000
  H   H25       1.0  0.25061  0.24520  0.61064  1.0000
  H   H26       1.0  0.74939  0.75480  0.38936  1.0000
  H   H27       1.0  0.38709  0.23239  0.53990  1.0000
  H   H28       1.0  0.61290  0.76761  0.46009  1.0000
  H   H29       1.0  0.09703  0.03623  0.71028  1.0000
  H   H30       1.0  0.90297  0.96376  0.28972  1.0000
  H   H31       1.0  0.96727  0.09753  0.63376  1.0000
  H   H32       1.0  0.03273  0.90246  0.36624  1.0000
  C   C1        1.0  0.55853  0.83980  0.78259  1.0000
  C   C2        1.0  0.44147  0.16022  0.21741  1.0000
  C   C3        1.0  0.67758  0.71949  0.81214  1.0000
  C   C4        1.0  0.32242  0.28052  0.18786  1.0000
  C   C5        1.0  0.71044  0.65579  0.91132  1.0000
  C   C6        1.0  0.28956  0.34422  0.08868  1.0000
  C   C7        1.0  0.62676  0.71461  0.98338  1.0000
  C   C8        1.0  0.37324  0.28539  0.01662  1.0000
  C   C9        1.0  0.51125  0.83733  0.95600  1.0000
  C   C10       1.0  0.48875  0.16267  0.04401  1.0000
  C   C11       1.0  0.47651  0.89861  0.85639  1.0000
  C   C12       1.0  0.52349  0.10140  0.14362  1.0000
  C   C13       1.0  0.52713  0.89313  0.67420  1.0000
  C   C14       1.0  0.47287  0.10688  0.32580  1.0000
  C   C15       1.0  0.04870  0.63292  0.68666  1.0000
  C   C16       1.0  0.95131  0.36707  0.31333  1.0000
  C   C17       1.0  0.98838  0.54536  0.64687  1.0000
  C   C18       1.0  0.01163  0.45464  0.35312  1.0000
  C   C19       1.0  0.96412  0.41650  0.70497  1.0000
  C   C20       1.0  0.03588  0.58350  0.29503  1.0000
  C   C21       1.0  0.99741  0.37415  0.80539  1.0000
  C   C22       1.0  0.00258  0.62585  0.19460  1.0000
  C   C23       1.0  0.05485  0.46057  0.84697  1.0000
  C   C24       1.0  0.94515  0.53942  0.15302  1.0000
  C   C25       1.0  0.08075  0.58910  0.78782  1.0000
  C   C26       1.0  0.91925  0.41089  0.21218  1.0000
  C   C27       1.0  0.07172  0.76857  0.61654  1.0000
  C   C28       1.0  0.92829  0.23143  0.38345  1.0000
  C   C29       1.0  0.38417  0.72304  0.32725  1.0000
  C   C30       1.0  0.61583  0.27696  0.67276  1.0000
  C   C31       1.0  0.33080  0.75305  0.23105  1.0000
  C   C32       1.0  0.66920  0.24695  0.76895  1.0000
  C   C33       1.0  0.38028  0.65348  0.17419  1.0000
  C   C34       1.0  0.61973  0.34651  0.82581  1.0000
  C   C35       1.0  0.48388  0.52436  0.21159  1.0000
  C   C36       1.0  0.51613  0.47564  0.78841  1.0000
  C   C37       1.0  0.54023  0.49345  0.30593  1.0000
  C   C38       1.0  0.45977  0.50655  0.69407  1.0000
  C   C39       1.0  0.49064  0.59299  0.36216  1.0000
  C   C40       1.0  0.50935  0.40701  0.63785  1.0000
  C   C41       1.0  0.33486  0.81703  0.39679  1.0000
  C   C42       1.0  0.66514  0.18297  0.60321  1.0000
  I   I1        1.0  0.30422  0.08991  0.82779  1.0000
  I   I2        1.0  0.69577  0.91010  0.17221  1.0000
  I   I3        1.0  0.18577  0.95036  0.15923  1.0000
  I   I4        1.0  0.81423  0.04963  0.84077  1.0000
  I   I5        1.0  0.15413  0.71885  0.86046  1.0000
  I   I6        1.0  0.84587  0.28114  0.13954  1.0000
  O   O1        1.0  0.39593  0.94929  0.64758  1.0000
  O   O2        1.0  0.60407  0.05072  0.35242  1.0000
  O   O3        1.0  0.19151  0.80034  0.61748  1.0000
  O   O4        1.0  0.80850  0.19965  0.38251  1.0000
  O   O5        1.0  0.42284  0.81575  0.46143  1.0000
  O   O6        1.0  0.57717  0.18425  0.53857  1.0000
  O   O7        1.0  0.20475  0.89772  0.39351  1.0000
  O   O8        1.0  0.79525  0.10228  0.60649  1.0000
  O   O9        1.0  0.63454  0.87532  0.61526  1.0000
  O   O10       1.0  0.36546  0.12469  0.38475  1.0000
  O   O11       1.0  0.96905  0.84242  0.55710  1.0000
  O   O12       1.0  0.03095  0.15758  0.44290  1.0000
  O   O13       1.0  0.27969  0.24273  0.54281  1.0000
  O   O14       1.0  0.72031  0.75728  0.45719  1.0000
  O   O15       1.0  0.07214  0.09103  0.64236  1.0000
  O   O16       1.0  0.92786  0.90896  0.35764  1.0000
