data_image0
_chemical_formula_structural       Ag2H10C18N8O2
_chemical_formula_sum              "Ag2 H10 C18 N8 O2"
_cell_length_a       6.27528
_cell_length_b       8.37999
_cell_length_c       10.213
_cell_angle_alpha    86.3827
_cell_angle_beta     72.1144
_cell_angle_gamma    78.1604

_space_group_name_H-M_alt    "P 1"
_space_group_IT_number       1

loop_
  _space_group_symop_operation_xyz
  'x, y, z'

loop_
  _atom_site_type_symbol
  _atom_site_label
  _atom_site_symmetry_multiplicity
  _atom_site_fract_x
  _atom_site_fract_y
  _atom_site_fract_z
  _atom_site_occupancy
  Ag  Ag1       1.0  0.78356  0.16794  0.08383  1.0000
  Ag  Ag2       1.0  0.86723  0.66760  0.91656  1.0000
  H   H1        1.0  0.19533  0.90567  0.43780  1.0000
  H   H2        1.0  0.63338  0.40578  0.56240  1.0000
  H   H3        1.0  0.49051  0.82176  0.37055  1.0000
  H   H4        1.0  0.86149  0.32128  0.62945  1.0000
  H   H5        1.0  0.53676  0.79581  0.60841  1.0000
  H   H6        1.0  0.14500  0.29587  0.39165  1.0000
  H   H7        1.0  0.24274  0.86650  0.69077  1.0000
  H   H8        1.0  0.93345  0.36672  0.30918  1.0000
  H   H9        1.0  0.37752  0.66892  0.73339  1.0000
  H   H10       1.0  0.11077  0.16907  0.26661  1.0000
  C   C1        1.0  0.29341  0.80829  0.16647  1.0000
  C   C2        1.0  0.46028  0.30777  0.83358  1.0000
  C   C3        1.0  0.26866  0.70430  0.29795  1.0000
  C   C4        1.0  0.56684  0.20401  0.70196  1.0000
  C   C5        1.0  0.18816  0.77464  0.07359  1.0000
  C   C6        1.0  0.26217  0.27418  0.92653  1.0000
  C   C7        1.0  0.42897  0.92429  0.14047  1.0000
  C   C8        1.0  0.56969  0.42382  0.85967  1.0000
  C   C9        1.0  0.42514  0.54379  0.26363  1.0000
  C   C10       1.0  0.68901  0.04339  0.73607  1.0000
  C   C11       1.0  0.03311  0.67539  0.34867  1.0000
  C   C12       1.0  0.38198  0.17520  0.65122  1.0000
  C   C13       1.0  0.32024  0.79078  0.41089  1.0000
  C   C14       1.0  0.73127  0.29068  0.58916  1.0000
  C   C15       1.0  0.31249  0.68667  0.53845  1.0000
  C   C16       1.0  0.85070  0.18680  0.46145  1.0000
  C   C17       1.0  0.37206  0.75688  0.65027  1.0000
  C   C18       1.0  0.02211  0.25706  0.34971  1.0000
  N   N1        1.0  0.09115  0.73695  0.00239  1.0000
  N   N2        1.0  0.09385  0.23675  0.99778  1.0000
  N   N3        1.0  0.54213  0.02385  0.12355  1.0000
  N   N4        1.0  0.66581  0.52349  0.87658  1.0000
  N   N5        1.0  0.55328  0.42224  0.22584  1.0000
  N   N6        1.0  0.77911  0.92162  0.77371  1.0000
  N   N7        1.0  0.84595  0.65510  0.38223  1.0000
  N   N8        1.0  0.22808  0.15519  0.61781  1.0000
  O   O1        1.0  0.25971  0.55179  0.54639  1.0000
  O   O2        1.0  0.80565  0.05204  0.45338  1.0000
