data_image0
_chemical_formula_structural       Cu4H20C36N16O4
_chemical_formula_sum              "Cu4 H20 C36 N16 O4"
_cell_length_a       7.15229
_cell_length_b       12.518
_cell_length_c       15.5723
_cell_angle_alpha    90.0012
_cell_angle_beta     89.9996
_cell_angle_gamma    90.9748

_space_group_name_H-M_alt    "P 1"
_space_group_IT_number       1

loop_
  _space_group_symop_operation_xyz
  'x, y, z'

loop_
  _atom_site_type_symbol
  _atom_site_label
  _atom_site_symmetry_multiplicity
  _atom_site_fract_x
  _atom_site_fract_y
  _atom_site_fract_z
  _atom_site_occupancy
  Cu  Cu1       1.0  0.73631  0.35370  0.87741  1.0000
  Cu  Cu2       1.0  0.26370  0.14630  0.37741  1.0000
  Cu  Cu3       1.0  0.26370  0.64630  0.12258  1.0000
  Cu  Cu4       1.0  0.73630  0.85369  0.62259  1.0000
  H   H1        1.0  0.91566  0.40939  0.58412  1.0000
  H   H2        1.0  0.08436  0.09060  0.08412  1.0000
  H   H3        1.0  0.08435  0.59061  0.41588  1.0000
  H   H4        1.0  0.91565  0.90940  0.91587  1.0000
  H   H5        1.0  0.80718  0.43703  0.48406  1.0000
  H   H6        1.0  0.19283  0.06297  0.98407  1.0000
  H   H7        1.0  0.19281  0.56298  0.51594  1.0000
  H   H8        1.0  0.80718  0.93703  0.01593  1.0000
  H   H9        1.0  0.74022  0.60253  0.60286  1.0000
  H   H10       1.0  0.25979  0.89747  0.10287  1.0000
  H   H11       1.0  0.25976  0.39747  0.39714  1.0000
  H   H12       1.0  0.74021  0.10253  0.89713  1.0000
  H   H13       1.0  0.74541  0.52194  0.69647  1.0000
  H   H14       1.0  0.25461  0.97806  0.19647  1.0000
  H   H15       1.0  0.25457  0.47807  0.30353  1.0000
  H   H16       1.0  0.74538  0.02193  0.80354  1.0000
  H   H17       1.0  0.52990  0.58014  0.66321  1.0000
  H   H18       1.0  0.47010  0.91986  0.16321  1.0000
  H   H19       1.0  0.47007  0.41985  0.33679  1.0000
  H   H20       1.0  0.52989  0.08014  0.83679  1.0000
  C   C1        1.0  0.75777  0.21087  0.61438  1.0000
  C   C2        1.0  0.24224  0.28913  0.11439  1.0000
  C   C3        1.0  0.24223  0.78913  0.38561  1.0000
  C   C4        1.0  0.75777  0.71088  0.88561  1.0000
  C   C5        1.0  0.76566  0.27388  0.53018  1.0000
  C   C6        1.0  0.23437  0.22614  0.03018  1.0000
  C   C7        1.0  0.23434  0.72613  0.46981  1.0000
  C   C8        1.0  0.76567  0.77388  0.96981  1.0000
  C   C9        1.0  0.75400  0.26235  0.69288  1.0000
  C   C10       1.0  0.24599  0.23763  0.19290  1.0000
  C   C11       1.0  0.24600  0.73763  0.30710  1.0000
  C   C12       1.0  0.75400  0.76236  0.80710  1.0000
  C   C13       1.0  0.74850  0.10011  0.61289  1.0000
  C   C14       1.0  0.25147  0.39989  0.11289  1.0000
  C   C15       1.0  0.25150  0.89989  0.38711  1.0000
  C   C16       1.0  0.74853  0.60011  0.88710  1.0000
  C   C17       1.0  0.59954  0.24665  0.47732  1.0000
  C   C18       1.0  0.40048  0.25335  0.97733  1.0000
  C   C19       1.0  0.40047  0.75336  0.52268  1.0000
  C   C20       1.0  0.59953  0.74664  0.02267  1.0000
  C   C21       1.0  0.92812  0.23893  0.47988  1.0000
  C   C22       1.0  0.07190  0.26106  0.97988  1.0000
  C   C23       1.0  0.07189  0.76108  0.52011  1.0000
  C   C24       1.0  0.92811  0.73894  0.02012  1.0000
  C   C25       1.0  0.78834  0.39554  0.54601  1.0000
  C   C26       1.0  0.21165  0.10445  0.04601  1.0000
  C   C27       1.0  0.21164  0.60445  0.45399  1.0000
  C   C28       1.0  0.78836  0.89555  0.95399  1.0000
  C   C29       1.0  0.61831  0.44601  0.58835  1.0000
  C   C30       1.0  0.38169  0.05398  0.08834  1.0000
  C   C31       1.0  0.38169  0.55398  0.41167  1.0000
  C   C32       1.0  0.61830  0.94602  0.91167  1.0000
  C   C33       1.0  0.65913  0.54385  0.64085  1.0000
  C   C34       1.0  0.34088  0.95615  0.14085  1.0000
  C   C35       1.0  0.34087  0.45616  0.35916  1.0000
  C   C36       1.0  0.65910  0.04384  0.85916  1.0000
  N   N1        1.0  0.75065  0.30365  0.76080  1.0000
  N   N2        1.0  0.24932  0.19635  0.26081  1.0000
  N   N3        1.0  0.24936  0.69635  0.23919  1.0000
  N   N4        1.0  0.75065  0.80365  0.73918  1.0000
  N   N5        1.0  0.74116  0.00627  0.61278  1.0000
  N   N6        1.0  0.25883  0.49374  0.11278  1.0000
  N   N7        1.0  0.25883  0.99373  0.38721  1.0000
  N   N8        1.0  0.74117  0.50628  0.88721  1.0000
  N   N9        1.0  0.48221  0.20877  0.43464  1.0000
  N   N10       1.0  0.51781  0.29124  0.93466  1.0000
  N   N11       1.0  0.51781  0.79124  0.56534  1.0000
  N   N12       1.0  0.48220  0.70876  0.06534  1.0000
  N   N13       1.0  0.05532  0.20712  0.44149  1.0000
  N   N14       1.0  0.94471  0.29288  0.94148  1.0000
  N   N15       1.0  0.94470  0.79289  0.55851  1.0000
  N   N16       1.0  0.05532  0.70712  0.05851  1.0000
  O   O1        1.0  0.46076  0.40900  0.57579  1.0000
  O   O2        1.0  0.53925  0.09099  0.07579  1.0000
  O   O3        1.0  0.53923  0.59095  0.42425  1.0000
  O   O4        1.0  0.46075  0.90902  0.92423  1.0000
