data_image0
_chemical_formula_structural       Mn3H16C8N6O16
_chemical_formula_sum              "Mn3 H16 C8 N6 O16"
_cell_length_a       7.12464
_cell_length_b       7.49114
_cell_length_c       9.62727
_cell_angle_alpha    80.0293
_cell_angle_beta     87.8771
_cell_angle_gamma    75.8071

_space_group_name_H-M_alt    "P 1"
_space_group_IT_number       1

loop_
  _space_group_symop_operation_xyz
  'x, y, z'

loop_
  _atom_site_type_symbol
  _atom_site_label
  _atom_site_symmetry_multiplicity
  _atom_site_fract_x
  _atom_site_fract_y
  _atom_site_fract_z
  _atom_site_occupancy
  Mn  Mn1       1.0  0.99981  0.00018  0.49977  1.0000
  Mn  Mn2       1.0  0.27634  0.64243  0.90573  1.0000
  Mn  Mn3       1.0  0.72311  0.35808  0.09432  1.0000
  H   H1        1.0  0.02594  0.66842  0.39639  1.0000
  H   H2        1.0  0.97299  0.33114  0.60400  1.0000
  H   H3        1.0  0.81434  0.71593  0.46907  1.0000
  H   H4        1.0  0.18476  0.28487  0.53114  1.0000
  H   H5        1.0  0.30688  0.29727  0.80763  1.0000
  H   H6        1.0  0.69338  0.70210  0.19197  1.0000
  H   H7        1.0  0.08065  0.40936  0.80598  1.0000
  H   H8        1.0  0.91959  0.58986  0.19304  1.0000
  H   H9        1.0  0.38338  0.88913  0.05522  1.0000
  H   H10       1.0  0.61954  0.11050  0.94570  1.0000
  H   H11       1.0  0.40477  0.96543  0.89102  1.0000
  H   H12       1.0  0.59829  0.03357  0.10966  1.0000
  H   H13       1.0  0.89795  0.84515  0.83540  1.0000
  H   H14       1.0  0.10183  0.15517  0.16358  1.0000
  H   H15       1.0  0.88988  0.71847  0.98933  1.0000
  H   H16       1.0  0.10979  0.28285  0.01005  1.0000
  C   C1        1.0  0.36929  0.90005  0.32169  1.0000
  C   C2        1.0  0.63089  0.10031  0.67836  1.0000
  C   C3        1.0  0.42185  0.80143  0.46774  1.0000
  C   C4        1.0  0.57818  0.19960  0.53250  1.0000
  C   C5        1.0  0.55530  0.63786  0.65462  1.0000
  C   C6        1.0  0.44405  0.36270  0.34565  1.0000
  C   C7        1.0  0.69176  0.51775  0.76529  1.0000
  C   C8        1.0  0.30671  0.48147  0.23499  1.0000
  N   N1        1.0  0.28691  0.82232  0.57004  1.0000
  N   N2        1.0  0.71296  0.17897  0.42999  1.0000
  N   N3        1.0  0.37155  0.71755  0.68912  1.0000
  N   N4        1.0  0.62787  0.28349  0.31097  1.0000
  N   N5        1.0  0.59217  0.68668  0.51672  1.0000
  N   N6        1.0  0.40756  0.31383  0.48364  1.0000
  O   O1        1.0  0.20028  0.00840  0.30667  1.0000
  O   O2        1.0  0.79972  0.99159  0.69274  1.0000
  O   O3        1.0  0.48968  0.87148  0.22171  1.0000
  O   O4        1.0  0.51103  0.12852  0.77869  1.0000
  O   O5        1.0  0.61820  0.50339  0.88954  1.0000
  O   O6        1.0  0.37962  0.49563  0.11053  1.0000
  O   O7        1.0  0.86170  0.44122  0.73401  1.0000
  O   O8        1.0  0.13655  0.55669  0.26678  1.0000
  O   O9        1.0  0.93889  0.75598  0.45038  1.0000
  O   O10       1.0  0.06050  0.24433  0.54965  1.0000
  O   O11       1.0  0.20756  0.38374  0.85588  1.0000
  O   O12       1.0  0.79245  0.61629  0.14306  1.0000
  O   O13       1.0  0.33405  0.89232  0.95951  1.0000
  O   O14       1.0  0.66989  0.10590  0.04129  1.0000
  O   O15       1.0  0.97288  0.74141  0.90640  1.0000
  O   O16       1.0  0.02677  0.25920  0.09288  1.0000
