data_image0
_chemical_formula_structural       Cd4H20C16N12O24
_chemical_formula_sum              "Cd4 H20 C16 N12 O24"
_cell_length_a       7.458
_cell_length_b       10.1271
_cell_length_c       10.6089
_cell_angle_alpha    90
_cell_angle_beta     94.5937
_cell_angle_gamma    90

_space_group_name_H-M_alt    "P 1"
_space_group_IT_number       1

loop_
  _space_group_symop_operation_xyz
  'x, y, z'

loop_
  _atom_site_type_symbol
  _atom_site_label
  _atom_site_symmetry_multiplicity
  _atom_site_fract_x
  _atom_site_fract_y
  _atom_site_fract_z
  _atom_site_occupancy
  Cd  Cd1       1.0  0.20071  0.91524  0.32349  1.0000
  Cd  Cd2       1.0  0.79929  0.41524  0.17651  1.0000
  Cd  Cd3       1.0  0.79929  0.08476  0.67651  1.0000
  Cd  Cd4       1.0  0.20071  0.58476  0.82349  1.0000
  H   H1        1.0  0.39206  0.18895  0.90758  1.0000
  H   H2        1.0  0.60794  0.68895  0.59242  1.0000
  H   H3        1.0  0.60794  0.81106  0.09242  1.0000
  H   H4        1.0  0.39206  0.31105  0.40758  1.0000
  H   H5        1.0  0.85059  0.01251  0.22645  1.0000
  H   H6        1.0  0.14941  0.51251  0.27356  1.0000
  H   H7        1.0  0.14941  0.98749  0.77356  1.0000
  H   H8        1.0  0.85059  0.48749  0.72644  1.0000
  H   H9        1.0  0.93062  0.12035  0.32734  1.0000
  H   H10       1.0  0.06937  0.62035  0.17266  1.0000
  H   H11       1.0  0.06937  0.87965  0.67266  1.0000
  H   H12       1.0  0.93063  0.37965  0.82734  1.0000
  H   H13       1.0  0.19503  0.02568  0.56981  1.0000
  H   H14       1.0  0.80498  0.52568  0.93019  1.0000
  H   H15       1.0  0.80497  0.97432  0.43019  1.0000
  H   H16       1.0  0.19502  0.47432  0.06981  1.0000
  H   H17       1.0  0.37023  0.08965  0.51760  1.0000
  H   H18       1.0  0.62977  0.58965  0.98240  1.0000
  H   H19       1.0  0.62977  0.91035  0.48240  1.0000
  H   H20       1.0  0.37023  0.41035  0.01760  1.0000
  C   C1        1.0  0.35563  0.12121  0.09898  1.0000
  C   C2        1.0  0.64437  0.62121  0.40102  1.0000
  C   C3        1.0  0.64437  0.87879  0.90101  1.0000
  C   C4        1.0  0.35563  0.37879  0.59898  1.0000
  C   C5        1.0  0.45264  0.22365  0.18075  1.0000
  C   C6        1.0  0.54737  0.72365  0.31926  1.0000
  C   C7        1.0  0.54736  0.77635  0.81925  1.0000
  C   C8        1.0  0.45264  0.27635  0.68075  1.0000
  C   C9        1.0  0.21424  0.94825  0.03136  1.0000
  C   C10       1.0  0.78576  0.44825  0.46864  1.0000
  C   C11       1.0  0.78576  0.05175  0.96864  1.0000
  C   C12       1.0  0.21424  0.55175  0.53136  1.0000
  C   C13       1.0  0.12138  0.81718  0.03445  1.0000
  C   C14       1.0  0.87862  0.31718  0.46555  1.0000
  C   C15       1.0  0.87862  0.18282  0.96554  1.0000
  C   C16       1.0  0.12138  0.68282  0.53444  1.0000
  N   N1        1.0  0.27495  0.01273  0.13859  1.0000
  N   N2        1.0  0.72505  0.51273  0.36141  1.0000
  N   N3        1.0  0.72505  0.98727  0.86141  1.0000
  N   N4        1.0  0.27495  0.48727  0.63859  1.0000
  N   N5        1.0  0.34235  0.12064  0.97129  1.0000
  N   N6        1.0  0.65765  0.62064  0.52871  1.0000
  N   N7        1.0  0.65765  0.87936  0.02871  1.0000
  N   N8        1.0  0.34235  0.37936  0.47129  1.0000
  N   N9        1.0  0.25378  0.01237  0.92683  1.0000
  N   N10       1.0  0.74622  0.51237  0.57317  1.0000
  N   N11       1.0  0.74622  0.98763  0.07316  1.0000
  N   N12       1.0  0.25378  0.48763  0.42683  1.0000
  O   O1        1.0  0.45291  0.20940  0.29795  1.0000
  O   O2        1.0  0.54709  0.70940  0.20205  1.0000
  O   O3        1.0  0.54709  0.79060  0.70205  1.0000
  O   O4        1.0  0.45291  0.29060  0.79794  1.0000
  O   O5        1.0  0.52724  0.31421  0.11887  1.0000
  O   O6        1.0  0.47277  0.81421  0.38113  1.0000
  O   O7        1.0  0.47276  0.68579  0.88113  1.0000
  O   O8        1.0  0.52724  0.18579  0.61887  1.0000
  O   O9        1.0  0.09136  0.77705  0.14496  1.0000
  O   O10       1.0  0.90864  0.27705  0.35504  1.0000
  O   O11       1.0  0.90864  0.22295  0.85504  1.0000
  O   O12       1.0  0.09136  0.72296  0.64496  1.0000
  O   O13       1.0  0.08090  0.75978  0.93093  1.0000
  O   O14       1.0  0.91909  0.25978  0.56907  1.0000
  O   O15       1.0  0.91910  0.24022  0.06908  1.0000
  O   O16       1.0  0.08091  0.74022  0.43093  1.0000
  O   O17       1.0  0.91969  0.02223  0.31072  1.0000
  O   O18       1.0  0.08031  0.52223  0.18929  1.0000
  O   O19       1.0  0.08031  0.97777  0.68929  1.0000
  O   O20       1.0  0.91969  0.47777  0.81071  1.0000
  O   O21       1.0  0.25263  0.05007  0.49088  1.0000
  O   O22       1.0  0.74738  0.55007  0.00911  1.0000
  O   O23       1.0  0.74738  0.94993  0.50912  1.0000
  O   O24       1.0  0.25262  0.44993  0.99088  1.0000
