data_image0
_chemical_formula_structural       Zn4H40C42S2N4O18
_chemical_formula_sum              "Zn4 H40 C42 S2 N4 O18"
_cell_length_a       7.79293
_cell_length_b       11.1456
_cell_length_c       14.5291
_cell_angle_alpha    71.7314
_cell_angle_beta     74.4509
_cell_angle_gamma    69.5443

_space_group_name_H-M_alt    "P 1"
_space_group_IT_number       1

loop_
  _space_group_symop_operation_xyz
  'x, y, z'

loop_
  _atom_site_type_symbol
  _atom_site_label
  _atom_site_symmetry_multiplicity
  _atom_site_fract_x
  _atom_site_fract_y
  _atom_site_fract_z
  _atom_site_occupancy
  Zn  Zn1       1.0  0.66997  0.00170  0.55676  1.0000
  Zn  Zn2       1.0  0.77126  0.50165  0.05691  1.0000
  Zn  Zn3       1.0  0.88102  0.71579  0.62956  1.0000
  Zn  Zn4       1.0  0.77338  0.21583  0.12959  1.0000
  H   H1        1.0  0.54193  0.82010  0.65746  1.0000
  H   H2        1.0  0.98037  0.32007  0.15751  1.0000
  H   H3        1.0  0.14940  0.78136  0.67179  1.0000
  H   H4        1.0  0.39732  0.28144  0.17185  1.0000
  H   H5        1.0  0.94736  0.88487  0.70230  1.0000
  H   H6        1.0  0.46546  0.38494  0.20238  1.0000
  H   H7        1.0  0.22110  0.66213  0.35738  1.0000
  H   H8        1.0  0.75948  0.16241  0.85738  1.0000
  H   H9        1.0  0.45744  0.88080  0.08037  1.0000
  H   H10       1.0  0.58179  0.38088  0.58025  1.0000
  H   H11       1.0  0.06587  0.08583  0.29323  1.0000
  H   H12       1.0  0.55515  0.58614  0.79309  1.0000
  H   H13       1.0  0.55681  0.27052  0.44546  1.0000
  H   H14       1.0  0.72698  0.77047  0.94536  1.0000
  H   H15       1.0  0.28242  0.43323  0.38016  1.0000
  H   H16       1.0  0.90400  0.93320  0.88030  1.0000
  H   H17       1.0  0.01967  0.12032  0.47282  1.0000
  H   H18       1.0  0.38666  0.62028  0.97311  1.0000
  H   H19       1.0  0.30813  0.96845  0.53449  1.0000
  H   H20       1.0  0.18835  0.46846  0.03469  1.0000
  H   H21       1.0  0.82919  0.37812  0.44446  1.0000
  H   H22       1.0  0.34791  0.87811  0.94479  1.0000
  H   H23       1.0  0.92730  0.35317  0.32604  1.0000
  H   H24       1.0  0.39327  0.85294  0.82641  1.0000
  H   H25       1.0  0.96093  0.56839  0.40558  1.0000
  H   H26       1.0  0.06503  0.06854  0.90554  1.0000
  H   H27       1.0  0.07278  0.53906  0.28824  1.0000
  H   H28       1.0  0.10015  0.03897  0.78827  1.0000
  H   H29       1.0  0.76167  0.58134  0.24616  1.0000
  H   H30       1.0  0.41103  0.08126  0.74631  1.0000
  H   H31       1.0  0.64977  0.61415  0.36329  1.0000
  H   H32       1.0  0.37281  0.11416  0.86345  1.0000
  H   H33       1.0  0.57586  0.06904  0.30606  1.0000
  H   H34       1.0  0.04896  0.56892  0.80615  1.0000
  H   H35       1.0  0.56370  0.83603  0.37995  1.0000
  H   H36       1.0  0.22039  0.33599  0.88006  1.0000
  H   H37       1.0  0.98843  0.72673  0.13623  1.0000
  H   H38       1.0  0.14850  0.22652  0.63640  1.0000
  H   H39       1.0  0.98713  0.96243  0.07362  1.0000
  H   H40       1.0  0.97671  0.46219  0.57377  1.0000
  C   C1        1.0  0.13386  0.87292  0.33577  1.0000
  C   C2        1.0  0.65757  0.37325  0.83565  1.0000
  C   C3        1.0  0.23420  0.75525  0.30705  1.0000
  C   C4        1.0  0.70359  0.25550  0.80701  1.0000
  C   C5        1.0  0.34768  0.75780  0.21446  1.0000
  C   C6        1.0  0.68013  0.25791  0.71443  1.0000
  C   C7        1.0  0.36641  0.87833  0.15185  1.0000
  C   C8        1.0  0.60376  0.37845  0.65174  1.0000
  C   C9        1.0  0.26533  0.99529  0.18038  1.0000
  C   C10       1.0  0.55925  0.49546  0.68024  1.0000
  C   C11       1.0  0.14812  0.99411  0.27185  1.0000
  C   C12       1.0  0.58601  0.49441  0.77172  1.0000
  C   C13       1.0  0.00265  0.86748  0.43237  1.0000
  C   C14       1.0  0.69752  0.36785  0.93229  1.0000
  C   C15       1.0  0.44350  0.63390  0.17921  1.0000
  C   C16       1.0  0.74346  0.13395  0.67917  1.0000
  C   C17       1.0  0.43469  0.24115  0.45020  1.0000
  C   C18       1.0  0.87363  0.74115  0.95026  1.0000
  C   C19       1.0  0.27822  0.33235  0.41504  1.0000
  C   C20       1.0  0.97410  0.83232  0.91522  1.0000
  C   C21       1.0  0.12277  0.29249  0.42186  1.0000
  C   C22       1.0  0.16250  0.79246  0.92216  1.0000
  C   C23       1.0  0.13511  0.15851  0.46526  1.0000
  C   C24       1.0  0.24062  0.65848  0.96552  1.0000
  C   C25       1.0  0.29567  0.07262  0.49952  1.0000
  C   C26       1.0  0.13165  0.57261  0.99970  1.0000
  C   C27       1.0  0.94937  0.38709  0.38459  1.0000
  C   C28       1.0  0.27868  0.88700  0.88490  1.0000
  C   C29       1.0  0.94999  0.53123  0.34616  1.0000
  C   C30       1.0  0.17270  0.03120  0.84625  1.0000
  C   C31       1.0  0.77258  0.61951  0.30511  1.0000
  C   C32       1.0  0.30298  0.11943  0.80523  1.0000
  C   C33       1.0  0.66588  0.98938  0.27168  1.0000
  C   C34       1.0  0.07309  0.48924  0.77176  1.0000
  C   C35       1.0  0.65895  0.86014  0.31165  1.0000
  C   C36       1.0  0.16938  0.36005  0.81174  1.0000
  C   C37       1.0  0.77436  0.76084  0.26409  1.0000
  C   C38       1.0  0.20081  0.26072  0.76419  1.0000
  C   C39       1.0  0.89411  0.79920  0.17664  1.0000
  C   C40       1.0  0.13002  0.29902  0.67679  1.0000
  C   C41       1.0  0.89480  0.92999  0.14087  1.0000
  C   C42       1.0  0.03428  0.42980  0.64102  1.0000
  S   S1        1.0  0.26175  0.14525  0.08837  1.0000
  S   S2        1.0  0.50501  0.64532  0.58821  1.0000
  N   N1        1.0  0.44453  0.11310  0.49254  1.0000
  N   N2        1.0  0.94939  0.61310  0.99264  1.0000
  N   N3        1.0  0.78257  0.02450  0.18766  1.0000
  N   N4        1.0  0.00516  0.52436  0.68777  1.0000
  O   O1        1.0  0.89023  0.97757  0.44867  1.0000
  O   O2        1.0  0.68343  0.47796  0.94861  1.0000
  O   O3        1.0  0.01063  0.75454  0.48985  1.0000
  O   O4        1.0  0.74502  0.25492  0.98979  1.0000
  O   O5        1.0  0.56102  0.64687  0.09786  1.0000
  O   O6        1.0  0.69393  0.14685  0.59792  1.0000
  O   O7        1.0  0.40299  0.52940  0.22817  1.0000
  O   O8        1.0  0.83980  0.02951  0.72802  1.0000
  O   O9        1.0  0.10096  0.16723  0.04330  1.0000
  O   O10       1.0  0.68892  0.66730  0.54320  1.0000
  O   O11       1.0  0.43918  0.12572  0.02152  1.0000
  O   O12       1.0  0.41407  0.62576  0.52132  1.0000
  O   O13       1.0  0.22357  0.24952  0.14169  1.0000
  O   O14       1.0  0.38550  0.74955  0.64151  1.0000
  O   O15       1.0  0.64483  0.84883  0.66266  1.0000
  O   O16       1.0  0.84355  0.34879  0.16274  1.0000
  O   O17       1.0  0.01353  0.79292  0.69334  1.0000
  O   O18       1.0  0.50015  0.29301  0.19336  1.0000
