data_image0
_chemical_formula_structural       Zn2P2H26C22N4O10
_chemical_formula_sum              "Zn2 P2 H26 C22 N4 O10"
_cell_length_a       5.14759
_cell_length_b       9.227
_cell_length_c       13.7496
_cell_angle_alpha    99.9092
_cell_angle_beta     90
_cell_angle_gamma    89.9997

_space_group_name_H-M_alt    "P 1"
_space_group_IT_number       1

loop_
  _space_group_symop_operation_xyz
  'x, y, z'

loop_
  _atom_site_type_symbol
  _atom_site_label
  _atom_site_symmetry_multiplicity
  _atom_site_fract_x
  _atom_site_fract_y
  _atom_site_fract_z
  _atom_site_occupancy
  Zn  Zn1       1.0  0.04807  0.66547  0.09040  1.0000
  Zn  Zn2       1.0  0.54808  0.33452  0.90960  1.0000
  P   P1        1.0  0.54610  0.49394  0.13190  1.0000
  P   P2        1.0  0.04610  0.50605  0.86810  1.0000
  H   H1        1.0  0.39474  0.10557  0.12476  1.0000
  H   H2        1.0  0.89475  0.89442  0.87524  1.0000
  H   H3        1.0  0.06048  0.38649  0.45120  1.0000
  H   H4        1.0  0.56049  0.61352  0.54881  1.0000
  H   H5        1.0  0.56779  0.95838  0.23943  1.0000
  H   H6        1.0  0.06782  0.04161  0.76057  1.0000
  H   H7        1.0  0.80758  0.96623  0.39984  1.0000
  H   H8        1.0  0.30760  0.03377  0.60016  1.0000
  H   H9        1.0  0.14679  0.17191  0.00128  1.0000
  H   H10       1.0  0.64679  0.82809  0.99872  1.0000
  H   H11       1.0  0.16850  0.31453  0.25284  1.0000
  H   H12       1.0  0.66853  0.68547  0.74716  1.0000
  H   H13       1.0  0.94555  0.17793  0.27156  1.0000
  H   H14       1.0  0.44557  0.82207  0.72845  1.0000
  H   H15       1.0  0.14885  0.32320  0.09163  1.0000
  H   H16       1.0  0.64886  0.67679  0.90837  1.0000
  H   H17       1.0  0.56011  0.34143  0.69612  1.0000
  H   H18       1.0  0.06008  0.65857  0.30387  1.0000
  H   H19       1.0  0.63604  0.46063  0.22239  1.0000
  H   H20       1.0  0.13604  0.53937  0.77761  1.0000
  H   H21       1.0  0.88224  0.22008  0.07247  1.0000
  H   H22       1.0  0.38224  0.77993  0.92753  1.0000
  H   H23       1.0  0.80337  0.13704  0.59442  1.0000
  H   H24       1.0  0.30336  0.86296  0.40557  1.0000
  H   H25       1.0  0.18872  0.46202  0.62500  1.0000
  H   H26       1.0  0.68870  0.53799  0.37500  1.0000
  C   C1        1.0  0.05009  0.97192  0.11643  1.0000
  C   C2        1.0  0.55012  0.02808  0.88357  1.0000
  C   C3        1.0  0.18684  0.12100  0.14112  1.0000
  C   C4        1.0  0.68685  0.87900  0.85889  1.0000
  C   C5        1.0  0.14776  0.19465  0.24906  1.0000
  C   C6        1.0  0.64778  0.80535  0.75094  1.0000
  C   C7        1.0  0.33597  0.14670  0.32038  1.0000
  C   C8        1.0  0.83599  0.85330  0.67962  1.0000
  C   C9        1.0  0.35735  0.21602  0.42214  1.0000
  C   C10       1.0  0.85736  0.78399  0.57786  1.0000
  C   C11       1.0  0.22124  0.33091  0.48103  1.0000
  C   C12       1.0  0.72123  0.66909  0.51897  1.0000
  C   C13       1.0  0.29456  0.37308  0.57916  1.0000
  C   C14       1.0  0.79456  0.62692  0.42084  1.0000
  C   C15       1.0  0.50237  0.30355  0.61971  1.0000
  C   C16       1.0  0.00236  0.69645  0.38029  1.0000
  C   C17       1.0  0.64065  0.18881  0.56322  1.0000
  C   C18       1.0  0.14063  0.81119  0.43677  1.0000
  C   C19       1.0  0.56547  0.14549  0.46458  1.0000
  C   C20       1.0  0.06547  0.85451  0.53541  1.0000
  C   C21       1.0  0.52445  0.03829  0.30501  1.0000
  C   C22       1.0  0.02447  0.96171  0.69499  1.0000
  N   N1        1.0  0.08322  0.21536  0.07255  1.0000
  N   N2        1.0  0.58322  0.78464  0.92745  1.0000
  N   N3        1.0  0.66211  0.03800  0.39145  1.0000
  N   N4        1.0  0.16212  0.96201  0.60855  1.0000
  O   O1        1.0  0.18056  0.86295  0.13787  1.0000
  O   O2        1.0  0.68058  0.13705  0.86214  1.0000
  O   O3        1.0  0.67899  0.63453  0.11267  1.0000
  O   O4        1.0  0.17899  0.36547  0.88733  1.0000
  O   O5        1.0  0.60936  0.35554  0.05521  1.0000
  O   O6        1.0  0.10936  0.64445  0.94479  1.0000
  O   O7        1.0  0.24836  0.51389  0.14315  1.0000
  O   O8        1.0  0.74837  0.48611  0.85685  1.0000
  O   O9        1.0  0.82726  0.96727  0.07917  1.0000
  O   O10       1.0  0.32727  0.03273  0.92083  1.0000
