data_image0
_chemical_formula_structural       Cu4P4H16C20N4O12
_chemical_formula_sum              "Cu4 P4 H16 C20 N4 O12"
_cell_length_a       4.7848
_cell_length_b       8.93743
_cell_length_c       15.157
_cell_angle_alpha    106.076
_cell_angle_beta     89.9734
_cell_angle_gamma    90.0561

_space_group_name_H-M_alt    "P 1"
_space_group_IT_number       1

loop_
  _space_group_symop_operation_xyz
  'x, y, z'

loop_
  _atom_site_type_symbol
  _atom_site_label
  _atom_site_symmetry_multiplicity
  _atom_site_fract_x
  _atom_site_fract_y
  _atom_site_fract_z
  _atom_site_occupancy
  Cu  Cu1       1.0  0.93794  0.66717  0.01002  1.0000
  Cu  Cu2       1.0  0.43915  0.83319  0.48972  1.0000
  Cu  Cu3       1.0  0.06204  0.33288  0.98993  1.0000
  Cu  Cu4       1.0  0.56082  0.16675  0.51026  1.0000
  P   P1        1.0  0.43769  0.52316  0.88741  1.0000
  P   P2        1.0  0.93806  0.97795  0.61254  1.0000
  P   P3        1.0  0.56238  0.47684  0.11258  1.0000
  P   P4        1.0  0.06189  0.02199  0.38746  1.0000
  H   H1        1.0  0.62604  0.29013  0.71290  1.0000
  H   H2        1.0  0.12674  0.21034  0.78714  1.0000
  H   H3        1.0  0.37425  0.70999  0.28707  1.0000
  H   H4        1.0  0.87286  0.78981  0.21283  1.0000
  H   H5        1.0  0.21588  0.42821  0.50955  1.0000
  H   H6        1.0  0.71635  0.07142  0.99035  1.0000
  H   H7        1.0  0.78399  0.57177  0.49045  1.0000
  H   H8        1.0  0.28393  0.92852  0.00967  1.0000
  H   H9        1.0  0.00054  0.65897  0.62285  1.0000
  H   H10       1.0  0.50016  0.84108  0.87697  1.0000
  H   H11       1.0  0.99942  0.34101  0.37716  1.0000
  H   H12       1.0  0.49977  0.15896  0.12305  1.0000
  H   H13       1.0  0.08901  0.69351  0.79160  1.0000
  H   H14       1.0  0.58932  0.80665  0.70825  1.0000
  H   H15       1.0  0.91087  0.30643  0.20841  1.0000
  H   H16       1.0  0.41080  0.19329  0.29178  1.0000
  C   C1        1.0  0.36736  0.49698  0.76607  1.0000
  C   C2        1.0  0.86797  0.00335  0.73388  1.0000
  C   C3        1.0  0.63265  0.50301  0.23395  1.0000
  C   C4        1.0  0.13206  0.99660  0.26613  1.0000
  C   C5        1.0  0.48334  0.37435  0.69762  1.0000
  C   C6        1.0  0.98404  0.12597  0.80239  1.0000
  C   C7        1.0  0.51679  0.62573  0.30236  1.0000
  C   C8        1.0  0.01578  0.87411  0.19759  1.0000
  C   C9        1.0  0.25538  0.45338  0.58279  1.0000
  C   C10       1.0  0.75576  0.04653  0.91711  1.0000
  C   C11       1.0  0.74464  0.54662  0.41720  1.0000
  C   C12       1.0  0.24424  0.95350  0.08290  1.0000
  C   C13       1.0  0.13420  0.57908  0.64636  1.0000
  C   C14       1.0  0.63418  0.92097  0.85350  1.0000
  C   C15       1.0  0.86581  0.42090  0.35365  1.0000
  C   C16       1.0  0.36572  0.07908  0.14653  1.0000
  C   C17       1.0  0.18682  0.59952  0.73931  1.0000
  C   C18       1.0  0.68715  0.90067  0.76056  1.0000
  C   C19       1.0  0.81313  0.40045  0.26070  1.0000
  C   C20       1.0  0.31290  0.09929  0.23946  1.0000
  N   N1        1.0  0.42466  0.35219  0.60811  1.0000
  N   N2        1.0  0.92540  0.14788  0.89190  1.0000
  N   N3        1.0  0.57548  0.64786  0.39187  1.0000
  N   N4        1.0  0.07444  0.85219  0.10808  1.0000
  O   O1        1.0  0.75654  0.54771  0.89680  1.0000
  O   O2        1.0  0.25697  0.95468  0.60244  1.0000
  O   O3        1.0  0.24359  0.45226  0.10316  1.0000
  O   O4        1.0  0.74294  0.04525  0.39753  1.0000
  O   O5        1.0  0.34510  0.37155  0.90772  1.0000
  O   O6        1.0  0.84502  0.12969  0.59256  1.0000
  O   O7        1.0  0.65507  0.62844  0.09230  1.0000
  O   O8        1.0  0.15493  0.87025  0.40744  1.0000
  O   O9        1.0  0.27632  0.67085  0.93865  1.0000
  O   O10       1.0  0.77676  0.82995  0.56133  1.0000
  O   O11       1.0  0.72397  0.32918  0.06140  1.0000
  O   O12       1.0  0.22305  0.17001  0.43871  1.0000
