data_image0
_chemical_formula_structural       Mn2H16C18O16
_chemical_formula_sum              "Mn2 H16 C18 O16"
_cell_length_a       7.04023
_cell_length_b       7.07193
_cell_length_c       12.6648
_cell_angle_alpha    104.329
_cell_angle_beta     88.5741
_cell_angle_gamma    114.428

_space_group_name_H-M_alt    "P 1"
_space_group_IT_number       1

loop_
  _space_group_symop_operation_xyz
  'x, y, z'

loop_
  _atom_site_type_symbol
  _atom_site_label
  _atom_site_symmetry_multiplicity
  _atom_site_fract_x
  _atom_site_fract_y
  _atom_site_fract_z
  _atom_site_occupancy
  Mn  Mn1       1.0  1.00000  0.50000  0.00000  1.0000
  Mn  Mn2       1.0  0.50000  0.99999  1.00000  1.0000
  H   H1        1.0  0.91416  0.09147  0.94986  1.0000
  H   H2        1.0  0.08584  0.90852  0.05014  1.0000
  H   H3        1.0  0.90679  0.11766  0.07951  1.0000
  H   H4        1.0  0.09321  0.88233  0.92049  1.0000
  H   H5        1.0  0.59657  0.38596  0.12924  1.0000
  H   H6        1.0  0.40342  0.61403  0.87076  1.0000
  H   H7        1.0  0.49361  0.23805  0.21191  1.0000
  H   H8        1.0  0.50639  0.76195  0.78809  1.0000
  H   H9        1.0  0.17233  0.73035  0.63648  1.0000
  H   H10       1.0  0.82768  0.26968  0.36352  1.0000
  H   H11       1.0  0.23516  0.68264  0.36283  1.0000
  H   H12       1.0  0.76485  0.31737  0.63717  1.0000
  H   H13       1.0  0.80823  0.79945  0.53657  1.0000
  H   H14       1.0  0.19177  0.20056  0.46343  1.0000
  H   H15       1.0  0.98859  0.82452  0.36455  1.0000
  H   H16       1.0  0.01141  0.17547  0.63544  1.0000
  C   C1        1.0  0.38294  0.70843  0.16540  1.0000
  C   C2        1.0  0.61706  0.29157  0.83461  1.0000
  C   C3        1.0  0.49995  0.73032  0.26845  1.0000
  C   C4        1.0  0.50005  0.26968  0.73155  1.0000
  C   C5        1.0  0.40022  0.71444  0.36451  1.0000
  C   C6        1.0  0.59978  0.28557  0.63548  1.0000
  C   C7        1.0  0.51239  0.74471  0.46157  1.0000
  C   C8        1.0  0.48761  0.25530  0.53842  1.0000
  C   C9        1.0  0.41876  0.74622  0.56729  1.0000
  C   C10       1.0  0.58125  0.25379  0.43271  1.0000
  C   C11       1.0  0.72433  0.78144  0.46100  1.0000
  C   C12       1.0  0.27567  0.21855  0.53900  1.0000
  C   C13       1.0  0.82403  0.79572  0.36540  1.0000
  C   C14       1.0  0.17597  0.20428  0.63460  1.0000
  C   C15       1.0  0.71443  0.77502  0.26921  1.0000
  C   C16       1.0  0.28557  0.22498  0.73079  1.0000
  C   C17       1.0  0.82874  0.78248  0.16712  1.0000
  C   C18       1.0  0.17125  0.21752  0.83288  1.0000
  O   O1        1.0  0.85820  0.15548  0.01812  1.0000
  O   O2        1.0  0.14180  0.84452  0.98188  1.0000
  O   O3        1.0  0.48831  0.24360  0.13509  1.0000
  O   O4        1.0  0.51168  0.75639  0.86491  1.0000
  O   O5        1.0  0.18502  0.60397  0.15368  1.0000
  O   O6        1.0  0.81498  0.39603  0.84632  1.0000
  O   O7        1.0  0.49512  0.79972  0.09677  1.0000
  O   O8        1.0  0.50488  0.20028  0.90323  1.0000
  O   O9        1.0  0.51697  0.77555  0.65324  1.0000
  O   O10       1.0  0.48304  0.22447  0.34676  1.0000
  O   O11       1.0  0.21614  0.71658  0.56189  1.0000
  O   O12       1.0  0.78387  0.28343  0.43812  1.0000
  O   O13       1.0  0.96534  0.96082  0.15661  1.0000
  O   O14       1.0  0.03465  0.03917  0.84338  1.0000
  O   O15       1.0  0.79019  0.59834  0.10194  1.0000
  O   O16       1.0  0.20981  0.40166  0.89806  1.0000
