data_image0
_chemical_formula_structural       Zn8P4H56C24N4O24
_chemical_formula_sum              "Zn8 P4 H56 C24 N4 O24"
_cell_length_a       8.321
_cell_length_b       9.96234
_cell_length_c       12.7175
_cell_angle_alpha    90
_cell_angle_beta     90.8516
_cell_angle_gamma    89.9999

_space_group_name_H-M_alt    "P 1"
_space_group_IT_number       1

loop_
  _space_group_symop_operation_xyz
  'x, y, z'

loop_
  _atom_site_type_symbol
  _atom_site_label
  _atom_site_symmetry_multiplicity
  _atom_site_fract_x
  _atom_site_fract_y
  _atom_site_fract_z
  _atom_site_occupancy
  Zn  Zn1       1.0  0.23315  0.08861  0.02267  1.0000
  Zn  Zn2       1.0  0.76685  0.58861  0.47733  1.0000
  Zn  Zn3       1.0  0.76685  0.91139  0.97733  1.0000
  Zn  Zn4       1.0  0.23315  0.41139  0.52267  1.0000
  Zn  Zn5       1.0  0.41845  0.89096  0.82867  1.0000
  Zn  Zn6       1.0  0.58155  0.39096  0.67133  1.0000
  Zn  Zn7       1.0  0.58155  0.10904  0.17133  1.0000
  Zn  Zn8       1.0  0.41845  0.60904  0.32867  1.0000
  P   P1        1.0  0.31187  0.89428  0.21806  1.0000
  P   P2        1.0  0.68812  0.39431  0.28194  1.0000
  P   P3        1.0  0.68813  0.10572  0.78194  1.0000
  P   P4        1.0  0.31188  0.60569  0.71806  1.0000
  H   H1        1.0  0.19326  0.94298  0.28721  1.0000
  H   H2        1.0  0.80674  0.44297  0.21279  1.0000
  H   H3        1.0  0.80674  0.05702  0.71279  1.0000
  H   H4        1.0  0.19326  0.55703  0.78721  1.0000
  H   H5        1.0  0.91811  0.09852  0.10323  1.0000
  H   H6        1.0  0.08189  0.59852  0.39677  1.0000
  H   H7        1.0  0.08189  0.90148  0.89677  1.0000
  H   H8        1.0  0.91811  0.40148  0.60323  1.0000
  H   H9        1.0  0.36654  0.22869  0.81444  1.0000
  H   H10       1.0  0.63346  0.72869  0.68556  1.0000
  H   H11       1.0  0.63346  0.77131  0.18556  1.0000
  H   H12       1.0  0.36654  0.27131  0.31444  1.0000
  H   H13       1.0  0.18648  0.30062  0.76229  1.0000
  H   H14       1.0  0.81352  0.80062  0.73771  1.0000
  H   H15       1.0  0.81352  0.69938  0.23771  1.0000
  H   H16       1.0  0.18648  0.19938  0.26229  1.0000
  H   H17       1.0  0.03926  0.08867  0.79376  1.0000
  H   H18       1.0  0.96073  0.58867  0.70624  1.0000
  H   H19       1.0  0.96074  0.91133  0.20624  1.0000
  H   H20       1.0  0.03926  0.41133  0.29376  1.0000
  H   H21       1.0  0.21606  0.05753  0.72010  1.0000
  H   H22       1.0  0.78393  0.55754  0.77990  1.0000
  H   H23       1.0  0.78393  0.94246  0.27990  1.0000
  H   H24       1.0  0.21607  0.44246  0.22010  1.0000
  H   H25       1.0  0.25137  0.41113  0.04481  1.0000
  H   H26       1.0  0.74863  0.91112  0.45519  1.0000
  H   H27       1.0  0.74863  0.58887  0.95519  1.0000
  H   H28       1.0  0.25137  0.08887  0.54481  1.0000
  H   H29       1.0  0.33337  0.44918  0.91939  1.0000
  H   H30       1.0  0.66663  0.94918  0.58061  1.0000
  H   H31       1.0  0.66663  0.55082  0.08061  1.0000
  H   H32       1.0  0.33338  0.05082  0.41939  1.0000
  H   H33       1.0  0.54103  0.27738  0.94154  1.0000
  H   H34       1.0  0.45897  0.77738  0.55845  1.0000
  H   H35       1.0  0.45897  0.72262  0.05845  1.0000
  H   H36       1.0  0.54104  0.22262  0.44155  1.0000
  H   H37       1.0  0.53201  0.37426  0.05930  1.0000
  H   H38       1.0  0.46799  0.87425  0.44070  1.0000
  H   H39       1.0  0.46799  0.62575  0.94070  1.0000
  H   H40       1.0  0.53201  0.12575  0.55930  1.0000
  H   H41       1.0  0.95233  0.24730  0.88546  1.0000
  H   H42       1.0  0.04767  0.74730  0.61454  1.0000
  H   H43       1.0  0.04767  0.75270  0.11454  1.0000
  H   H44       1.0  0.95234  0.25270  0.38546  1.0000
  H   H45       1.0  0.00712  0.41516  0.91545  1.0000
  H   H46       1.0  0.99288  0.91516  0.58455  1.0000
  H   H47       1.0  0.99288  0.58484  0.08455  1.0000
  H   H48       1.0  0.00712  0.08484  0.41545  1.0000
  H   H49       1.0  0.01379  0.36427  0.10450  1.0000
  H   H50       1.0  0.98621  0.86427  0.39550  1.0000
  H   H51       1.0  0.98621  0.63573  0.89550  1.0000
  H   H52       1.0  0.01378  0.13574  0.60450  1.0000
  H   H53       1.0  0.83440  0.29414  0.05020  1.0000
  H   H54       1.0  0.16560  0.79414  0.44980  1.0000
  H   H55       1.0  0.16560  0.70586  0.94980  1.0000
  H   H56       1.0  0.83440  0.20586  0.55020  1.0000
  C   C1        1.0  0.23531  0.22930  0.82096  1.0000
  C   C2        1.0  0.76469  0.72931  0.67904  1.0000
  C   C3        1.0  0.76470  0.77069  0.17904  1.0000
  C   C4        1.0  0.23530  0.27070  0.32096  1.0000
  C   C5        1.0  0.17169  0.08888  0.79745  1.0000
  C   C6        1.0  0.82831  0.58888  0.70255  1.0000
  C   C7        1.0  0.82831  0.91112  0.20255  1.0000
  C   C8        1.0  0.17169  0.41112  0.29745  1.0000
  C   C9        1.0  0.30847  0.36760  0.97533  1.0000
  C   C10       1.0  0.69153  0.86760  0.52467  1.0000
  C   C11       1.0  0.69152  0.63240  0.02467  1.0000
  C   C12       1.0  0.30848  0.13240  0.47533  1.0000
  C   C13       1.0  0.46616  0.30108  0.00996  1.0000
  C   C14       1.0  0.53384  0.80108  0.49003  1.0000
  C   C15       1.0  0.53384  0.69892  0.99003  1.0000
  C   C16       1.0  0.46616  0.19892  0.50997  1.0000
  C   C17       1.0  0.02551  0.30927  0.93875  1.0000
  C   C18       1.0  0.97450  0.80927  0.56125  1.0000
  C   C19       1.0  0.97450  0.69073  0.06125  1.0000
  C   C20       1.0  0.02550  0.19073  0.43875  1.0000
  C   C21       1.0  0.96624  0.28714  0.05037  1.0000
  C   C22       1.0  0.03376  0.78714  0.44963  1.0000
  C   C23       1.0  0.03376  0.71286  0.94963  1.0000
  C   C24       1.0  0.96624  0.21286  0.55037  1.0000
  N   N1        1.0  0.19486  0.26927  0.92915  1.0000
  N   N2        1.0  0.80514  0.76927  0.57084  1.0000
  N   N3        1.0  0.80514  0.73073  0.07084  1.0000
  N   N4        1.0  0.19486  0.23073  0.42916  1.0000
  O   O1        1.0  0.22302  0.99435  0.87674  1.0000
  O   O2        1.0  0.77698  0.49435  0.62326  1.0000
  O   O3        1.0  0.77698  0.00565  0.12326  1.0000
  O   O4        1.0  0.22302  0.50565  0.37674  1.0000
  O   O5        1.0  0.43371  0.18307  0.06878  1.0000
  O   O6        1.0  0.56629  0.68307  0.43122  1.0000
  O   O7        1.0  0.56629  0.81693  0.93122  1.0000
  O   O8        1.0  0.43371  0.31693  0.56878  1.0000
  O   O9        1.0  0.01655  0.15878  0.08934  1.0000
  O   O10       1.0  0.98345  0.65878  0.41066  1.0000
  O   O11       1.0  0.98345  0.84122  0.91066  1.0000
  O   O12       1.0  0.01655  0.34122  0.58934  1.0000
  O   O13       1.0  0.25006  0.92305  0.10606  1.0000
  O   O14       1.0  0.74993  0.42305  0.39394  1.0000
  O   O15       1.0  0.74993  0.07695  0.89394  1.0000
  O   O16       1.0  0.25007  0.57695  0.60606  1.0000
  O   O17       1.0  0.32025  0.74227  0.23575  1.0000
  O   O18       1.0  0.67975  0.24225  0.26425  1.0000
  O   O19       1.0  0.67976  0.25773  0.76425  1.0000
  O   O20       1.0  0.32025  0.75775  0.73575  1.0000
  O   O21       1.0  0.46681  0.96926  0.24970  1.0000
  O   O22       1.0  0.53319  0.46926  0.25030  1.0000
  O   O23       1.0  0.53319  0.03074  0.75030  1.0000
  O   O24       1.0  0.46680  0.53074  0.74970  1.0000
