data_image0
_chemical_formula_structural       Ag4H24C40S4N16O12F12
_chemical_formula_sum              "Ag4 H24 C40 S4 N16 O12 F12"
_cell_length_a       7.96963
_cell_length_b       7.96957
_cell_length_c       21.2139
_cell_angle_alpha    86.0036
_cell_angle_beta     86.0042
_cell_angle_gamma    74.7968

_space_group_name_H-M_alt    "P 1"
_space_group_IT_number       1

loop_
  _space_group_symop_operation_xyz
  'x, y, z'

loop_
  _atom_site_type_symbol
  _atom_site_label
  _atom_site_symmetry_multiplicity
  _atom_site_fract_x
  _atom_site_fract_y
  _atom_site_fract_z
  _atom_site_occupancy
  Ag  Ag1       1.0  0.69048  0.50676  0.44656  1.0000
  Ag  Ag2       1.0  0.49324  0.30954  0.05345  1.0000
  Ag  Ag3       1.0  0.30955  0.49324  0.55344  1.0000
  Ag  Ag4       1.0  0.50678  0.69047  0.94656  1.0000
  H   H1        1.0  0.11939  0.04914  0.30510  1.0000
  H   H2        1.0  0.95087  0.88061  0.19490  1.0000
  H   H3        1.0  0.88062  0.95085  0.69490  1.0000
  H   H4        1.0  0.04913  0.11938  0.80510  1.0000
  H   H5        1.0  0.73872  0.63980  0.29494  1.0000
  H   H6        1.0  0.36021  0.26128  0.20507  1.0000
  H   H7        1.0  0.26129  0.36018  0.70505  1.0000
  H   H8        1.0  0.63981  0.73872  0.79494  1.0000
  H   H9        1.0  0.92199  0.51135  0.19959  1.0000
  H   H10       1.0  0.48867  0.07801  0.30041  1.0000
  H   H11       1.0  0.07803  0.48862  0.80040  1.0000
  H   H12       1.0  0.51136  0.92199  0.69960  1.0000
  H   H13       1.0  0.92516  0.79003  0.43241  1.0000
  H   H14       1.0  0.20998  0.07484  0.06759  1.0000
  H   H15       1.0  0.07483  0.20998  0.56759  1.0000
  H   H16       1.0  0.79002  0.92516  0.93241  1.0000
  H   H17       1.0  0.39038  0.86161  0.42635  1.0000
  H   H18       1.0  0.13840  0.60963  0.07365  1.0000
  H   H19       1.0  0.60962  0.13840  0.57365  1.0000
  H   H20       1.0  0.86159  0.39037  0.92635  1.0000
  H   H21       1.0  0.34617  0.18845  0.42046  1.0000
  H   H22       1.0  0.81155  0.65384  0.07953  1.0000
  H   H23       1.0  0.65383  0.81155  0.57954  1.0000
  H   H24       1.0  0.18844  0.34616  0.92046  1.0000
  C   C1        1.0  0.03639  0.18208  0.30217  1.0000
  C   C2        1.0  0.81793  0.96361  0.19783  1.0000
  C   C3        1.0  0.96362  0.81790  0.69783  1.0000
  C   C4        1.0  0.18208  0.03638  0.80217  1.0000
  C   C5        1.0  0.93828  0.25654  0.35487  1.0000
  C   C6        1.0  0.74347  0.06172  0.14513  1.0000
  C   C7        1.0  0.06172  0.74346  0.64512  1.0000
  C   C8        1.0  0.25654  0.93827  0.85487  1.0000
  C   C9        1.0  0.82385  0.50802  0.29708  1.0000
  C   C10       1.0  0.49199  0.17615  0.20292  1.0000
  C   C11       1.0  0.17616  0.49196  0.70292  1.0000
  C   C12       1.0  0.50803  0.82385  0.79708  1.0000
  C   C13       1.0  0.92532  0.43544  0.24448  1.0000
  C   C14       1.0  0.56458  0.07468  0.25552  1.0000
  C   C15       1.0  0.07470  0.56455  0.75552  1.0000
  C   C16       1.0  0.43544  0.92531  0.74448  1.0000
  C   C17       1.0  0.76722  0.05893  0.42647  1.0000
  C   C18       1.0  0.94108  0.23278  0.07353  1.0000
  C   C19       1.0  0.23277  0.94108  0.57353  1.0000
  C   C20       1.0  0.05892  0.76722  0.92647  1.0000
  C   C21       1.0  0.79570  0.87828  0.42919  1.0000
  C   C22       1.0  0.12172  0.20430  0.07080  1.0000
  C   C23       1.0  0.20429  0.12172  0.57080  1.0000
  C   C24       1.0  0.87828  0.79571  0.92920  1.0000
  C   C25       1.0  0.49987  0.91937  0.42541  1.0000
  C   C26       1.0  0.08063  0.50013  0.07459  1.0000
  C   C27       1.0  0.50012  0.08063  0.57459  1.0000
  C   C28       1.0  0.91936  0.49987  0.92541  1.0000
  C   C29       1.0  0.47592  0.09972  0.42239  1.0000
  C   C30       1.0  0.90028  0.52408  0.07761  1.0000
  C   C31       1.0  0.52407  0.90028  0.57761  1.0000
  C   C32       1.0  0.09971  0.47592  0.92239  1.0000
  C   C33       1.0  0.72504  0.40442  0.65680  1.0000
  C   C34       1.0  0.59558  0.27496  0.84320  1.0000
  C   C35       1.0  0.27495  0.59559  0.34320  1.0000
  C   C36       1.0  0.40441  0.72505  0.15680  1.0000
  C   C37       1.0  0.74759  0.45791  0.58511  1.0000
  C   C38       1.0  0.54209  0.25241  0.91490  1.0000
  C   C39       1.0  0.25238  0.54209  0.41489  1.0000
  C   C40       1.0  0.45790  0.74759  0.08510  1.0000
  S   S1        1.0  0.95206  0.15032  0.43361  1.0000
  S   S2        1.0  0.84967  0.04795  0.06639  1.0000
  S   S3        1.0  0.04794  0.84968  0.56639  1.0000
  S   S4        1.0  0.15032  0.95205  0.93361  1.0000
  N   N1        1.0  0.03043  0.27352  0.24639  1.0000
  N   N2        1.0  0.72649  0.96957  0.25361  1.0000
  N   N3        1.0  0.96958  0.72645  0.75360  1.0000
  N   N4        1.0  0.27353  0.03042  0.74640  1.0000
  N   N5        1.0  0.83300  0.41727  0.35284  1.0000
  N   N6        1.0  0.58274  0.16700  0.14716  1.0000
  N   N7        1.0  0.16700  0.58273  0.64715  1.0000
  N   N8        1.0  0.41727  0.83299  0.85284  1.0000
  N   N9        1.0  0.65924  0.80938  0.42859  1.0000
  N   N10       1.0  0.19062  0.34077  0.07141  1.0000
  N   N11       1.0  0.34076  0.19063  0.57141  1.0000
  N   N12       1.0  0.80937  0.65924  0.92859  1.0000
  N   N13       1.0  0.61123  0.17025  0.42318  1.0000
  N   N14       1.0  0.82975  0.38878  0.07682  1.0000
  N   N15       1.0  0.38876  0.82975  0.57682  1.0000
  N   N16       1.0  0.17024  0.61123  0.92318  1.0000
  O   O1        1.0  0.10828  0.99706  0.43253  1.0000
  O   O2        1.0  0.00294  0.89172  0.06746  1.0000
  O   O3        1.0  0.89171  0.00293  0.56746  1.0000
  O   O4        1.0  0.99706  0.10828  0.93253  1.0000
  O   O5        1.0  0.65053  0.40958  0.54884  1.0000
  O   O6        1.0  0.59041  0.34946  0.95116  1.0000
  O   O7        1.0  0.34946  0.59043  0.45116  1.0000
  O   O8        1.0  0.40959  0.65053  0.04884  1.0000
  O   O9        1.0  0.85649  0.54380  0.57195  1.0000
  O   O10       1.0  0.45621  0.14349  0.92805  1.0000
  O   O11       1.0  0.14349  0.45623  0.42805  1.0000
  O   O12       1.0  0.54377  0.85652  0.07195  1.0000
  F   F1        1.0  0.87875  0.30754  0.68004  1.0000
  F   F2        1.0  0.69247  0.12125  0.81997  1.0000
  F   F3        1.0  0.12123  0.69247  0.31997  1.0000
  F   F4        1.0  0.30752  0.87876  0.18003  1.0000
  F   F5        1.0  0.67181  0.55022  0.69130  1.0000
  F   F6        1.0  0.44980  0.32820  0.80869  1.0000
  F   F7        1.0  0.32819  0.44980  0.30869  1.0000
  F   F8        1.0  0.55020  0.67182  0.19131  1.0000
  F   F9        1.0  0.60614  0.30972  0.67054  1.0000
  F   F10       1.0  0.69029  0.39385  0.82947  1.0000
  F   F11       1.0  0.39383  0.69030  0.32946  1.0000
  F   F12       1.0  0.30971  0.60615  0.17054  1.0000
