data_image0
_chemical_formula_structural       Co4H16C16O20
_chemical_formula_sum              "Co4 H16 C16 O20"
_cell_length_a       5.82441
_cell_length_b       8.06694
_cell_length_c       11.2002
_cell_angle_alpha    89.9874
_cell_angle_beta     90.0076
_cell_angle_gamma    90.0238

_space_group_name_H-M_alt    "P 1"
_space_group_IT_number       1

loop_
  _space_group_symop_operation_xyz
  'x, y, z'

loop_
  _atom_site_type_symbol
  _atom_site_label
  _atom_site_symmetry_multiplicity
  _atom_site_fract_x
  _atom_site_fract_y
  _atom_site_fract_z
  _atom_site_occupancy
  Co  Co1       1.0  0.79110  0.11460  0.98168  1.0000
  Co  Co2       1.0  0.70892  0.88539  0.48170  1.0000
  Co  Co3       1.0  0.20887  0.61459  0.51824  1.0000
  Co  Co4       1.0  0.29106  0.38544  0.01829  1.0000
  H   H1        1.0  0.73821  0.75099  0.77715  1.0000
  H   H2        1.0  0.76189  0.24894  0.27704  1.0000
  H   H3        1.0  0.26190  0.25118  0.72291  1.0000
  H   H4        1.0  0.23848  0.74895  0.22266  1.0000
  H   H5        1.0  0.98818  0.85003  0.71835  1.0000
  H   H6        1.0  0.51181  0.15002  0.21827  1.0000
  H   H7        1.0  0.01180  0.34980  0.78170  1.0000
  H   H8        1.0  0.48829  0.65011  0.28168  1.0000
  H   H9        1.0  0.25137  0.83452  0.84130  1.0000
  H   H10       1.0  0.24864  0.16571  0.34124  1.0000
  H   H11       1.0  0.74845  0.33410  0.65873  1.0000
  H   H12       1.0  0.75179  0.66556  0.15874  1.0000
  H   H13       1.0  0.17931  0.76767  0.98712  1.0000
  H   H14       1.0  0.32082  0.23238  0.48707  1.0000
  H   H15       1.0  0.82033  0.26772  0.51286  1.0000
  H   H16       1.0  0.67972  0.73226  0.01290  1.0000
  C   C1        1.0  0.69790  0.01032  0.73842  1.0000
  C   C2        1.0  0.80198  0.98956  0.23843  1.0000
  C   C3        1.0  0.30190  0.51057  0.76158  1.0000
  C   C4        1.0  0.19792  0.48960  0.26153  1.0000
  C   C5        1.0  0.84259  0.86486  0.77985  1.0000
  C   C6        1.0  0.65740  0.13512  0.27979  1.0000
  C   C7        1.0  0.15734  0.36490  0.72018  1.0000
  C   C8        1.0  0.34275  0.63510  0.22013  1.0000
  C   C9        1.0  0.15949  0.86966  0.92345  1.0000
  C   C10       1.0  0.34053  0.13043  0.42338  1.0000
  C   C11       1.0  0.84031  0.36951  0.57663  1.0000
  C   C12       1.0  0.65977  0.63034  0.07662  1.0000
  C   C13       1.0  0.27074  0.02425  0.97288  1.0000
  C   C14       1.0  0.22923  0.97580  0.47281  1.0000
  C   C15       1.0  0.72901  0.52412  0.52731  1.0000
  C   C16       1.0  0.77099  0.47581  0.02721  1.0000
  O   O1        1.0  0.67339  0.13386  0.80826  1.0000
  O   O2        1.0  0.82646  0.86610  0.30832  1.0000
  O   O3        1.0  0.32633  0.63408  0.69168  1.0000
  O   O4        1.0  0.17347  0.36603  0.19172  1.0000
  O   O5        1.0  0.60586  0.00209  0.63605  1.0000
  O   O6        1.0  0.89399  0.99782  0.13606  1.0000
  O   O7        1.0  0.39400  0.50234  0.86393  1.0000
  O   O8        1.0  0.10572  0.49793  0.36384  1.0000
  O   O9        1.0  0.15792  0.16231  0.96590  1.0000
  O   O10       1.0  0.34195  0.83773  0.46570  1.0000
  O   O11       1.0  0.84182  0.66220  0.53425  1.0000
  O   O12       1.0  0.65808  0.33775  0.03413  1.0000
  O   O13       1.0  0.46802  0.00749  0.01582  1.0000
  O   O14       1.0  0.03205  0.99257  0.51591  1.0000
  O   O15       1.0  0.53171  0.50736  0.48433  1.0000
  O   O16       1.0  0.96830  0.49261  0.98426  1.0000
  O   O17       1.0  0.92038  0.89435  0.89938  1.0000
  O   O18       1.0  0.57966  0.10571  0.39934  1.0000
  O   O19       1.0  0.07944  0.39420  0.60063  1.0000
  O   O20       1.0  0.42064  0.60555  0.10064  1.0000
