data_image0
_chemical_formula_structural       Cd2H32C32N20O8
_chemical_formula_sum              "Cd2 H32 C32 N20 O8"
_cell_length_a       4.97439
_cell_length_b       9.13201
_cell_length_c       20.9342
_cell_angle_alpha    90.0001
_cell_angle_beta     94.3386
_cell_angle_gamma    89.9999

_space_group_name_H-M_alt    "P 1"
_space_group_IT_number       1

loop_
  _space_group_symop_operation_xyz
  'x, y, z'

loop_
  _atom_site_type_symbol
  _atom_site_label
  _atom_site_symmetry_multiplicity
  _atom_site_fract_x
  _atom_site_fract_y
  _atom_site_fract_z
  _atom_site_occupancy
  Cd  Cd1       1.0  0.50000  1.00000  0.50000  1.0000
  Cd  Cd2       1.0  0.50000  0.50000  0.00000  1.0000
  H   H1        1.0  0.19887  0.56657  0.42874  1.0000
  H   H2        1.0  0.80114  0.06657  0.07126  1.0000
  H   H3        1.0  0.80114  0.43343  0.57126  1.0000
  H   H4        1.0  0.19888  0.93343  0.92874  1.0000
  H   H5        1.0  0.08987  0.31432  0.50010  1.0000
  H   H6        1.0  0.91013  0.81432  0.99990  1.0000
  H   H7        1.0  0.91013  0.68568  0.49990  1.0000
  H   H8        1.0  0.08988  0.18568  0.00010  1.0000
  H   H9        1.0  0.71592  0.22179  0.38177  1.0000
  H   H10       1.0  0.28407  0.72179  0.11823  1.0000
  H   H11       1.0  0.28407  0.77821  0.61822  1.0000
  H   H12       1.0  0.71592  0.27821  0.88177  1.0000
  H   H13       1.0  0.77702  0.45403  0.32694  1.0000
  H   H14       1.0  0.22299  0.95403  0.17306  1.0000
  H   H15       1.0  0.22299  0.54597  0.67306  1.0000
  H   H16       1.0  0.77701  0.04597  0.82694  1.0000
  H   H17       1.0  0.65582  0.61732  0.36171  1.0000
  H   H18       1.0  0.34418  0.11733  0.13829  1.0000
  H   H19       1.0  0.34418  0.38268  0.63829  1.0000
  H   H20       1.0  0.65582  0.88268  0.86171  1.0000
  H   H21       1.0  0.74898  0.54205  0.14581  1.0000
  H   H22       1.0  0.25102  0.04206  0.35419  1.0000
  H   H23       1.0  0.25102  0.45795  0.85419  1.0000
  H   H24       1.0  0.74898  0.95794  0.64581  1.0000
  H   H25       1.0  0.79866  0.35788  0.17056  1.0000
  H   H26       1.0  0.20134  0.85788  0.32944  1.0000
  H   H27       1.0  0.20134  0.64212  0.82944  1.0000
  H   H28       1.0  0.79866  0.14212  0.67056  1.0000
  H   H29       1.0  0.28836  0.31176  0.24123  1.0000
  H   H30       1.0  0.71163  0.81177  0.25877  1.0000
  H   H31       1.0  0.71164  0.68823  0.75877  1.0000
  H   H32       1.0  0.28836  0.18823  0.74123  1.0000
  C   C1        1.0  0.28456  0.45737  0.42990  1.0000
  C   C2        1.0  0.71544  0.95738  0.07010  1.0000
  C   C3        1.0  0.71544  0.54262  0.57010  1.0000
  C   C4        1.0  0.28457  0.04262  0.92990  1.0000
  C   C5        1.0  0.23656  0.33465  0.46538  1.0000
  C   C6        1.0  0.76344  0.83466  0.03463  1.0000
  C   C7        1.0  0.76344  0.66535  0.53463  1.0000
  C   C8        1.0  0.23657  0.16535  0.96537  1.0000
  C   C9        1.0  0.56080  0.27903  0.40549  1.0000
  C   C10       1.0  0.43919  0.77904  0.09451  1.0000
  C   C11       1.0  0.43919  0.72096  0.59451  1.0000
  C   C12       1.0  0.56080  0.22097  0.90549  1.0000
  C   C13       1.0  0.59628  0.50983  0.34174  1.0000
  C   C14       1.0  0.40373  0.00984  0.15826  1.0000
  C   C15       1.0  0.40373  0.49016  0.65826  1.0000
  C   C16       1.0  0.59627  0.99017  0.84174  1.0000
  C   C17       1.0  0.03971  0.42603  0.09358  1.0000
  C   C18       1.0  0.96029  0.92602  0.40642  1.0000
  C   C19       1.0  0.96029  0.57398  0.90642  1.0000
  C   C20       1.0  0.03970  0.07398  0.59358  1.0000
  C   C21       1.0  0.90201  0.45698  0.15536  1.0000
  C   C22       1.0  0.09799  0.95698  0.34464  1.0000
  C   C23       1.0  0.09799  0.54302  0.84464  1.0000
  C   C24       1.0  0.90201  0.04302  0.65536  1.0000
  C   C25       1.0  0.39031  0.53092  0.28672  1.0000
  C   C26       1.0  0.60970  0.03093  0.21328  1.0000
  C   C27       1.0  0.60970  0.46907  0.71328  1.0000
  C   C28       1.0  0.39031  0.96907  0.78672  1.0000
  C   C29       1.0  0.26479  0.42891  0.24554  1.0000
  C   C30       1.0  0.73521  0.92892  0.25446  1.0000
  C   C31       1.0  0.73522  0.57108  0.75446  1.0000
  C   C32       1.0  0.26479  0.07108  0.74554  1.0000
  N   N1        1.0  0.49137  0.42015  0.39231  1.0000
  N   N2        1.0  0.50863  0.92015  0.10769  1.0000
  N   N3        1.0  0.50863  0.57985  0.60769  1.0000
  N   N4        1.0  0.49137  0.07985  0.89231  1.0000
  N   N5        1.0  0.41010  0.22432  0.44966  1.0000
  N   N6        1.0  0.58989  0.72433  0.05033  1.0000
  N   N7        1.0  0.58989  0.77567  0.55033  1.0000
  N   N8        1.0  0.41011  0.27568  0.94966  1.0000
  N   N9        1.0  0.08512  0.50732  0.20794  1.0000
  N   N10       1.0  0.91488  0.00733  0.29206  1.0000
  N   N11       1.0  0.91488  0.49267  0.79206  1.0000
  N   N12       1.0  0.08512  0.99267  0.70794  1.0000
  N   N13       1.0  0.28270  0.66511  0.27162  1.0000
  N   N14       1.0  0.71730  0.16512  0.22838  1.0000
  N   N15       1.0  0.71731  0.33489  0.72838  1.0000
  N   N16       1.0  0.28270  0.83489  0.77162  1.0000
  N   N17       1.0  0.09827  0.65123  0.22338  1.0000
  N   N18       1.0  0.90174  0.15124  0.27662  1.0000
  N   N19       1.0  0.90174  0.34876  0.77662  1.0000
  N   N20       1.0  0.09827  0.84876  0.72338  1.0000
  O   O1        1.0  0.88821  0.37784  0.04694  1.0000
  O   O2        1.0  0.11179  0.87784  0.45306  1.0000
  O   O3        1.0  0.11179  0.62216  0.95306  1.0000
  O   O4        1.0  0.88820  0.12216  0.54694  1.0000
  O   O5        1.0  0.29124  0.44866  0.09418  1.0000
  O   O6        1.0  0.70875  0.94865  0.40582  1.0000
  O   O7        1.0  0.70875  0.55135  0.90582  1.0000
  O   O8        1.0  0.29124  0.05135  0.59418  1.0000
