data_image0
_chemical_formula_structural       Na2H6C8O8
_chemical_formula_sum              "Na2 H6 C8 O8"
_cell_length_a       5.3939
_cell_length_b       6.46121
_cell_length_c       7.95707
_cell_angle_alpha    82.4024
_cell_angle_beta     88.0964
_cell_angle_gamma    67.2202

_space_group_name_H-M_alt    "P 1"
_space_group_IT_number       1

loop_
  _space_group_symop_operation_xyz
  'x, y, z'

loop_
  _atom_site_type_symbol
  _atom_site_label
  _atom_site_symmetry_multiplicity
  _atom_site_fract_x
  _atom_site_fract_y
  _atom_site_fract_z
  _atom_site_occupancy
  Na  Na1       1.0  0.52926  0.76141  0.39775  1.0000
  Na  Na2       1.0  0.47073  0.23859  0.60230  1.0000
  H   H1        1.0  0.75810  0.79215  0.96224  1.0000
  H   H2        1.0  0.24192  0.20783  0.03774  1.0000
  H   H3        1.0  0.33422  0.69309  0.83222  1.0000
  H   H4        1.0  0.66577  0.30692  0.16788  1.0000
  H   H5        1.0  0.04458  0.70953  0.38074  1.0000
  H   H6        1.0  0.95536  0.29064  0.61930  1.0000
  C   C1        1.0  0.00258  0.75271  0.65318  1.0000
  C   C2        1.0  0.99743  0.24731  0.34679  1.0000
  C   C3        1.0  0.11839  0.73532  0.82394  1.0000
  C   C4        1.0  0.88157  0.26476  0.17602  1.0000
  C   C5        1.0  0.97284  0.75675  0.96526  1.0000
  C   C6        1.0  0.02719  0.24322  0.03473  1.0000
  C   C7        1.0  0.10152  0.73089  0.13242  1.0000
  C   C8        1.0  0.89854  0.26903  0.86756  1.0000
  O   O1        1.0  0.17798  0.66858  0.53890  1.0000
  O   O2        1.0  0.82199  0.33138  0.46102  1.0000
  O   O3        1.0  0.33941  0.70508  0.15123  1.0000
  O   O4        1.0  0.66058  0.29496  0.84883  1.0000
  O   O5        1.0  0.93652  0.73983  0.26166  1.0000
  O   O6        1.0  0.06355  0.26005  0.73834  1.0000
  O   O7        1.0  0.75234  0.84125  0.62486  1.0000
  O   O8        1.0  0.24763  0.15871  0.37507  1.0000
