data_image0
_chemical_formula_structural       Cu2H32C32N20O8
_chemical_formula_sum              "Cu2 H32 C32 N20 O8"
_cell_length_a       7.99974
_cell_length_b       13.0144
_cell_length_c       13.0146
_cell_angle_alpha    79.9006
_cell_angle_beta     79.7847
_cell_angle_gamma    79.7849

_space_group_name_H-M_alt    "P 1"
_space_group_IT_number       1

loop_
  _space_group_symop_operation_xyz
  'x, y, z'

loop_
  _atom_site_type_symbol
  _atom_site_label
  _atom_site_symmetry_multiplicity
  _atom_site_fract_x
  _atom_site_fract_y
  _atom_site_fract_z
  _atom_site_occupancy
  Cu  Cu1       1.0  1.00000  0.00000  0.00000  1.0000
  Cu  Cu2       1.0  0.50000  0.00000  1.00000  1.0000
  H   H1        1.0  0.07766  0.27179  0.99982  1.0000
  H   H2        1.0  0.42233  0.00018  0.72822  1.0000
  H   H3        1.0  0.92234  0.72820  0.00019  1.0000
  H   H4        1.0  0.57767  0.99982  0.27178  1.0000
  H   H5        1.0  0.05996  0.25412  0.13919  1.0000
  H   H6        1.0  0.44004  0.86080  0.74589  1.0000
  H   H7        1.0  0.94005  0.74588  0.86081  1.0000
  H   H8        1.0  0.55996  0.13920  0.25411  1.0000
  H   H9        1.0  0.23120  0.39039  0.20946  1.0000
  H   H10       1.0  0.26882  0.79054  0.60961  1.0000
  H   H11       1.0  0.76882  0.60961  0.79054  1.0000
  H   H12       1.0  0.73119  0.20946  0.39039  1.0000
  H   H13       1.0  0.38061  0.58055  0.18821  1.0000
  H   H14       1.0  0.11940  0.81179  0.41945  1.0000
  H   H15       1.0  0.61939  0.41945  0.81178  1.0000
  H   H16       1.0  0.88061  0.18821  0.58055  1.0000
  H   H17       1.0  0.44440  0.63594  0.05540  1.0000
  H   H18       1.0  0.05562  0.94461  0.36406  1.0000
  H   H19       1.0  0.55560  0.36406  0.94459  1.0000
  H   H20       1.0  0.94439  0.05539  0.63594  1.0000
  H   H21       1.0  0.03183  0.64835  0.26123  1.0000
  H   H22       1.0  0.46818  0.73877  0.35165  1.0000
  H   H23       1.0  0.96817  0.35165  0.73877  1.0000
  H   H24       1.0  0.53182  0.26123  0.64835  1.0000
  H   H25       1.0  0.85525  0.85052  0.21247  1.0000
  H   H26       1.0  0.64475  0.78753  0.14948  1.0000
  H   H27       1.0  0.14474  0.14948  0.78753  1.0000
  H   H28       1.0  0.35524  0.21246  0.85051  1.0000
  H   H29       1.0  0.30245  0.80585  0.98659  1.0000
  H   H30       1.0  0.19757  0.01341  0.19416  1.0000
  H   H31       1.0  0.69755  0.19415  0.01341  1.0000
  H   H32       1.0  0.80244  0.98659  0.80584  1.0000
  C   C1        1.0  0.31135  0.19333  0.06130  1.0000
  C   C2        1.0  0.18864  0.93869  0.80667  1.0000
  C   C3        1.0  0.68865  0.80667  0.93870  1.0000
  C   C4        1.0  0.81136  0.06131  0.19333  1.0000
  C   C5        1.0  0.14518  0.27457  0.06509  1.0000
  C   C6        1.0  0.35482  0.93491  0.72543  1.0000
  C   C7        1.0  0.85482  0.72543  0.93492  1.0000
  C   C8        1.0  0.64518  0.06510  0.27457  1.0000
  C   C9        1.0  0.22958  0.42782  0.12841  1.0000
  C   C10       1.0  0.27043  0.87159  0.57218  1.0000
  C   C11       1.0  0.77042  0.57218  0.87159  1.0000
  C   C12       1.0  0.72958  0.12841  0.42782  1.0000
  C   C13       1.0  0.27378  0.52262  0.07374  1.0000
  C   C14       1.0  0.22623  0.92627  0.47738  1.0000
  C   C15       1.0  0.72621  0.47738  0.92626  1.0000
  C   C16       1.0  0.77378  0.07373  0.52262  1.0000
  C   C17       1.0  0.33624  0.60861  0.11163  1.0000
  C   C18       1.0  0.16378  0.88838  0.39138  1.0000
  C   C19       1.0  0.66376  0.39139  0.88837  1.0000
  C   C20       1.0  0.83622  0.11162  0.60862  1.0000
  C   C21       1.0  0.06048  0.71186  0.19812  1.0000
  C   C22       1.0  0.43954  0.80189  0.28814  1.0000
  C   C23       1.0  0.93953  0.28814  0.80188  1.0000
  C   C24       1.0  0.56045  0.19811  0.71186  1.0000
  C   C25       1.0  0.97347  0.81145  0.17264  1.0000
  C   C26       1.0  0.52654  0.82737  0.18855  1.0000
  C   C27       1.0  0.02653  0.18855  0.82736  1.0000
  C   C28       1.0  0.47346  0.17262  0.81145  1.0000
  C   C29       1.0  0.20101  0.79219  0.05271  1.0000
  C   C30       1.0  0.29899  0.94730  0.20781  1.0000
  C   C31       1.0  0.79899  0.20781  0.94729  1.0000
  C   C32       1.0  0.70101  0.05270  0.79219  1.0000
  N   N1        1.0  0.06226  0.86043  0.08156  1.0000
  N   N2        1.0  0.43774  0.91844  0.13957  1.0000
  N   N3        1.0  0.93773  0.13957  0.91844  1.0000
  N   N4        1.0  0.56226  0.08155  0.86042  1.0000
  N   N5        1.0  0.20399  0.70151  0.12176  1.0000
  N   N6        1.0  0.29603  0.87825  0.29849  1.0000
  N   N7        1.0  0.79601  0.29849  0.87823  1.0000
  N   N8        1.0  0.70397  0.12176  0.70151  1.0000
  N   N9        1.0  0.18237  0.38086  0.05551  1.0000
  N   N10       1.0  0.31763  0.94448  0.61914  1.0000
  N   N11       1.0  0.81763  0.61914  0.94449  1.0000
  N   N12       1.0  0.68236  0.05552  0.38086  1.0000
  N   N13       1.0  0.19805  0.44210  0.95939  1.0000
  N   N14       1.0  0.30196  0.04061  0.55791  1.0000
  N   N15       1.0  0.80194  0.55790  0.04062  1.0000
  N   N16       1.0  0.69804  0.95939  0.44209  1.0000
  N   N17       1.0  0.25245  0.52832  0.97074  1.0000
  N   N18       1.0  0.24755  0.02927  0.47169  1.0000
  N   N19       1.0  0.74753  0.47168  0.02926  1.0000
  N   N20       1.0  0.75245  0.97074  0.52831  1.0000
  O   O1        1.0  0.44210  0.21406  0.08808  1.0000
  O   O2        1.0  0.05789  0.91190  0.78594  1.0000
  O   O3        1.0  0.55790  0.78594  0.91191  1.0000
  O   O4        1.0  0.94211  0.08810  0.21407  1.0000
  O   O5        1.0  0.29433  0.10837  0.02850  1.0000
  O   O6        1.0  0.20566  0.97149  0.89163  1.0000
  O   O7        1.0  0.70567  0.89163  0.97150  1.0000
  O   O8        1.0  0.79434  0.02851  0.10837  1.0000
