data_image0
_chemical_formula_structural       Cd2H22C28N4O14
_chemical_formula_sum              "Cd2 H22 C28 N4 O14"
_cell_length_a       8.22727
_cell_length_b       10.251
_cell_length_c       11.0996
_cell_angle_alpha    65.8617
_cell_angle_beta     92.7676
_cell_angle_gamma    75.6868

_space_group_name_H-M_alt    "P 1"
_space_group_IT_number       1

loop_
  _space_group_symop_operation_xyz
  'x, y, z'

loop_
  _atom_site_type_symbol
  _atom_site_label
  _atom_site_symmetry_multiplicity
  _atom_site_fract_x
  _atom_site_fract_y
  _atom_site_fract_z
  _atom_site_occupancy
  Cd  Cd1       1.0  0.22130  0.89174  0.49385  1.0000
  Cd  Cd2       1.0  0.77871  0.10825  0.50617  1.0000
  H   H1        1.0  0.01301  0.51106  0.79458  1.0000
  H   H2        1.0  0.98701  0.48892  0.20544  1.0000
  H   H3        1.0  0.00008  0.08403  0.81436  1.0000
  H   H4        1.0  0.99992  0.91597  0.18563  1.0000
  H   H5        1.0  0.25444  0.35485  0.52520  1.0000
  H   H6        1.0  0.74554  0.64515  0.47477  1.0000
  H   H7        1.0  0.34598  0.22386  0.00864  1.0000
  H   H8        1.0  0.65405  0.77612  0.99137  1.0000
  H   H9        1.0  0.53809  0.74443  0.14869  1.0000
  H   H10       1.0  0.46188  0.25555  0.85129  1.0000
  H   H11       1.0  0.40120  0.71765  0.34613  1.0000
  H   H12       1.0  0.59881  0.28232  0.65387  1.0000
  H   H13       1.0  0.05393  0.19867  0.23683  1.0000
  H   H14       1.0  0.94607  0.80133  0.76317  1.0000
  H   H15       1.0  0.15761  0.32028  0.12472  1.0000
  H   H16       1.0  0.84241  0.67971  0.87528  1.0000
  H   H17       1.0  0.24204  0.22234  0.29802  1.0000
  H   H18       1.0  0.75796  0.77765  0.70198  1.0000
  H   H19       1.0  0.49095  0.65935  0.56938  1.0000
  H   H20       1.0  0.50905  0.34067  0.43061  1.0000
  H   H21       1.0  0.57930  0.79241  0.53379  1.0000
  H   H22       1.0  0.42071  0.20760  0.46620  1.0000
  C   C1        1.0  0.14248  0.44544  0.65426  1.0000
  C   C2        1.0  0.85751  0.55458  0.34574  1.0000
  C   C3        1.0  0.04721  0.42646  0.75760  1.0000
  C   C4        1.0  0.95280  0.57353  0.24241  1.0000
  C   C5        1.0  0.99855  0.29588  0.81328  1.0000
  C   C6        1.0  0.00144  0.70412  0.18671  1.0000
  C   C7        1.0  0.03795  0.18544  0.76766  1.0000
  C   C8        1.0  0.96202  0.81457  0.23232  1.0000
  C   C9        1.0  0.13040  0.20733  0.66201  1.0000
  C   C10       1.0  0.86960  0.79267  0.33797  1.0000
  C   C11       1.0  0.18294  0.33607  0.60742  1.0000
  C   C12       1.0  0.81704  0.66394  0.39257  1.0000
  C   C13       1.0  0.20493  0.58068  0.59252  1.0000
  C   C14       1.0  0.79504  0.41932  0.40750  1.0000
  C   C15       1.0  0.17279  0.09593  0.60538  1.0000
  C   C16       1.0  0.82725  0.90406  0.39462  1.0000
  C   C17       1.0  0.28342  0.08618  0.19281  1.0000
  C   C18       1.0  0.71657  0.91380  0.80720  1.0000
  C   C19       1.0  0.36188  0.10888  0.07993  1.0000
  C   C20       1.0  0.63810  0.89111  0.92007  1.0000
  C   C21       1.0  0.45785  0.98844  0.05942  1.0000
  C   C22       1.0  0.54214  0.01155  0.94057  1.0000
  C   C23       1.0  0.46923  0.84484  0.15682  1.0000
  C   C24       1.0  0.53077  0.15515  0.84319  1.0000
  C   C25       1.0  0.39211  0.82844  0.26817  1.0000
  C   C26       1.0  0.60791  0.17155  0.73183  1.0000
  C   C27       1.0  0.17802  0.21416  0.21346  1.0000
  C   C28       1.0  0.82198  0.78583  0.78654  1.0000
  N   N1        1.0  0.30222  0.94567  0.28716  1.0000
  N   N2        1.0  0.69778  0.05432  0.71284  1.0000
  N   N3        1.0  0.90089  0.27520  0.92428  1.0000
  N   N4        1.0  0.09910  0.72483  0.07571  1.0000
  O   O1        1.0  0.12918  0.69440  0.61126  1.0000
  O   O2        1.0  0.87081  0.30558  0.38877  1.0000
  O   O3        1.0  0.32577  0.57262  0.52743  1.0000
  O   O4        1.0  0.67421  0.42740  0.47257  1.0000
  O   O5        1.0  0.29731  0.09086  0.54226  1.0000
  O   O6        1.0  0.70272  0.90914  0.45775  1.0000
  O   O7        1.0  0.08087  0.00739  0.62109  1.0000
  O   O8        1.0  0.91915  0.99261  0.37892  1.0000
  O   O9        1.0  0.85853  0.37911  0.95743  1.0000
  O   O10       1.0  0.14149  0.62094  0.04255  1.0000
  O   O11       1.0  0.86602  0.15524  0.97807  1.0000
  O   O12       1.0  0.13396  0.84480  0.02194  1.0000
  O   O13       1.0  0.50405  0.74092  0.59110  1.0000
  O   O14       1.0  0.49596  0.25909  0.40890  1.0000
