data_image0
_chemical_formula_structural       Zn4H44C56N8O28
_chemical_formula_sum              "Zn4 H44 C56 N8 O28"
_cell_length_a       8.14136
_cell_length_b       12.4345
_cell_length_c       14.5867
_cell_angle_alpha    90
_cell_angle_beta     90.0001
_cell_angle_gamma    107.285

_space_group_name_H-M_alt    "P 1"
_space_group_IT_number       1

loop_
  _space_group_symop_operation_xyz
  'x, y, z'

loop_
  _atom_site_type_symbol
  _atom_site_label
  _atom_site_symmetry_multiplicity
  _atom_site_fract_x
  _atom_site_fract_y
  _atom_site_fract_z
  _atom_site_occupancy
  Zn  Zn1       1.0  0.81913  0.35034  0.66883  1.0000
  Zn  Zn2       1.0  0.68087  0.64967  0.16883  1.0000
  Zn  Zn3       1.0  0.18087  0.64967  0.33117  1.0000
  Zn  Zn4       1.0  0.31913  0.35033  0.83117  1.0000
  H   H1        1.0  0.15089  0.38164  0.65642  1.0000
  H   H2        1.0  0.34912  0.61836  0.15642  1.0000
  H   H3        1.0  0.84911  0.61835  0.34358  1.0000
  H   H4        1.0  0.65089  0.38165  0.84358  1.0000
  H   H5        1.0  0.14018  0.49750  0.68805  1.0000
  H   H6        1.0  0.35982  0.50250  0.18805  1.0000
  H   H7        1.0  0.85982  0.50250  0.31195  1.0000
  H   H8        1.0  0.64018  0.49750  0.81195  1.0000
  H   H9        1.0  0.30889  0.43096  0.53328  1.0000
  H   H10       1.0  0.19112  0.56904  0.03328  1.0000
  H   H11       1.0  0.69112  0.56904  0.46672  1.0000
  H   H12       1.0  0.80888  0.43096  0.96672  1.0000
  H   H13       1.0  0.37286  0.27033  0.28081  1.0000
  H   H14       1.0  0.12714  0.72967  0.78081  1.0000
  H   H15       1.0  0.62713  0.72967  0.71919  1.0000
  H   H16       1.0  0.87287  0.27033  0.21919  1.0000
  H   H17       1.0  0.49670  0.14050  0.53795  1.0000
  H   H18       1.0  0.00330  0.85950  0.03795  1.0000
  H   H19       1.0  0.50330  0.85950  0.46205  1.0000
  H   H20       1.0  0.99670  0.14050  0.96204  1.0000
  H   H21       1.0  0.80896  0.12214  0.71665  1.0000
  H   H22       1.0  0.69104  0.87787  0.21665  1.0000
  H   H23       1.0  0.19104  0.87786  0.28335  1.0000
  H   H24       1.0  0.30896  0.12214  0.78335  1.0000
  H   H25       1.0  0.91555  0.97159  0.65762  1.0000
  H   H26       1.0  0.58444  0.02841  0.15762  1.0000
  H   H27       1.0  0.08445  0.02841  0.34238  1.0000
  H   H28       1.0  0.41556  0.97159  0.84238  1.0000
  H   H29       1.0  0.99209  0.14528  0.39599  1.0000
  H   H30       1.0  0.50791  0.85472  0.89599  1.0000
  H   H31       1.0  0.00791  0.85472  0.60400  1.0000
  H   H32       1.0  0.49209  0.14528  0.10401  1.0000
  H   H33       1.0  0.76724  0.33873  0.46226  1.0000
  H   H34       1.0  0.73276  0.66128  0.96226  1.0000
  H   H35       1.0  0.23276  0.66128  0.53774  1.0000
  H   H36       1.0  0.26724  0.33873  0.03774  1.0000
  H   H37       1.0  0.91071  0.31049  0.37994  1.0000
  H   H38       1.0  0.58929  0.68951  0.87994  1.0000
  H   H39       1.0  0.08929  0.68951  0.62006  1.0000
  H   H40       1.0  0.41071  0.31049  0.12006  1.0000
  H   H41       1.0  0.99048  0.39796  0.47640  1.0000
  H   H42       1.0  0.50952  0.60204  0.97640  1.0000
  H   H43       1.0  0.00952  0.60204  0.52360  1.0000
  H   H44       1.0  0.49048  0.39796  0.02360  1.0000
  C   C1        1.0  0.41846  0.29061  0.64946  1.0000
  C   C2        1.0  0.08154  0.70939  0.14946  1.0000
  C   C3        1.0  0.58154  0.70939  0.35054  1.0000
  C   C4        1.0  0.91846  0.29061  0.85054  1.0000
  C   C5        1.0  0.40165  0.28530  0.54691  1.0000
  C   C6        1.0  0.09835  0.71471  0.04691  1.0000
  C   C7        1.0  0.59835  0.71471  0.45309  1.0000
  C   C8        1.0  0.90165  0.28529  0.95308  1.0000
  C   C9        1.0  0.34473  0.36427  0.49765  1.0000
  C   C10       1.0  0.15527  0.63573  0.99765  1.0000
  C   C11       1.0  0.65527  0.63574  0.50235  1.0000
  C   C12       1.0  0.84473  0.36426  0.00235  1.0000
  C   C13       1.0  0.33404  0.35907  0.40192  1.0000
  C   C14       1.0  0.16596  0.64093  0.90192  1.0000
  C   C15       1.0  0.66596  0.64093  0.59808  1.0000
  C   C16       1.0  0.83404  0.35907  0.09808  1.0000
  C   C17       1.0  0.38064  0.27470  0.35507  1.0000
  C   C18       1.0  0.11936  0.72530  0.85507  1.0000
  C   C19       1.0  0.61935  0.72530  0.64493  1.0000
  C   C20       1.0  0.88065  0.27470  0.14493  1.0000
  C   C21       1.0  0.43926  0.19818  0.40502  1.0000
  C   C22       1.0  0.06073  0.80182  0.90502  1.0000
  C   C23       1.0  0.56073  0.80182  0.59499  1.0000
  C   C24       1.0  0.93927  0.19818  0.09498  1.0000
  C   C25       1.0  0.45080  0.20152  0.50041  1.0000
  C   C26       1.0  0.04920  0.79848  0.00041  1.0000
  C   C27       1.0  0.54920  0.79848  0.49959  1.0000
  C   C28       1.0  0.95080  0.20152  0.99959  1.0000
  C   C29       1.0  0.27219  0.44168  0.34657  1.0000
  C   C30       1.0  0.22781  0.55832  0.84657  1.0000
  C   C31       1.0  0.72780  0.55832  0.65343  1.0000
  C   C32       1.0  0.77219  0.44167  0.15343  1.0000
  C   C33       1.0  0.85266  0.12472  0.64602  1.0000
  C   C34       1.0  0.64734  0.87528  0.14602  1.0000
  C   C35       1.0  0.14734  0.87528  0.35398  1.0000
  C   C36       1.0  0.35266  0.12472  0.85398  1.0000
  C   C37       1.0  0.91123  0.03920  0.61140  1.0000
  C   C38       1.0  0.58876  0.96080  0.11140  1.0000
  C   C39       1.0  0.08876  0.96080  0.38860  1.0000
  C   C40       1.0  0.41124  0.03920  0.88860  1.0000
  C   C41       1.0  0.96678  0.04426  0.51993  1.0000
  C   C42       1.0  0.53322  0.95574  0.01993  1.0000
  C   C43       1.0  0.03322  0.95574  0.48007  1.0000
  C   C44       1.0  0.46678  0.04426  0.98007  1.0000
  C   C45       1.0  0.95582  0.13672  0.46799  1.0000
  C   C46       1.0  0.54418  0.86328  0.96799  1.0000
  C   C47       1.0  0.04417  0.86328  0.53201  1.0000
  C   C48       1.0  0.45582  0.13672  0.03201  1.0000
  C   C49       1.0  0.89847  0.22159  0.50714  1.0000
  C   C50       1.0  0.60154  0.77842  0.00714  1.0000
  C   C51       1.0  0.10153  0.77841  0.49286  1.0000
  C   C52       1.0  0.39847  0.22159  0.99286  1.0000
  C   C53       1.0  0.89114  0.32210  0.45311  1.0000
  C   C54       1.0  0.60886  0.67791  0.95311  1.0000
  C   C55       1.0  0.10886  0.67790  0.54689  1.0000
  C   C56       1.0  0.39114  0.32210  0.04689  1.0000
  N   N1        1.0  0.49474  0.11294  0.35462  1.0000
  N   N2        1.0  0.00526  0.88706  0.85462  1.0000
  N   N3        1.0  0.50525  0.88706  0.64538  1.0000
  N   N4        1.0  0.99474  0.11294  0.14538  1.0000
  N   N5        1.0  0.84945  0.21546  0.59631  1.0000
  N   N6        1.0  0.65055  0.78454  0.09631  1.0000
  N   N7        1.0  0.15055  0.78454  0.40369  1.0000
  N   N8        1.0  0.34946  0.21546  0.90369  1.0000
  O   O1        1.0  0.53133  0.25592  0.68744  1.0000
  O   O2        1.0  0.96867  0.74408  0.18744  1.0000
  O   O3        1.0  0.46867  0.74408  0.31256  1.0000
  O   O4        1.0  0.03133  0.25592  0.81255  1.0000
  O   O5        1.0  0.31153  0.33062  0.69336  1.0000
  O   O6        1.0  0.18847  0.66938  0.19336  1.0000
  O   O7        1.0  0.68847  0.66938  0.30664  1.0000
  O   O8        1.0  0.81153  0.33062  0.80664  1.0000
  O   O9        1.0  0.26182  0.52967  0.38982  1.0000
  O   O10       1.0  0.23818  0.47033  0.88982  1.0000
  O   O11       1.0  0.73818  0.47033  0.61018  1.0000
  O   O12       1.0  0.76182  0.52967  0.11018  1.0000
  O   O13       1.0  0.23530  0.41928  0.26356  1.0000
  O   O14       1.0  0.26470  0.58072  0.76356  1.0000
  O   O15       1.0  0.76469  0.58072  0.73644  1.0000
  O   O16       1.0  0.73530  0.41928  0.23644  1.0000
  O   O17       1.0  0.46777  0.10544  0.27051  1.0000
  O   O18       1.0  0.03223  0.89456  0.77052  1.0000
  O   O19       1.0  0.53223  0.89456  0.72949  1.0000
  O   O20       1.0  0.96777  0.10544  0.22948  1.0000
  O   O21       1.0  0.56520  0.05306  0.39798  1.0000
  O   O22       1.0  0.93479  0.94693  0.89798  1.0000
  O   O23       1.0  0.43478  0.94693  0.60203  1.0000
  O   O24       1.0  0.06521  0.05306  0.10202  1.0000
  O   O25       1.0  0.08013  0.43377  0.64647  1.0000
  O   O26       1.0  0.41987  0.56623  0.14647  1.0000
  O   O27       1.0  0.91987  0.56623  0.35353  1.0000
  O   O28       1.0  0.58013  0.43377  0.85353  1.0000
