data_image0
_chemical_formula_structural       U2H38C46N2O14
_chemical_formula_sum              "U2 H38 C46 N2 O14"
_cell_length_a       9.6583
_cell_length_b       10.5276
_cell_length_c       12.8157
_cell_angle_alpha    74.8556
_cell_angle_beta     86.6445
_cell_angle_gamma    72.1079

_space_group_name_H-M_alt    "P 1"
_space_group_IT_number       1

loop_
  _space_group_symop_operation_xyz
  'x, y, z'

loop_
  _atom_site_type_symbol
  _atom_site_label
  _atom_site_symmetry_multiplicity
  _atom_site_fract_x
  _atom_site_fract_y
  _atom_site_fract_z
  _atom_site_occupancy
  U   U1        1.0  0.22952  0.29394  0.95715  1.0000
  U   U2        1.0  0.77048  0.70607  0.04284  1.0000
  H   H1        1.0  0.16605  0.07733  0.66040  1.0000
  H   H2        1.0  0.83395  0.92268  0.33959  1.0000
  H   H3        1.0  0.26060  0.92732  0.53678  1.0000
  H   H4        1.0  0.73939  0.07269  0.46321  1.0000
  H   H5        1.0  0.68854  0.80554  0.68396  1.0000
  H   H6        1.0  0.31145  0.19447  0.31604  1.0000
  H   H7        1.0  0.59472  0.96197  0.80052  1.0000
  H   H8        1.0  0.40527  0.03803  0.19947  1.0000
  H   H9        1.0  0.33446  0.76880  0.46930  1.0000
  H   H10       1.0  0.66553  0.23120  0.53069  1.0000
  H   H11       1.0  0.70498  0.54121  0.32101  1.0000
  H   H12       1.0  0.29503  0.45878  0.67900  1.0000
  H   H13       1.0  0.86863  0.59003  0.43543  1.0000
  H   H14       1.0  0.13137  0.40998  0.56459  1.0000
  H   H15       1.0  0.76940  0.73480  0.56107  1.0000
  H   H16       1.0  0.23059  0.26523  0.43892  1.0000
  H   H17       1.0  0.22799  0.80690  0.31704  1.0000
  H   H18       1.0  0.77201  0.19309  0.68296  1.0000
  H   H19       1.0  0.06643  0.75512  0.20188  1.0000
  H   H20       1.0  0.93357  0.24488  0.79812  1.0000
  H   H21       1.0  0.40599  0.38810  0.17829  1.0000
  H   H22       1.0  0.59400  0.61191  0.82170  1.0000
  H   H23       1.0  0.56613  0.43524  0.29760  1.0000
  H   H24       1.0  0.43388  0.56476  0.70239  1.0000
  H   H25       1.0  0.61152  0.11857  0.95720  1.0000
  H   H26       1.0  0.38850  0.88140  0.04281  1.0000
  H   H27       1.0  0.84376  0.03710  0.98807  1.0000
  H   H28       1.0  0.15626  0.96289  0.01193  1.0000
  H   H29       1.0  0.89807  0.03553  0.11903  1.0000
  H   H30       1.0  0.10194  0.96446  0.88098  1.0000
  H   H31       1.0  0.93060  0.16017  0.00333  1.0000
  H   H32       1.0  0.06941  0.83982  0.99667  1.0000
  H   H33       1.0  0.61993  0.39185  0.08185  1.0000
  H   H34       1.0  0.38008  0.60815  0.91814  1.0000
  H   H35       1.0  0.80979  0.31535  0.11315  1.0000
  H   H36       1.0  0.19022  0.68465  0.88684  1.0000
  H   H37       1.0  0.68049  0.25163  0.19909  1.0000
  H   H38       1.0  0.31951  0.74838  0.80091  1.0000
  C   C1        1.0  0.32113  0.12405  0.80968  1.0000
  C   C2        1.0  0.67887  0.87596  0.19031  1.0000
  C   C3        1.0  0.37425  0.03085  0.73767  1.0000
  C   C4        1.0  0.62574  0.96916  0.26232  1.0000
  C   C5        1.0  0.28077  0.01737  0.66437  1.0000
  C   C6        1.0  0.71922  0.98264  0.33561  1.0000
  C   C7        1.0  0.33486  0.93165  0.59561  1.0000
  C   C8        1.0  0.66513  0.06837  0.40439  1.0000
  C   C9        1.0  0.48327  0.85443  0.59873  1.0000
  C   C10       1.0  0.51672  0.14558  0.40127  1.0000
  C   C11       1.0  0.57430  0.86660  0.67521  1.0000
  C   C12       1.0  0.42570  0.13341  0.32479  1.0000
  C   C13       1.0  0.52181  0.95418  0.74240  1.0000
  C   C14       1.0  0.47818  0.04582  0.25760  1.0000
  C   C15       1.0  0.54301  0.76521  0.52434  1.0000
  C   C16       1.0  0.45698  0.23480  0.47566  1.0000
  C   C17       1.0  0.45187  0.73285  0.46056  1.0000
  C   C18       1.0  0.54812  0.26715  0.53944  1.0000
  C   C19       1.0  0.50696  0.65218  0.38724  1.0000
  C   C20       1.0  0.49304  0.34782  0.61277  1.0000
  C   C21       1.0  0.65883  0.59938  0.38019  1.0000
  C   C22       1.0  0.34117  0.40062  0.61982  1.0000
  C   C23       1.0  0.75105  0.62834  0.44395  1.0000
  C   C24       1.0  0.24894  0.37167  0.55606  1.0000
  C   C25       1.0  0.69441  0.71075  0.51467  1.0000
  C   C26       1.0  0.30558  0.28926  0.48533  1.0000
  C   C27       1.0  0.40932  0.62390  0.31766  1.0000
  C   C28       1.0  0.59069  0.37610  0.68235  1.0000
  C   C29       1.0  0.26704  0.71296  0.28904  1.0000
  C   C30       1.0  0.73297  0.28703  0.71097  1.0000
  C   C31       1.0  0.17644  0.68584  0.22286  1.0000
  C   C32       1.0  0.82355  0.31416  0.77715  1.0000
  C   C33       1.0  0.22671  0.56801  0.18256  1.0000
  C   C34       1.0  0.77329  0.43199  0.81744  1.0000
  C   C35       1.0  0.36804  0.47885  0.21013  1.0000
  C   C36       1.0  0.63197  0.52114  0.78987  1.0000
  C   C37       1.0  0.45740  0.50665  0.27635  1.0000
  C   C38       1.0  0.54260  0.49336  0.72365  1.0000
  C   C39       1.0  0.13570  0.53816  0.10857  1.0000
  C   C40       1.0  0.86429  0.46184  0.89143  1.0000
  C   C41       1.0  0.59509  0.19395  0.00558  1.0000
  C   C42       1.0  0.40492  0.80603  0.99442  1.0000
  C   C43       1.0  0.85529  0.10210  0.03916  1.0000
  C   C44       1.0  0.14472  0.89789  0.96084  1.0000
  C   C45       1.0  0.70518  0.29501  0.11489  1.0000
  C   C46       1.0  0.29483  0.70498  0.88511  1.0000
  N   N1        1.0  0.71340  0.19805  0.05017  1.0000
  N   N2        1.0  0.28662  0.80194  0.94983  1.0000
  O   O1        1.0  0.18541  0.18737  0.81568  1.0000
  O   O2        1.0  0.81459  0.81264  0.18432  1.0000
  O   O3        1.0  0.41241  0.14130  0.86963  1.0000
  O   O4        1.0  0.58758  0.85869  0.13037  1.0000
  O   O5        1.0  0.01923  0.63215  0.06714  1.0000
  O   O6        1.0  0.98077  0.36785  0.93286  1.0000
  O   O7        1.0  0.17808  0.42106  0.08637  1.0000
  O   O8        1.0  0.82193  0.57894  0.91363  1.0000
  O   O9        1.0  0.23548  0.44635  0.85318  1.0000
  O   O10       1.0  0.76451  0.55366  0.14683  1.0000
  O   O11       1.0  0.21727  0.14248  0.06081  1.0000
  O   O12       1.0  0.78272  0.85753  0.93918  1.0000
  O   O13       1.0  0.46875  0.27153  0.01704  1.0000
  O   O14       1.0  0.53126  0.72845  0.98296  1.0000
