data_image0
_chemical_formula_structural       Zn2H28C30N2O10
_chemical_formula_sum              "Zn2 H28 C30 N2 O10"
_cell_length_a       8.04399
_cell_length_b       9.8194
_cell_length_c       11.2657
_cell_angle_alpha    66.0982
_cell_angle_beta     67.1937
_cell_angle_gamma    64.617

_space_group_name_H-M_alt    "P 1"
_space_group_IT_number       1

loop_
  _space_group_symop_operation_xyz
  'x, y, z'

loop_
  _atom_site_type_symbol
  _atom_site_label
  _atom_site_symmetry_multiplicity
  _atom_site_fract_x
  _atom_site_fract_y
  _atom_site_fract_z
  _atom_site_occupancy
  Zn  Zn1       1.0  0.84588  0.43049  0.91770  1.0000
  Zn  Zn2       1.0  0.15412  0.56951  0.08230  1.0000
  H   H1        1.0  0.14048  0.06959  0.01191  1.0000
  H   H2        1.0  0.85953  0.93041  0.98809  1.0000
  H   H3        1.0  0.60776  0.86737  0.71690  1.0000
  H   H4        1.0  0.39224  0.13264  0.28310  1.0000
  H   H5        1.0  0.59790  0.26683  0.79225  1.0000
  H   H6        1.0  0.40210  0.73317  0.20775  1.0000
  H   H7        1.0  0.89696  0.10583  0.66253  1.0000
  H   H8        1.0  0.10304  0.89417  0.33746  1.0000
  H   H9        1.0  0.79553  0.12760  0.53901  1.0000
  H   H10       1.0  0.20445  0.87240  0.46099  1.0000
  H   H11       1.0  0.89788  0.93723  0.63929  1.0000
  H   H12       1.0  0.10212  0.06277  0.36071  1.0000
  H   H13       1.0  0.37263  0.33127  0.48450  1.0000
  H   H14       1.0  0.62737  0.66873  0.51550  1.0000
  H   H15       1.0  0.36905  0.67152  0.63896  1.0000
  H   H16       1.0  0.63095  0.32847  0.36104  1.0000
  H   H17       1.0  0.06848  0.64790  0.79869  1.0000
  H   H18       1.0  0.93152  0.35210  0.20131  1.0000
  H   H19       1.0  0.03996  0.19699  0.75011  1.0000
  H   H20       1.0  0.96004  0.80301  0.24989  1.0000
  H   H21       1.0  0.11440  0.23949  0.57128  1.0000
  H   H22       1.0  0.88560  0.76052  0.42871  1.0000
  H   H23       1.0  0.89221  0.35886  0.65264  1.0000
  H   H24       1.0  0.10779  0.64115  0.34736  1.0000
  H   H25       1.0  0.53268  0.60432  0.81212  1.0000
  H   H26       1.0  0.46732  0.39567  0.18788  1.0000
  H   H27       1.0  0.54190  0.43111  0.88432  1.0000
  H   H28       1.0  0.45811  0.56888  0.11568  1.0000
  C   C1        1.0  0.35471  0.18502  0.90648  1.0000
  C   C2        1.0  0.64529  0.81498  0.09352  1.0000
  C   C3        1.0  0.27475  0.06934  0.93599  1.0000
  C   C4        1.0  0.72526  0.93066  0.06402  1.0000
  C   C5        1.0  0.36608  0.95522  0.86764  1.0000
  C   C6        1.0  0.63392  0.04479  0.13235  1.0000
  C   C7        1.0  0.53798  0.95742  0.76951  1.0000
  C   C8        1.0  0.46202  0.04258  0.23049  1.0000
  C   C9        1.0  0.62475  0.06685  0.74268  1.0000
  C   C10       1.0  0.37524  0.93316  0.25732  1.0000
  C   C11       1.0  0.53173  0.18068  0.81248  1.0000
  C   C12       1.0  0.46827  0.81932  0.18752  1.0000
  C   C13       1.0  0.24034  0.31000  0.97709  1.0000
  C   C14       1.0  0.75967  0.68999  0.02291  1.0000
  C   C15       1.0  0.29295  0.82356  0.90092  1.0000
  C   C16       1.0  0.70706  0.17643  0.09908  1.0000
  C   C17       1.0  0.81390  0.05918  0.64077  1.0000
  C   C18       1.0  0.18609  0.94082  0.35922  1.0000
  C   C19       1.0  0.13847  0.39643  0.64684  1.0000
  C   C20       1.0  0.86153  0.60357  0.35315  1.0000
  C   C21       1.0  0.31124  0.40421  0.55207  1.0000
  C   C22       1.0  0.68875  0.59580  0.44793  1.0000
  C   C23       1.0  0.40524  0.49935  0.54643  1.0000
  C   C24       1.0  0.59475  0.50065  0.45359  1.0000
  C   C25       1.0  0.31078  0.59281  0.63443  1.0000
  C   C26       1.0  0.68922  0.40718  0.36557  1.0000
  C   C27       1.0  0.13905  0.58124  0.72559  1.0000
  C   C28       1.0  0.86095  0.41876  0.27441  1.0000
  C   C29       1.0  0.04142  0.29193  0.65483  1.0000
  C   C30       1.0  0.95858  0.70807  0.34516  1.0000
  N   N1        1.0  0.05524  0.48222  0.73589  1.0000
  N   N2        1.0  0.94476  0.51777  0.26410  1.0000
  O   O1        1.0  0.32165  0.38983  0.99003  1.0000
  O   O2        1.0  0.67835  0.61016  0.00998  1.0000
  O   O3        1.0  0.06296  0.33243  0.02339  1.0000
  O   O4        1.0  0.93704  0.66757  0.97661  1.0000
  O   O5        1.0  0.18759  0.78409  0.02038  1.0000
  O   O6        1.0  0.81242  0.21591  0.97962  1.0000
  O   O7        1.0  0.34392  0.75489  0.81266  1.0000
  O   O8        1.0  0.65609  0.24511  0.18734  1.0000
  O   O9        1.0  0.62702  0.49492  0.82414  1.0000
  O   O10       1.0  0.37298  0.50508  0.17586  1.0000
