data_image0
_chemical_formula_structural       Zn2H44C56N4O16
_chemical_formula_sum              "Zn2 H44 C56 N4 O16"
_cell_length_a       8.72977
_cell_length_b       11.4795
_cell_length_c       14.3698
_cell_angle_alpha    69.9037
_cell_angle_beta     72.3019
_cell_angle_gamma    67.6807

_space_group_name_H-M_alt    "P 1"
_space_group_IT_number       1

loop_
  _space_group_symop_operation_xyz
  'x, y, z'

loop_
  _atom_site_type_symbol
  _atom_site_label
  _atom_site_symmetry_multiplicity
  _atom_site_fract_x
  _atom_site_fract_y
  _atom_site_fract_z
  _atom_site_occupancy
  Zn  Zn1       1.0  0.42479  0.25001  0.74998  1.0000
  Zn  Zn2       1.0  0.57521  0.74999  0.25002  1.0000
  H   H1        1.0  0.24229  0.87642  0.74631  1.0000
  H   H2        1.0  0.86524  0.62381  0.75383  1.0000
  H   H3        1.0  0.75771  0.12358  0.25369  1.0000
  H   H4        1.0  0.13476  0.37619  0.24617  1.0000
  H   H5        1.0  0.05782  0.64978  0.03830  1.0000
  H   H6        1.0  0.74588  0.85002  0.46191  1.0000
  H   H7        1.0  0.94219  0.35022  0.96170  1.0000
  H   H8        1.0  0.25412  0.14998  0.53809  1.0000
  H   H9        1.0  0.09861  0.79038  0.12062  1.0000
  H   H10       1.0  0.00950  0.70936  0.37955  1.0000
  H   H11       1.0  0.90139  0.20962  0.87938  1.0000
  H   H12       1.0  0.99050  0.29064  0.62045  1.0000
  H   H13       1.0  0.21274  0.97588  0.01399  1.0000
  H   H14       1.0  0.20267  0.52431  0.48609  1.0000
  H   H15       1.0  0.78727  0.02412  0.98601  1.0000
  H   H16       1.0  0.79733  0.47569  0.51391  1.0000
  H   H17       1.0  0.59331  0.58732  0.82585  1.0000
  H   H18       1.0  0.00646  0.91271  0.67414  1.0000
  H   H19       1.0  0.40669  0.41268  0.17416  1.0000
  H   H20       1.0  0.99354  0.08729  0.32586  1.0000
  H   H21       1.0  0.38393  0.32280  0.08632  1.0000
  H   H22       1.0  0.79306  0.17693  0.41376  1.0000
  H   H23       1.0  0.61607  0.67720  0.91368  1.0000
  H   H24       1.0  0.20694  0.82307  0.58623  1.0000
  H   H25       1.0  0.36292  0.22064  0.96715  1.0000
  H   H26       1.0  0.55086  0.27907  0.53297  1.0000
  H   H27       1.0  0.63709  0.77936  0.03285  1.0000
  H   H28       1.0  0.44914  0.72093  0.46703  1.0000
  H   H29       1.0  0.63108  0.40268  0.65257  1.0000
  H   H30       1.0  0.68634  0.09722  0.84749  1.0000
  H   H31       1.0  0.36892  0.59733  0.34743  1.0000
  H   H32       1.0  0.31366  0.90278  0.15251  1.0000
  H   H33       1.0  0.67179  0.53745  0.66470  1.0000
  H   H34       1.0  0.87384  0.96251  0.83530  1.0000
  H   H35       1.0  0.32820  0.46255  0.33530  1.0000
  H   H36       1.0  0.12616  0.03749  0.16470  1.0000
  H   H37       1.0  0.46625  0.55180  0.65548  1.0000
  H   H38       1.0  0.67347  0.94803  0.84460  1.0000
  H   H39       1.0  0.53375  0.44820  0.34452  1.0000
  H   H40       1.0  0.32653  0.05197  0.15540  1.0000
  H   H41       1.0  0.07757  0.51808  0.84756  1.0000
  H   H42       1.0  0.44363  0.98186  0.65254  1.0000
  H   H43       1.0  0.92244  0.48192  0.15244  1.0000
  H   H44       1.0  0.55637  0.01814  0.34746  1.0000
  C   C1        1.0  0.23278  0.93852  0.87402  1.0000
  C   C2        1.0  0.04545  0.56165  0.62610  1.0000
  C   C3        1.0  0.76723  0.06148  0.12597  1.0000
  C   C4        1.0  0.95455  0.43835  0.37390  1.0000
  C   C5        1.0  0.21063  0.85854  0.82820  1.0000
  C   C6        1.0  0.89757  0.64160  0.67194  1.0000
  C   C7        1.0  0.78937  0.14146  0.17180  1.0000
  C   C8        1.0  0.10243  0.35840  0.32806  1.0000
  C   C9        1.0  0.14931  0.75408  0.88655  1.0000
  C   C10       1.0  0.79021  0.74598  0.61361  1.0000
  C   C11       1.0  0.85069  0.24592  0.11345  1.0000
  C   C12       1.0  0.20979  0.25402  0.38639  1.0000
  C   C13       1.0  0.10771  0.72996  0.99239  1.0000
  C   C14       1.0  0.83010  0.76999  0.50778  1.0000
  C   C15       1.0  0.89229  0.27004  0.00761  1.0000
  C   C16       1.0  0.16990  0.23001  0.49223  1.0000
  C   C17       1.0  0.13120  0.80927  0.03842  1.0000
  C   C18       1.0  0.97884  0.69065  0.46173  1.0000
  C   C19       1.0  0.86880  0.19073  0.96158  1.0000
  C   C20       1.0  0.02116  0.30935  0.53827  1.0000
  C   C21       1.0  0.19444  0.91244  0.97969  1.0000
  C   C22       1.0  0.08661  0.58768  0.52044  1.0000
  C   C23       1.0  0.80556  0.08756  0.02031  1.0000
  C   C24       1.0  0.91339  0.41232  0.47956  1.0000
  C   C25       1.0  0.29758  0.04975  0.80959  1.0000
  C   C26       1.0  0.15684  0.45035  0.69052  1.0000
  C   C27       1.0  0.70242  0.95025  0.19041  1.0000
  C   C28       1.0  0.84316  0.54966  0.30948  1.0000
  C   C29       1.0  0.13537  0.67089  0.83153  1.0000
  C   C30       1.0  0.63820  0.82922  0.66860  1.0000
  C   C31       1.0  0.86463  0.32911  0.16847  1.0000
  C   C32       1.0  0.36180  0.17078  0.33140  1.0000
  C   C33       1.0  0.52995  0.44105  0.79899  1.0000
  C   C34       1.0  0.77008  0.05888  0.70107  1.0000
  C   C35       1.0  0.47005  0.55895  0.20101  1.0000
  C   C36       1.0  0.22992  0.94111  0.29893  1.0000
  C   C37       1.0  0.54362  0.50514  0.86146  1.0000
  C   C38       1.0  0.91027  0.99485  0.63855  1.0000
  C   C39       1.0  0.45638  0.49486  0.13855  1.0000
  C   C40       1.0  0.08973  0.00514  0.36145  1.0000
  C   C41       1.0  0.49211  0.46634  0.96672  1.0000
  C   C42       1.0  0.92520  0.03361  0.53331  1.0000
  C   C43       1.0  0.50789  0.53366  0.03329  1.0000
  C   C44       1.0  0.07480  0.96639  0.46669  1.0000
  C   C45       1.0  0.42532  0.36141  0.00566  1.0000
  C   C46       1.0  0.79244  0.13842  0.49440  1.0000
  C   C47       1.0  0.57468  0.63859  0.99434  1.0000
  C   C48       1.0  0.20756  0.86158  0.50560  1.0000
  C   C49       1.0  0.41492  0.30172  0.93977  1.0000
  C   C50       1.0  0.65651  0.19805  0.56035  1.0000
  C   C51       1.0  0.58508  0.69828  0.06023  1.0000
  C   C52       1.0  0.34349  0.80195  0.43965  1.0000
  C   C53       1.0  0.57882  0.48534  0.68659  1.0000
  C   C54       1.0  0.75069  0.01457  0.81345  1.0000
  C   C55       1.0  0.42118  0.51466  0.31341  1.0000
  C   C56       1.0  0.24931  0.98543  0.18655  1.0000
  N   N1        1.0  0.46682  0.33920  0.83859  1.0000
  N   N2        1.0  0.64471  0.16067  0.66150  1.0000
  N   N3        1.0  0.53318  0.66080  0.16142  1.0000
  N   N4        1.0  0.35529  0.83933  0.33850  1.0000
  O   O1        1.0  0.33441  0.11217  0.85483  1.0000
  O   O2        1.0  0.30147  0.38810  0.64530  1.0000
  O   O3        1.0  0.66559  0.88783  0.14517  1.0000
  O   O4        1.0  0.69854  0.61190  0.35470  1.0000
  O   O5        1.0  0.31357  0.08034  0.71430  1.0000
  O   O6        1.0  0.10773  0.41955  0.78577  1.0000
  O   O7        1.0  0.68643  0.91966  0.28570  1.0000
  O   O8        1.0  0.89227  0.58046  0.21422  1.0000
  O   O9        1.0  0.18132  0.68951  0.73861  1.0000
  O   O10       1.0  0.60977  0.81078  0.76151  1.0000
  O   O11       1.0  0.81868  0.31049  0.26139  1.0000
  O   O12       1.0  0.39023  0.18922  0.23849  1.0000
  O   O13       1.0  0.07150  0.57532  0.89063  1.0000
  O   O14       1.0  0.53789  0.92462  0.60948  1.0000
  O   O15       1.0  0.92850  0.42468  0.10937  1.0000
  O   O16       1.0  0.46211  0.07538  0.39052  1.0000
