data_image0
_chemical_formula_structural       SnP2H30C28O4
_chemical_formula_sum              "Sn1 P2 H30 C28 O4"
_cell_length_a       5.53863
_cell_length_b       9.96419
_cell_length_c       12.3144
_cell_angle_alpha    80.4695
_cell_angle_beta     76.9822
_cell_angle_gamma    73.1533

_space_group_name_H-M_alt    "P 1"
_space_group_IT_number       1

loop_
  _space_group_symop_operation_xyz
  'x, y, z'

loop_
  _atom_site_type_symbol
  _atom_site_label
  _atom_site_symmetry_multiplicity
  _atom_site_fract_x
  _atom_site_fract_y
  _atom_site_fract_z
  _atom_site_occupancy
  Sn  Sn1       1.0  1.00000  0.00000  0.00000  1.0000
  P   P1        1.0  0.36237  0.07255  0.17720  1.0000
  P   P2        1.0  0.63764  0.92744  0.82281  1.0000
  H   H1        1.0  0.23595  0.74161  0.07433  1.0000
  H   H2        1.0  0.76403  0.25840  0.92568  1.0000
  H   H3        1.0  0.95514  0.80997  0.17273  1.0000
  H   H4        1.0  0.04479  0.19005  0.82728  1.0000
  H   H5        1.0  0.91049  0.59837  0.10057  1.0000
  H   H6        1.0  0.08949  0.40164  0.89941  1.0000
  H   H7        1.0  0.95983  0.67897  0.96082  1.0000
  H   H8        1.0  0.04016  0.32105  0.03918  1.0000
  H   H9        1.0  0.68080  0.75242  0.05671  1.0000
  H   H10       1.0  0.31918  0.24758  0.94329  1.0000
  H   H11       1.0  0.89369  0.22446  0.31912  1.0000
  H   H12       1.0  0.10634  0.77554  0.68086  1.0000
  H   H13       1.0  0.75946  0.46523  0.37983  1.0000
  H   H14       1.0  0.24053  0.53476  0.62018  1.0000
  H   H15       1.0  0.05250  0.62026  0.32489  1.0000
  H   H16       1.0  0.94748  0.37975  0.67512  1.0000
  H   H17       1.0  0.48841  0.53525  0.20820  1.0000
  H   H18       1.0  0.51157  0.46475  0.79180  1.0000
  H   H19       1.0  0.62181  0.29490  0.14554  1.0000
  H   H20       1.0  0.37820  0.70509  0.85445  1.0000
  H   H21       1.0  0.20456  0.82079  0.28239  1.0000
  H   H22       1.0  0.79544  0.17921  0.71761  1.0000
  H   H23       1.0  0.33077  0.64398  0.44215  1.0000
  H   H24       1.0  0.66924  0.35601  0.55784  1.0000
  H   H25       1.0  0.65352  0.67123  0.54415  1.0000
  H   H26       1.0  0.34650  0.32875  0.45583  1.0000
  H   H27       1.0  0.85202  0.87119  0.48363  1.0000
  H   H28       1.0  0.14800  0.12879  0.51638  1.0000
  H   H29       1.0  0.73252  0.04380  0.32159  1.0000
  H   H30       1.0  0.26751  0.95620  0.67843  1.0000
  C   C1        1.0  0.02846  0.79057  0.08470  1.0000
  C   C2        1.0  0.97153  0.20945  0.91530  1.0000
  C   C3        1.0  0.88716  0.70072  0.04849  1.0000
  C   C4        1.0  0.11281  0.29929  0.95151  1.0000
  C   C5        1.0  0.02531  0.29174  0.29579  1.0000
  C   C6        1.0  0.97469  0.70825  0.70420  1.0000
  C   C7        1.0  0.94969  0.42674  0.32997  1.0000
  C   C8        1.0  0.05029  0.57325  0.67003  1.0000
  C   C9        1.0  0.11578  0.51437  0.29872  1.0000
  C   C10       1.0  0.88420  0.48562  0.70128  1.0000
  C   C11       1.0  0.35855  0.46703  0.23316  1.0000
  C   C12       1.0  0.64146  0.53297  0.76685  1.0000
  C   C13       1.0  0.43455  0.33215  0.19836  1.0000
  C   C14       1.0  0.56546  0.66786  0.80164  1.0000
  C   C15       1.0  0.26800  0.24393  0.22917  1.0000
  C   C16       1.0  0.73200  0.75609  0.77083  1.0000
  C   C17       1.0  0.34774  0.82995  0.32656  1.0000
  C   C18       1.0  0.65227  0.17006  0.67343  1.0000
  C   C19       1.0  0.41863  0.73180  0.41636  1.0000
  C   C20       1.0  0.58139  0.26821  0.58364  1.0000
  C   C21       1.0  0.59921  0.74673  0.47324  1.0000
  C   C22       1.0  0.40081  0.25327  0.52676  1.0000
  C   C23       1.0  0.71185  0.85920  0.43898  1.0000
  C   C24       1.0  0.28817  0.14080  0.56102  1.0000
  C   C25       1.0  0.64304  0.95680  0.34875  1.0000
  C   C26       1.0  0.35697  0.04320  0.65125  1.0000
  C   C27       1.0  0.45837  0.94352  0.29255  1.0000
  C   C28       1.0  0.54164  0.05648  0.70745  1.0000
  O   O1        1.0  0.12553  0.04603  0.14986  1.0000
  O   O2        1.0  0.87447  0.95396  0.85016  1.0000
  O   O3        1.0  0.40801  0.92682  0.91740  1.0000
  O   O4        1.0  0.59197  0.07317  0.08258  1.0000
