data_image0
_chemical_formula_structural       K2Cu2P2H28C32O12F12
_chemical_formula_sum              "K2 Cu2 P2 H28 C32 O12 F12"
_cell_length_a       8.56293
_cell_length_b       9.32506
_cell_length_c       12.6016
_cell_angle_alpha    91.1163
_cell_angle_beta     72.9514
_cell_angle_gamma    84.1527

_space_group_name_H-M_alt    "P 1"
_space_group_IT_number       1

loop_
  _space_group_symop_operation_xyz
  'x, y, z'

loop_
  _atom_site_type_symbol
  _atom_site_label
  _atom_site_symmetry_multiplicity
  _atom_site_fract_x
  _atom_site_fract_y
  _atom_site_fract_z
  _atom_site_occupancy
  K   K1        1.0  0.64965  0.08074  0.63880  1.0000
  K   K2        1.0  0.35034  0.91924  0.36120  1.0000
  Cu  Cu1       1.0  0.29213  0.22556  0.88246  1.0000
  Cu  Cu2       1.0  0.70787  0.77445  0.11753  1.0000
  P   P1        1.0  0.85508  0.88141  0.37791  1.0000
  P   P2        1.0  0.14492  0.11860  0.62210  1.0000
  H   H1        1.0  0.64658  0.64919  0.52789  1.0000
  H   H2        1.0  0.35342  0.35080  0.47210  1.0000
  H   H3        1.0  0.42222  0.83700  0.62671  1.0000
  H   H4        1.0  0.57777  0.16299  0.37328  1.0000
  H   H5        1.0  0.20428  0.77718  0.79391  1.0000
  H   H6        1.0  0.79571  0.22281  0.20608  1.0000
  H   H7        1.0  0.08545  0.61777  0.92293  1.0000
  H   H8        1.0  0.91455  0.38223  0.07705  1.0000
  H   H9        1.0  0.77635  0.44376  0.42649  1.0000
  H   H10       1.0  0.22365  0.55622  0.57350  1.0000
  H   H11       1.0  0.90020  0.31136  0.47795  1.0000
  H   H12       1.0  0.09980  0.68862  0.52205  1.0000
  H   H13       1.0  0.86902  0.49600  0.52972  1.0000
  H   H14       1.0  0.13099  0.50399  0.47027  1.0000
  H   H15       1.0  0.66876  0.61817  0.91078  1.0000
  H   H16       1.0  0.33125  0.38183  0.08923  1.0000
  H   H17       1.0  0.42930  0.58366  0.07205  1.0000
  H   H18       1.0  0.57070  0.41635  0.92796  1.0000
  H   H19       1.0  0.18768  0.77135  0.12826  1.0000
  H   H20       1.0  0.81232  0.22866  0.87173  1.0000
  H   H21       1.0  0.05946  0.99058  0.11345  1.0000
  H   H22       1.0  0.94053  0.00943  0.88654  1.0000
  H   H23       1.0  0.88491  0.71927  0.81912  1.0000
  H   H24       1.0  0.11508  0.28075  0.18089  1.0000
  H   H25       1.0  0.92340  0.79051  0.68391  1.0000
  H   H26       1.0  0.07661  0.20949  0.31610  1.0000
  H   H27       1.0  0.79809  0.64468  0.71897  1.0000
  H   H28       1.0  0.20193  0.35532  0.28104  1.0000
  C   C1        1.0  0.43033  0.44077  0.73003  1.0000
  C   C2        1.0  0.56968  0.55923  0.26997  1.0000
  C   C3        1.0  0.55596  0.48126  0.63560  1.0000
  C   C4        1.0  0.44405  0.51874  0.36440  1.0000
  C   C5        1.0  0.55159  0.62113  0.60050  1.0000
  C   C6        1.0  0.44841  0.37887  0.39949  1.0000
  C   C7        1.0  0.42417  0.72866  0.65701  1.0000
  C   C8        1.0  0.57583  0.27133  0.34298  1.0000
  C   C9        1.0  0.30288  0.69536  0.74877  1.0000
  C   C10       1.0  0.69712  0.30464  0.25122  1.0000
  C   C11       1.0  0.30371  0.55234  0.78672  1.0000
  C   C12       1.0  0.69628  0.44765  0.21327  1.0000
  C   C13       1.0  0.17639  0.52558  0.88277  1.0000
  C   C14       1.0  0.82361  0.47442  0.11722  1.0000
  C   C15       1.0  0.81297  0.40906  0.49943  1.0000
  C   C16       1.0  0.18703  0.59092  0.50056  1.0000
  C   C17       1.0  0.42889  0.93496  0.90381  1.0000
  C   C18       1.0  0.57111  0.06504  0.09618  1.0000
  C   C19       1.0  0.56580  0.82325  0.87393  1.0000
  C   C20       1.0  0.43420  0.17675  0.12607  1.0000
  C   C21       1.0  0.56338  0.70049  0.93397  1.0000
  C   C22       1.0  0.43663  0.29952  0.06603  1.0000
  C   C23       1.0  0.42597  0.68001  0.02531  1.0000
  C   C24       1.0  0.57403  0.32001  0.97470  1.0000
  C   C25       1.0  0.29318  0.78363  0.05668  1.0000
  C   C26       1.0  0.70682  0.21638  0.94332  1.0000
  C   C27       1.0  0.29283  0.91257  0.99800  1.0000
  C   C28       1.0  0.70716  0.08744  0.00199  1.0000
  C   C29       1.0  0.15632  0.01895  0.04016  1.0000
  C   C30       1.0  0.84367  0.98105  0.95983  1.0000
  C   C31       1.0  0.83319  0.74366  0.75047  1.0000
  C   C32       1.0  0.16682  0.25635  0.24954  1.0000
  O   O1        1.0  0.44062  0.30728  0.75825  1.0000
  O   O2        1.0  0.55938  0.69272  0.24175  1.0000
  O   O3        1.0  0.67511  0.37120  0.58613  1.0000
  O   O4        1.0  0.32490  0.62880  0.41387  1.0000
  O   O5        1.0  0.15354  0.40692  0.92928  1.0000
  O   O6        1.0  0.84646  0.59307  0.07071  1.0000
  O   O7        1.0  0.43759  0.04765  0.84426  1.0000
  O   O8        1.0  0.56241  0.95234  0.15574  1.0000
  O   O9        1.0  0.69385  0.85187  0.78559  1.0000
  O   O10       1.0  0.30615  0.14812  0.21441  1.0000
  O   O11       1.0  0.13323  0.14349  0.00489  1.0000
  O   O12       1.0  0.86677  0.85651  0.99510  1.0000
  F   F1        1.0  0.85522  0.05295  0.41057  1.0000
  F   F2        1.0  0.14479  0.94705  0.58946  1.0000
  F   F3        1.0  0.85318  0.92261  0.25281  1.0000
  F   F4        1.0  0.14682  0.07740  0.74720  1.0000
  F   F5        1.0  0.85390  0.71168  0.34732  1.0000
  F   F6        1.0  0.14610  0.28833  0.65269  1.0000
  F   F7        1.0  0.85451  0.84323  0.50487  1.0000
  F   F8        1.0  0.14548  0.15677  0.49515  1.0000
  F   F9        1.0  0.05668  0.86194  0.33697  1.0000
  F   F10       1.0  0.94331  0.13807  0.66305  1.0000
  F   F11       1.0  0.65184  0.90389  0.42087  1.0000
  F   F12       1.0  0.34816  0.09612  0.57914  1.0000
