data_image0
_chemical_formula_structural       Na4H28C24O28
_chemical_formula_sum              "Na4 H28 C24 O28"
_cell_length_a       7.45071
_cell_length_b       9.65991
_cell_length_c       11.6724
_cell_angle_alpha    90
_cell_angle_beta     90
_cell_angle_gamma    105.566

_space_group_name_H-M_alt    "P 1"
_space_group_IT_number       1

loop_
  _space_group_symop_operation_xyz
  'x, y, z'

loop_
  _atom_site_type_symbol
  _atom_site_label
  _atom_site_symmetry_multiplicity
  _atom_site_fract_x
  _atom_site_fract_y
  _atom_site_fract_z
  _atom_site_occupancy
  Na  Na1       1.0  0.10430  0.09179  0.12251  1.0000
  Na  Na2       1.0  0.89570  0.40820  0.62251  1.0000
  Na  Na3       1.0  0.89570  0.90821  0.87749  1.0000
  Na  Na4       1.0  0.10430  0.59179  0.37749  1.0000
  H   H1        1.0  0.80846  0.36616  0.19308  1.0000
  H   H2        1.0  0.19154  0.13384  0.69308  1.0000
  H   H3        1.0  0.19154  0.63384  0.80692  1.0000
  H   H4        1.0  0.80846  0.86616  0.30692  1.0000
  H   H5        1.0  0.73410  0.17677  0.19013  1.0000
  H   H6        1.0  0.26590  0.32323  0.69013  1.0000
  H   H7        1.0  0.26590  0.82323  0.80987  1.0000
  H   H8        1.0  0.73410  0.67677  0.30987  1.0000
  H   H9        1.0  0.64904  0.04473  0.37049  1.0000
  H   H10       1.0  0.35097  0.45527  0.87049  1.0000
  H   H11       1.0  0.35097  0.95527  0.62951  1.0000
  H   H12       1.0  0.64903  0.54473  0.12951  1.0000
  H   H13       1.0  0.57469  0.16195  0.46308  1.0000
  H   H14       1.0  0.42531  0.33805  0.96308  1.0000
  H   H15       1.0  0.42531  0.83805  0.53692  1.0000
  H   H16       1.0  0.57469  0.66195  0.03692  1.0000
  H   H17       1.0  0.69790  0.41596  0.40843  1.0000
  H   H18       1.0  0.30210  0.08404  0.90843  1.0000
  H   H19       1.0  0.30210  0.58404  0.59157  1.0000
  H   H20       1.0  0.69790  0.91597  0.09158  1.0000
  H   H21       1.0  0.34072  0.35558  0.32777  1.0000
  H   H22       1.0  0.65928  0.14442  0.82777  1.0000
  H   H23       1.0  0.65928  0.64442  0.67223  1.0000
  H   H24       1.0  0.34072  0.85558  0.17223  1.0000
  H   H25       1.0  0.83341  0.92855  0.61144  1.0000
  H   H26       1.0  0.16659  0.57144  0.11144  1.0000
  H   H27       1.0  0.16659  0.07144  0.38856  1.0000
  H   H28       1.0  0.83341  0.42856  0.88856  1.0000
  C   C1        1.0  0.52441  0.27504  0.24052  1.0000
  C   C2        1.0  0.47559  0.22497  0.74052  1.0000
  C   C3        1.0  0.47559  0.72496  0.75948  1.0000
  C   C4        1.0  0.52442  0.77503  0.25948  1.0000
  C   C5        1.0  0.72595  0.27111  0.23970  1.0000
  C   C6        1.0  0.27405  0.22889  0.73970  1.0000
  C   C7        1.0  0.27405  0.72889  0.76030  1.0000
  C   C8        1.0  0.72595  0.77111  0.26030  1.0000
  C   C9        1.0  0.81338  0.26793  0.35934  1.0000
  C   C10       1.0  0.18661  0.23207  0.85934  1.0000
  C   C11       1.0  0.18661  0.73207  0.64065  1.0000
  C   C12       1.0  0.81339  0.76793  0.14066  1.0000
  C   C13       1.0  0.69922  0.13699  0.42757  1.0000
  C   C14       1.0  0.30078  0.36300  0.92758  1.0000
  C   C15       1.0  0.30078  0.86300  0.57242  1.0000
  C   C16       1.0  0.69922  0.63700  0.07243  1.0000
  C   C17       1.0  0.80623  0.09458  0.52508  1.0000
  C   C18       1.0  0.19377  0.40542  0.02508  1.0000
  C   C19       1.0  0.19377  0.90542  0.47492  1.0000
  C   C20       1.0  0.80624  0.59458  0.97492  1.0000
  C   C21       1.0  0.01389  0.25406  0.34153  1.0000
  C   C22       1.0  0.98611  0.24594  0.84153  1.0000
  C   C23       1.0  0.98610  0.74594  0.65847  1.0000
  C   C24       1.0  0.01389  0.75407  0.15848  1.0000
  O   O1        1.0  0.48493  0.36092  0.32100  1.0000
  O   O2        1.0  0.51507  0.13908  0.82100  1.0000
  O   O3        1.0  0.51507  0.63909  0.67900  1.0000
  O   O4        1.0  0.48493  0.86091  0.17900  1.0000
  O   O5        1.0  0.41005  0.20718  0.17108  1.0000
  O   O6        1.0  0.58995  0.29281  0.67108  1.0000
  O   O7        1.0  0.58995  0.79282  0.82892  1.0000
  O   O8        1.0  0.41005  0.70718  0.32892  1.0000
  O   O9        1.0  0.75009  0.95548  0.55001  1.0000
  O   O10       1.0  0.24991  0.54452  0.05001  1.0000
  O   O11       1.0  0.24991  0.04452  0.44999  1.0000
  O   O12       1.0  0.75009  0.45548  0.94999  1.0000
  O   O13       1.0  0.93311  0.18097  0.57633  1.0000
  O   O14       1.0  0.06689  0.31903  0.07633  1.0000
  O   O15       1.0  0.06689  0.81903  0.42367  1.0000
  O   O16       1.0  0.93311  0.68097  0.92367  1.0000
  O   O17       1.0  0.02501  0.12908  0.31461  1.0000
  O   O18       1.0  0.97499  0.37092  0.81461  1.0000
  O   O19       1.0  0.97499  0.87092  0.68539  1.0000
  O   O20       1.0  0.02501  0.62908  0.18539  1.0000
  O   O21       1.0  0.15027  0.36470  0.35267  1.0000
  O   O22       1.0  0.84973  0.13530  0.85267  1.0000
  O   O23       1.0  0.84973  0.63530  0.64733  1.0000
  O   O24       1.0  0.15027  0.86470  0.14733  1.0000
  O   O25       1.0  0.82260  0.40053  0.41916  1.0000
  O   O26       1.0  0.17740  0.09947  0.91916  1.0000
  O   O27       1.0  0.17740  0.59947  0.58084  1.0000
  O   O28       1.0  0.82260  0.90054  0.08085  1.0000
