data_image0
_chemical_formula_structural       Na4H68C40N4O12
_chemical_formula_sum              "Na4 H68 C40 N4 O12"
_cell_length_a       5.6388
_cell_length_b       13.1891
_cell_length_c       14.1019
_cell_angle_alpha    89.9999
_cell_angle_beta     94.7582
_cell_angle_gamma    90.0013

_space_group_name_H-M_alt    "P 1"
_space_group_IT_number       1

loop_
  _space_group_symop_operation_xyz
  'x, y, z'

loop_
  _atom_site_type_symbol
  _atom_site_label
  _atom_site_symmetry_multiplicity
  _atom_site_fract_x
  _atom_site_fract_y
  _atom_site_fract_z
  _atom_site_occupancy
  Na  Na1       1.0  0.20196  0.99188  0.92056  1.0000
  Na  Na2       1.0  0.29809  0.49188  0.57945  1.0000
  Na  Na3       1.0  0.79810  0.00810  0.07947  1.0000
  Na  Na4       1.0  0.70195  0.50812  0.42056  1.0000
  H   H1        1.0  0.62711  0.18223  0.32304  1.0000
  H   H2        1.0  0.87286  0.68223  0.17697  1.0000
  H   H3        1.0  0.37289  0.81776  0.67697  1.0000
  H   H4        1.0  0.12712  0.31778  0.82303  1.0000
  H   H5        1.0  0.69971  0.27131  0.41635  1.0000
  H   H6        1.0  0.80029  0.77131  0.08365  1.0000
  H   H7        1.0  0.30029  0.72868  0.58365  1.0000
  H   H8        1.0  0.19968  0.22870  0.91634  1.0000
  H   H9        1.0  0.86079  0.15519  0.41260  1.0000
  H   H10       1.0  0.63921  0.65519  0.08742  1.0000
  H   H11       1.0  0.13920  0.84481  0.58740  1.0000
  H   H12       1.0  0.36076  0.34481  0.91259  1.0000
  H   H13       1.0  0.07666  0.37835  0.41407  1.0000
  H   H14       1.0  0.42335  0.87832  0.08591  1.0000
  H   H15       1.0  0.92331  0.62169  0.58589  1.0000
  H   H16       1.0  0.57663  0.12167  0.91407  1.0000
  H   H17       1.0  0.22639  0.26051  0.42625  1.0000
  H   H18       1.0  0.27360  0.76046  0.07377  1.0000
  H   H19       1.0  0.77359  0.73952  0.57377  1.0000
  H   H20       1.0  0.72638  0.23953  0.92624  1.0000
  H   H21       1.0  0.29677  0.34595  0.33545  1.0000
  H   H22       1.0  0.20326  0.84596  0.16454  1.0000
  H   H23       1.0  0.70322  0.65406  0.66452  1.0000
  H   H24       1.0  0.79673  0.15406  0.83545  1.0000
  H   H25       1.0  0.91418  0.13333  0.21857  1.0000
  H   H26       1.0  0.58579  0.63333  0.28143  1.0000
  H   H27       1.0  0.08584  0.86666  0.78143  1.0000
  H   H28       1.0  0.41419  0.36667  0.71856  1.0000
  H   H29       1.0  0.17760  0.13453  0.29644  1.0000
  H   H30       1.0  0.32242  0.63454  0.20356  1.0000
  H   H31       1.0  0.82241  0.86546  0.70355  1.0000
  H   H32       1.0  0.67757  0.36547  0.79643  1.0000
  H   H33       1.0  0.34536  0.27027  0.19543  1.0000
  H   H34       1.0  0.15463  0.77027  0.30459  1.0000
  H   H35       1.0  0.65463  0.72974  0.80458  1.0000
  H   H36       1.0  0.84535  0.22974  0.69542  1.0000
  H   H37       1.0  0.87395  0.23500  0.07534  1.0000
  H   H38       1.0  0.62607  0.73501  0.42466  1.0000
  H   H39       1.0  0.12609  0.76499  0.92465  1.0000
  H   H40       1.0  0.37396  0.26499  0.57533  1.0000
  H   H41       1.0  0.10126  0.31710  0.04187  1.0000
  H   H42       1.0  0.39880  0.81711  0.45814  1.0000
  H   H43       1.0  0.89877  0.68290  0.95814  1.0000
  H   H44       1.0  0.60124  0.18289  0.54186  1.0000
  H   H45       1.0  0.12131  0.49752  0.10447  1.0000
  H   H46       1.0  0.37875  0.99752  0.39557  1.0000
  H   H47       1.0  0.87869  0.50249  0.89556  1.0000
  H   H48       1.0  0.62127  0.00246  0.60446  1.0000
  H   H49       1.0  0.25748  0.43689  0.20759  1.0000
  H   H50       1.0  0.24257  0.93689  0.29239  1.0000
  H   H51       1.0  0.74252  0.56309  0.79242  1.0000
  H   H52       1.0  0.75745  0.06312  0.70760  1.0000
  H   H53       1.0  0.01082  0.51985  0.21770  1.0000
  H   H54       1.0  0.48925  0.01985  0.28232  1.0000
  H   H55       1.0  0.98919  0.48012  0.78235  1.0000
  H   H56       1.0  0.51077  0.98016  0.71771  1.0000
  H   H57       1.0  0.74677  0.43479  0.02197  1.0000
  H   H58       1.0  0.75329  0.93479  0.47802  1.0000
  H   H59       1.0  0.25325  0.56521  0.97804  1.0000
  H   H60       1.0  0.24672  0.06520  0.52197  1.0000
  H   H61       1.0  0.61110  0.47929  0.12399  1.0000
  H   H62       1.0  0.88894  0.97929  0.37601  1.0000
  H   H63       1.0  0.38890  0.52070  0.87600  1.0000
  H   H64       1.0  0.11106  0.02071  0.62398  1.0000
  H   H65       1.0  0.55618  0.35307  0.08176  1.0000
  H   H66       1.0  0.94386  0.85307  0.41823  1.0000
  H   H67       1.0  0.44384  0.64693  0.91822  1.0000
  H   H68       1.0  0.05616  0.14692  0.58175  1.0000
  C   C1        1.0  0.95559  0.26427  0.30878  1.0000
  C   C2        1.0  0.54440  0.76429  0.19124  1.0000
  C   C3        1.0  0.04441  0.73572  0.69124  1.0000
  C   C4        1.0  0.45558  0.23573  0.80876  1.0000
  C   C5        1.0  0.77288  0.21563  0.36917  1.0000
  C   C6        1.0  0.72708  0.71563  0.13084  1.0000
  C   C7        1.0  0.22712  0.78437  0.63083  1.0000
  C   C8        1.0  0.27289  0.28438  0.86915  1.0000
  C   C9        1.0  0.15142  0.31620  0.37435  1.0000
  C   C10       1.0  0.34854  0.81619  0.12566  1.0000
  C   C11       1.0  0.84857  0.68381  0.62565  1.0000
  C   C12       1.0  0.65142  0.18381  0.87434  1.0000
  C   C13       1.0  0.06116  0.18154  0.24808  1.0000
  C   C14       1.0  0.43885  0.68155  0.25194  1.0000
  C   C15       1.0  0.93885  0.81846  0.75192  1.0000
  C   C16       1.0  0.56114  0.31845  0.74805  1.0000
  C   C17       1.0  0.19542  0.22326  0.16658  1.0000
  C   C18       1.0  0.30459  0.72326  0.33343  1.0000
  C   C19       1.0  0.80459  0.77674  0.83343  1.0000
  C   C20       1.0  0.69541  0.27674  0.66657  1.0000
  C   C21       1.0  0.30240  0.13653  0.11041  1.0000
  C   C22       1.0  0.19762  0.63652  0.38960  1.0000
  C   C23       1.0  0.69764  0.86347  0.88959  1.0000
  C   C24       1.0  0.80238  0.36347  0.61040  1.0000
  C   C25       1.0  0.01783  0.28573  0.10317  1.0000
  C   C26       1.0  0.48220  0.78574  0.39682  1.0000
  C   C27       1.0  0.98219  0.71425  0.89683  1.0000
  C   C28       1.0  0.51783  0.21427  0.60317  1.0000
  C   C29       1.0  0.90832  0.37488  0.15396  1.0000
  C   C30       1.0  0.59167  0.87488  0.34602  1.0000
  C   C31       1.0  0.09166  0.62512  0.84602  1.0000
  C   C32       1.0  0.40834  0.12512  0.65396  1.0000
  C   C33       1.0  0.08696  0.46253  0.17272  1.0000
  C   C34       1.0  0.41305  0.96254  0.32728  1.0000
  C   C35       1.0  0.91303  0.53746  0.82729  1.0000
  C   C36       1.0  0.58696  0.03746  0.67272  1.0000
  C   C37       1.0  0.69042  0.41318  0.09194  1.0000
  C   C38       1.0  0.80960  0.91318  0.40806  1.0000
  C   C39       1.0  0.30959  0.58681  0.90806  1.0000
  C   C40       1.0  0.19041  0.08682  0.59194  1.0000
  N   N1        1.0  0.82826  0.34174  0.24685  1.0000
  N   N2        1.0  0.67178  0.84175  0.25315  1.0000
  N   N3        1.0  0.17181  0.65825  0.75314  1.0000
  N   N4        1.0  0.32824  0.15825  0.74685  1.0000
  O   O1        1.0  0.18874  0.09659  0.78727  1.0000
  O   O2        1.0  0.31113  0.59658  0.71272  1.0000
  O   O3        1.0  0.81118  0.90343  0.21272  1.0000
  O   O4        1.0  0.68870  0.40340  0.28727  1.0000
  O   O5        1.0  0.84203  0.91906  0.94140  1.0000
  O   O6        1.0  0.65796  0.41903  0.55857  1.0000
  O   O7        1.0  0.15800  0.08096  0.05859  1.0000
  O   O8        1.0  0.34203  0.58093  0.44139  1.0000
  O   O9        1.0  0.47412  0.87481  0.88116  1.0000
  O   O10       1.0  0.02588  0.37482  0.61886  1.0000
  O   O11       1.0  0.52589  0.12519  0.11887  1.0000
  O   O12       1.0  0.97411  0.62521  0.38117  1.0000
