data_image0
_chemical_formula_structural       Na2H18C8O14
_chemical_formula_sum              "Na2 H18 C8 O14"
_cell_length_a       6.00729
_cell_length_b       6.29931
_cell_length_c       11.0758
_cell_angle_alpha    104.688
_cell_angle_beta     89.069
_cell_angle_gamma    103.729

_space_group_name_H-M_alt    "P 1"
_space_group_IT_number       1

loop_
  _space_group_symop_operation_xyz
  'x, y, z'

loop_
  _atom_site_type_symbol
  _atom_site_label
  _atom_site_symmetry_multiplicity
  _atom_site_fract_x
  _atom_site_fract_y
  _atom_site_fract_z
  _atom_site_occupancy
  Na  Na1       1.0  0.26180  0.03743  0.43247  1.0000
  Na  Na2       1.0  0.73820  0.96257  0.56751  1.0000
  H   H1        1.0  0.55854  0.73681  0.97840  1.0000
  H   H2        1.0  0.44148  0.26318  0.02159  1.0000
  H   H3        1.0  0.08816  0.83045  0.16030  1.0000
  H   H4        1.0  0.91185  0.16955  0.83972  1.0000
  H   H5        1.0  0.96333  0.75379  0.95215  1.0000
  H   H6        1.0  0.03666  0.24620  0.04785  1.0000
  H   H7        1.0  0.26308  0.16045  0.68132  1.0000
  H   H8        1.0  0.73695  0.83955  0.31868  1.0000
  H   H9        1.0  0.13581  0.34175  0.66593  1.0000
  H   H10       1.0  0.86419  0.65825  0.33407  1.0000
  H   H11       1.0  0.10840  0.33973  0.30049  1.0000
  H   H12       1.0  0.89157  0.66026  0.69950  1.0000
  H   H13       1.0  0.36775  0.34252  0.27796  1.0000
  H   H14       1.0  0.63221  0.65748  0.72204  1.0000
  H   H15       1.0  0.27928  0.71211  0.59626  1.0000
  H   H16       1.0  0.72072  0.28789  0.40373  1.0000
  H   H17       1.0  0.31184  0.59660  0.45531  1.0000
  H   H18       1.0  0.68815  0.40339  0.54468  1.0000
  C   C1        1.0  0.43930  0.80637  0.14600  1.0000
  C   C2        1.0  0.56072  0.19362  0.85400  1.0000
  C   C3        1.0  0.21265  0.79531  0.08950  1.0000
  C   C4        1.0  0.78735  0.20470  0.91052  1.0000
  C   C5        1.0  0.14051  0.75038  0.96896  1.0000
  C   C6        1.0  0.85949  0.24963  0.03104  1.0000
  C   C7        1.0  0.26409  0.69236  0.85182  1.0000
  C   C8        1.0  0.73592  0.30765  0.14820  1.0000
  O   O1        1.0  0.46369  0.85133  0.26195  1.0000
  O   O2        1.0  0.53634  0.14868  0.73805  1.0000
  O   O3        1.0  0.61143  0.77142  0.07505  1.0000
  O   O4        1.0  0.38858  0.22858  0.92495  1.0000
  O   O5        1.0  0.15113  0.64158  0.74843  1.0000
  O   O6        1.0  0.84885  0.35843  0.25157  1.0000
  O   O7        1.0  0.47767  0.69394  0.85737  1.0000
  O   O8        1.0  0.52231  0.30607  0.14264  1.0000
  O   O9        1.0  0.12797  0.17876  0.63789  1.0000
  O   O10       1.0  0.87204  0.82124  0.36211  1.0000
  O   O11       1.0  0.25314  0.34202  0.34340  1.0000
  O   O12       1.0  0.74686  0.65796  0.65659  1.0000
  O   O13       1.0  0.33599  0.74628  0.51803  1.0000
  O   O14       1.0  0.66401  0.25371  0.48196  1.0000
