data_image0
_chemical_formula_structural       Na8H28C24N4O24
_chemical_formula_sum              "Na8 H28 C24 N4 O24"
_cell_length_a       9.41743
_cell_length_b       9.41748
_cell_length_c       9.41746
_cell_angle_alpha    90.0001
_cell_angle_beta     90.0001
_cell_angle_gamma    89.9999

_space_group_name_H-M_alt    "P 1"
_space_group_IT_number       1

loop_
  _space_group_symop_operation_xyz
  'x, y, z'

loop_
  _atom_site_type_symbol
  _atom_site_label
  _atom_site_symmetry_multiplicity
  _atom_site_fract_x
  _atom_site_fract_y
  _atom_site_fract_z
  _atom_site_occupancy
  Na  Na1       1.0  0.09328  0.09328  0.09328  1.0000
  Na  Na2       1.0  0.59328  0.40672  0.90672  1.0000
  Na  Na3       1.0  0.90672  0.59328  0.40672  1.0000
  Na  Na4       1.0  0.40672  0.90672  0.59328  1.0000
  Na  Na5       1.0  0.11568  0.88432  0.38432  1.0000
  Na  Na6       1.0  0.38432  0.11568  0.88433  1.0000
  Na  Na7       1.0  0.88432  0.38432  0.11568  1.0000
  Na  Na8       1.0  0.61568  0.61568  0.61568  1.0000
  H   H1        1.0  0.95420  0.95420  0.95420  1.0000
  H   H2        1.0  0.45420  0.54580  0.04580  1.0000
  H   H3        1.0  0.04580  0.45420  0.54580  1.0000
  H   H4        1.0  0.54580  0.04580  0.45420  1.0000
  H   H5        1.0  0.81541  0.67861  0.92587  1.0000
  H   H6        1.0  0.92587  0.81540  0.67861  1.0000
  H   H7        1.0  0.67861  0.92587  0.81541  1.0000
  H   H8        1.0  0.31540  0.82139  0.07413  1.0000
  H   H9        1.0  0.42587  0.68459  0.32139  1.0000
  H   H10       1.0  0.17861  0.57413  0.18459  1.0000
  H   H11       1.0  0.18460  0.17861  0.57413  1.0000
  H   H12       1.0  0.07413  0.31541  0.82139  1.0000
  H   H13       1.0  0.32139  0.42587  0.68460  1.0000
  H   H14       1.0  0.68459  0.32139  0.42587  1.0000
  H   H15       1.0  0.57413  0.18459  0.17861  1.0000
  H   H16       1.0  0.82139  0.07413  0.31540  1.0000
  H   H17       1.0  0.74197  0.81103  0.03778  1.0000
  H   H18       1.0  0.03778  0.74197  0.81103  1.0000
  H   H19       1.0  0.81103  0.03778  0.74197  1.0000
  H   H20       1.0  0.24196  0.68897  0.96221  1.0000
  H   H21       1.0  0.53778  0.75803  0.18897  1.0000
  H   H22       1.0  0.31103  0.46222  0.25803  1.0000
  H   H23       1.0  0.25804  0.31103  0.46222  1.0000
  H   H24       1.0  0.96222  0.24197  0.68897  1.0000
  H   H25       1.0  0.18897  0.53778  0.75803  1.0000
  H   H26       1.0  0.75803  0.18897  0.53779  1.0000
  H   H27       1.0  0.46222  0.25804  0.31104  1.0000
  H   H28       1.0  0.68897  0.96221  0.24197  1.0000
  C   C1        1.0  0.84023  0.77473  0.98660  1.0000
  C   C2        1.0  0.98660  0.84023  0.77472  1.0000
  C   C3        1.0  0.77472  0.98660  0.84023  1.0000
  C   C4        1.0  0.34023  0.72528  0.01340  1.0000
  C   C5        1.0  0.48659  0.65977  0.22527  1.0000
  C   C6        1.0  0.27472  0.51340  0.15977  1.0000
  C   C7        1.0  0.15977  0.27472  0.51340  1.0000
  C   C8        1.0  0.01340  0.34023  0.72527  1.0000
  C   C9        1.0  0.22528  0.48660  0.65977  1.0000
  C   C10       1.0  0.65977  0.22527  0.48660  1.0000
  C   C11       1.0  0.51340  0.15977  0.27473  1.0000
  C   C12       1.0  0.72528  0.01340  0.34023  1.0000
  C   C13       1.0  0.95079  0.74735  0.10384  1.0000
  C   C14       1.0  0.10384  0.95079  0.74733  1.0000
  C   C15       1.0  0.74734  0.10384  0.95079  1.0000
  C   C16       1.0  0.45078  0.75267  0.89616  1.0000
  C   C17       1.0  0.60384  0.54921  0.25266  1.0000
  C   C18       1.0  0.24733  0.39616  0.04921  1.0000
  C   C19       1.0  0.04921  0.24734  0.39616  1.0000
  C   C20       1.0  0.89616  0.45079  0.75265  1.0000
  C   C21       1.0  0.25266  0.60384  0.54922  1.0000
  C   C22       1.0  0.54921  0.25266  0.60384  1.0000
  C   C23       1.0  0.39615  0.04922  0.24733  1.0000
  C   C24       1.0  0.75266  0.89616  0.45079  1.0000
  N   N1        1.0  0.89013  0.89013  0.89013  1.0000
  N   N2        1.0  0.39013  0.60987  0.10987  1.0000
  N   N3        1.0  0.10987  0.39013  0.60987  1.0000
  N   N4        1.0  0.60987  0.10987  0.39013  1.0000
  O   O1        1.0  0.03716  0.84678  0.13157  1.0000
  O   O2        1.0  0.13157  0.03716  0.84678  1.0000
  O   O3        1.0  0.84678  0.13157  0.03717  1.0000
  O   O4        1.0  0.53716  0.65322  0.86843  1.0000
  O   O5        1.0  0.63157  0.46284  0.15322  1.0000
  O   O6        1.0  0.34678  0.36843  0.96283  1.0000
  O   O7        1.0  0.96284  0.34678  0.36843  1.0000
  O   O8        1.0  0.86843  0.53716  0.65322  1.0000
  O   O9        1.0  0.15322  0.63157  0.46283  1.0000
  O   O10       1.0  0.46283  0.15322  0.63157  1.0000
  O   O11       1.0  0.36843  0.96284  0.34679  1.0000
  O   O12       1.0  0.65322  0.86843  0.53717  1.0000
  O   O13       1.0  0.94260  0.62828  0.16494  1.0000
  O   O14       1.0  0.16493  0.94260  0.62828  1.0000
  O   O15       1.0  0.62829  0.16493  0.94261  1.0000
  O   O16       1.0  0.44260  0.87171  0.83507  1.0000
  O   O17       1.0  0.66493  0.55740  0.37171  1.0000
  O   O18       1.0  0.12829  0.33506  0.05740  1.0000
  O   O19       1.0  0.05740  0.12828  0.33507  1.0000
  O   O20       1.0  0.83506  0.44260  0.87171  1.0000
  O   O21       1.0  0.37172  0.66494  0.55740  1.0000
  O   O22       1.0  0.55740  0.37171  0.66493  1.0000
  O   O23       1.0  0.33506  0.05741  0.12830  1.0000
  O   O24       1.0  0.87171  0.83507  0.44260  1.0000
