data_image0
_chemical_formula_structural       Cs2H8C8I2N4O6
_chemical_formula_sum              "Cs2 H8 C8 I2 N4 O6"
_cell_length_a       7.33214
_cell_length_b       7.49335
_cell_length_c       9.37372
_cell_angle_alpha    110.761
_cell_angle_beta     102.68
_cell_angle_gamma    93.8045

_space_group_name_H-M_alt    "P 1"
_space_group_IT_number       1

loop_
  _space_group_symop_operation_xyz
  'x, y, z'

loop_
  _atom_site_type_symbol
  _atom_site_label
  _atom_site_symmetry_multiplicity
  _atom_site_fract_x
  _atom_site_fract_y
  _atom_site_fract_z
  _atom_site_occupancy
  Cs  Cs1       1.0  0.16722  0.90651  0.28506  1.0000
  Cs  Cs2       1.0  0.83278  0.09350  0.71494  1.0000
  H   H1        1.0  0.22819  0.47803  0.45129  1.0000
  H   H2        1.0  0.77180  0.52195  0.54871  1.0000
  H   H3        1.0  0.45553  0.95723  0.85895  1.0000
  H   H4        1.0  0.54447  0.04277  0.14105  1.0000
  H   H5        1.0  0.45317  0.43341  0.84606  1.0000
  H   H6        1.0  0.54684  0.56660  0.15394  1.0000
  H   H7        1.0  0.23259  0.45482  0.89244  1.0000
  H   H8        1.0  0.76742  0.54518  0.10756  1.0000
  C   C1        1.0  0.23392  0.42030  0.65404  1.0000
  C   C2        1.0  0.76608  0.57970  0.34597  1.0000
  C   C3        1.0  0.35736  0.72710  0.64427  1.0000
  C   C4        1.0  0.64265  0.27290  0.35572  1.0000
  C   C5        1.0  0.38464  0.71470  0.90495  1.0000
  C   C6        1.0  0.61536  0.28530  0.09504  1.0000
  C   C7        1.0  0.32398  0.50033  0.82892  1.0000
  C   C8        1.0  0.67601  0.49967  0.17107  1.0000
  I   I1        1.0  0.13940  0.34149  0.15569  1.0000
  I   I2        1.0  0.86060  0.65852  0.84431  1.0000
  N   N1        1.0  0.27088  0.53605  0.57451  1.0000
  N   N2        1.0  0.72911  0.46394  0.42549  1.0000
  N   N3        1.0  0.39472  0.81157  0.80738  1.0000
  N   N4        1.0  0.60528  0.18843  0.19262  1.0000
  O   O1        1.0  0.14105  0.25645  0.58279  1.0000
  O   O2        1.0  0.85895  0.74355  0.41722  1.0000
  O   O3        1.0  0.39565  0.82019  0.56656  1.0000
  O   O4        1.0  0.60435  0.17978  0.43344  1.0000
  O   O5        1.0  0.43033  0.80100  0.05108  1.0000
  O   O6        1.0  0.56967  0.19902  0.94893  1.0000
