data_image0
_chemical_formula_structural       Cu2H44C32N4O14
_chemical_formula_sum              "Cu2 H44 C32 N4 O14"
_cell_length_a       8.79334
_cell_length_b       9.94121
_cell_length_c       10.4469
_cell_angle_alpha    75.1554
_cell_angle_beta     81.5106
_cell_angle_gamma    85.9621

_space_group_name_H-M_alt    "P 1"
_space_group_IT_number       1

loop_
  _space_group_symop_operation_xyz
  'x, y, z'

loop_
  _atom_site_type_symbol
  _atom_site_label
  _atom_site_symmetry_multiplicity
  _atom_site_fract_x
  _atom_site_fract_y
  _atom_site_fract_z
  _atom_site_occupancy
  Cu  Cu1       1.0  0.44240  0.90577  0.45892  1.0000
  Cu  Cu2       1.0  0.55760  0.09424  0.54108  1.0000
  H   H1        1.0  0.42564  0.58878  0.49836  1.0000
  H   H2        1.0  0.57437  0.41122  0.50163  1.0000
  H   H3        1.0  0.32764  0.41860  0.39154  1.0000
  H   H4        1.0  0.67236  0.58141  0.60846  1.0000
  H   H5        1.0  0.14831  0.77346  0.11188  1.0000
  H   H6        1.0  0.85169  0.22655  0.88812  1.0000
  H   H7        1.0  0.26171  0.92604  0.22857  1.0000
  H   H8        1.0  0.73829  0.07396  0.77143  1.0000
  H   H9        1.0  0.02893  0.37252  0.03115  1.0000
  H   H10       1.0  0.97107  0.62748  0.96885  1.0000
  H   H11       1.0  0.88112  0.30838  0.16487  1.0000
  H   H12       1.0  0.11888  0.69162  0.83513  1.0000
  H   H13       1.0  0.98662  0.50935  0.37529  1.0000
  H   H14       1.0  0.01338  0.49065  0.62471  1.0000
  H   H15       1.0  0.87887  0.36283  0.38041  1.0000
  H   H16       1.0  0.12113  0.63717  0.61959  1.0000
  H   H17       1.0  0.74006  0.50424  0.19596  1.0000
  H   H18       1.0  0.25994  0.49576  0.80404  1.0000
  H   H19       1.0  0.71579  0.57410  0.33935  1.0000
  H   H20       1.0  0.28421  0.42590  0.66065  1.0000
  H   H21       1.0  0.65394  0.79519  0.18401  1.0000
  H   H22       1.0  0.34606  0.20481  0.81599  1.0000
  H   H23       1.0  0.69607  0.71031  0.05026  1.0000
  H   H24       1.0  0.30393  0.28969  0.94974  1.0000
  H   H25       1.0  0.92987  0.71265  0.47390  1.0000
  H   H26       1.0  0.07012  0.28734  0.52610  1.0000
  H   H27       1.0  0.01631  0.87383  0.46839  1.0000
  H   H28       1.0  0.98368  0.12616  0.53160  1.0000
  H   H29       1.0  0.95420  0.84228  0.32307  1.0000
  H   H30       1.0  0.04580  0.15771  0.67693  1.0000
  H   H31       1.0  0.32291  0.69916  0.90385  1.0000
  H   H32       1.0  0.67709  0.30084  0.09615  1.0000
  H   H33       1.0  0.44346  0.81143  0.95101  1.0000
  H   H34       1.0  0.55654  0.18857  0.04898  1.0000
  H   H35       1.0  0.52243  0.66596  0.88965  1.0000
  H   H36       1.0  0.47757  0.33404  0.11035  1.0000
  H   H37       1.0  0.21772  0.20167  0.16379  1.0000
  H   H38       1.0  0.78229  0.79832  0.83621  1.0000
  H   H39       1.0  0.05454  0.12501  0.27304  1.0000
  H   H40       1.0  0.94547  0.87499  0.72696  1.0000
  H   H41       1.0  0.86110  0.96091  0.08441  1.0000
  H   H42       1.0  0.13890  0.03909  0.91559  1.0000
  H   H43       1.0  0.71413  0.96705  0.98170  1.0000
  H   H44       1.0  0.28587  0.03294  0.01830  1.0000
  C   C1        1.0  0.36569  0.62412  0.41087  1.0000
  C   C2        1.0  0.63431  0.37588  0.58913  1.0000
  C   C3        1.0  0.30925  0.53046  0.35208  1.0000
  C   C4        1.0  0.69075  0.46955  0.64792  1.0000
  C   C5        1.0  0.22979  0.58371  0.24206  1.0000
  C   C6        1.0  0.77021  0.41630  0.75794  1.0000
  C   C7        1.0  0.21206  0.72814  0.19539  1.0000
  C   C8        1.0  0.78794  0.27187  0.80461  1.0000
  C   C9        1.0  0.27347  0.81305  0.26043  1.0000
  C   C10       1.0  0.72653  0.18696  0.73957  1.0000
  C   C11       1.0  0.17923  0.48801  0.16735  1.0000
  C   C12       1.0  0.82077  0.51200  0.83265  1.0000
  C   C13       1.0  0.00486  0.32534  0.13888  1.0000
  C   C14       1.0  0.99515  0.67465  0.86112  1.0000
  C   C15       1.0  0.92928  0.45848  0.31473  1.0000
  C   C16       1.0  0.07072  0.54151  0.68528  1.0000
  C   C17       1.0  0.80036  0.55405  0.25643  1.0000
  C   C18       1.0  0.19964  0.44595  0.74357  1.0000
  C   C19       1.0  0.74649  0.76828  0.10982  1.0000
  C   C20       1.0  0.25352  0.23172  0.89019  1.0000
  C   C21       1.0  0.76998  0.88687  0.46314  1.0000
  C   C22       1.0  0.23001  0.11313  0.53686  1.0000
  C   C23       1.0  0.92873  0.82568  0.43199  1.0000
  C   C24       1.0  0.07126  0.17430  0.56801  1.0000
  C   C25       1.0  0.45337  0.84005  0.73862  1.0000
  C   C26       1.0  0.54663  0.15996  0.26138  1.0000
  C   C27       1.0  0.43344  0.75013  0.87953  1.0000
  C   C28       1.0  0.56655  0.24987  0.12047  1.0000
  C   C29       1.0  0.09399  0.18523  0.17085  1.0000
  C   C30       1.0  0.90602  0.81477  0.82915  1.0000
  C   C31       1.0  0.81205  0.90381  0.02398  1.0000
  C   C32       1.0  0.18795  0.09619  0.97602  1.0000
  N   N1        1.0  0.34866  0.76266  0.36660  1.0000
  N   N2        1.0  0.65134  0.23734  0.63340  1.0000
  N   N3        1.0  0.04539  0.42119  0.21305  1.0000
  N   N4        1.0  0.95461  0.57881  0.78696  1.0000
  O   O1        1.0  0.65780  0.82469  0.44144  1.0000
  O   O2        1.0  0.34219  0.17530  0.55855  1.0000
  O   O3        1.0  0.76048  0.99675  0.50574  1.0000
  O   O4        1.0  0.23951  0.00325  0.49425  1.0000
  O   O5        1.0  0.41071  0.79084  0.64851  1.0000
  O   O6        1.0  0.58928  0.20917  0.35149  1.0000
  O   O7        1.0  0.26650  0.47000  0.06724  1.0000
  O   O8        1.0  0.73350  0.53001  0.93276  1.0000
  O   O9        1.0  0.86261  0.68158  0.17665  1.0000
  O   O10       1.0  0.13739  0.31841  0.82335  1.0000
  O   O11       1.0  0.06515  0.10568  0.08100  1.0000
  O   O12       1.0  0.93486  0.89431  0.91900  1.0000
  O   O13       1.0  0.51343  0.95792  0.71986  1.0000
  O   O14       1.0  0.48657  0.04209  0.28014  1.0000
