data_image0
_chemical_formula_structural       Cs4H16C16Br4N8O12
_chemical_formula_sum              "Cs4 H16 C16 Br4 N8 O12"
_cell_length_a       9.08657
_cell_length_b       9.15245
_cell_length_c       10.384
_cell_angle_alpha    90
_cell_angle_beta     91.0447
_cell_angle_gamma    90

_space_group_name_H-M_alt    "P 1"
_space_group_IT_number       1

loop_
  _space_group_symop_operation_xyz
  'x, y, z'

loop_
  _atom_site_type_symbol
  _atom_site_label
  _atom_site_symmetry_multiplicity
  _atom_site_fract_x
  _atom_site_fract_y
  _atom_site_fract_z
  _atom_site_occupancy
  Cs  Cs1       1.0  0.22594  0.60555  0.87058  1.0000
  Cs  Cs2       1.0  0.27406  0.10555  0.62942  1.0000
  Cs  Cs3       1.0  0.77406  0.39445  0.12942  1.0000
  Cs  Cs4       1.0  0.72594  0.89445  0.37058  1.0000
  H   H1        1.0  0.30051  0.27631  0.27210  1.0000
  H   H2        1.0  0.19949  0.77631  0.22790  1.0000
  H   H3        1.0  0.69949  0.72369  0.72789  1.0000
  H   H4        1.0  0.80051  0.22370  0.77210  1.0000
  H   H5        1.0  0.39740  0.36909  0.14956  1.0000
  H   H6        1.0  0.10260  0.86909  0.35044  1.0000
  H   H7        1.0  0.60260  0.63091  0.85043  1.0000
  H   H8        1.0  0.89740  0.13092  0.64957  1.0000
  H   H9        1.0  0.03451  0.13277  0.01185  1.0000
  H   H10       1.0  0.46549  0.63277  0.48815  1.0000
  H   H11       1.0  0.96549  0.86723  0.98815  1.0000
  H   H12       1.0  0.53451  0.36723  0.51185  1.0000
  H   H13       1.0  0.41140  0.91233  0.11592  1.0000
  H   H14       1.0  0.08859  0.41233  0.38408  1.0000
  H   H15       1.0  0.58860  0.08767  0.88408  1.0000
  H   H16       1.0  0.91141  0.58768  0.61592  1.0000
  C   C1        1.0  0.33300  0.27054  0.16998  1.0000
  C   C2        1.0  0.16700  0.77054  0.33002  1.0000
  C   C3        1.0  0.66700  0.72946  0.83002  1.0000
  C   C4        1.0  0.83300  0.22946  0.66998  1.0000
  C   C5        1.0  0.19192  0.27285  0.09260  1.0000
  C   C6        1.0  0.30808  0.77285  0.40740  1.0000
  C   C7        1.0  0.80808  0.72715  0.90740  1.0000
  C   C8        1.0  0.69192  0.22715  0.59260  1.0000
  C   C9        1.0  0.21443  0.00885  0.06239  1.0000
  C   C10       1.0  0.28557  0.50885  0.43762  1.0000
  C   C11       1.0  0.78557  0.99115  0.93761  1.0000
  C   C12       1.0  0.71443  0.49115  0.56238  1.0000
  C   C13       1.0  0.42615  0.13555  0.15927  1.0000
  C   C14       1.0  0.07385  0.63555  0.34073  1.0000
  C   C15       1.0  0.57385  0.86445  0.84073  1.0000
  C   C16       1.0  0.92615  0.36445  0.65927  1.0000
  Br  Br1       1.0  0.49271  0.31392  0.86548  1.0000
  Br  Br2       1.0  0.00730  0.81392  0.63452  1.0000
  Br  Br3       1.0  0.50729  0.68608  0.13451  1.0000
  Br  Br4       1.0  0.99271  0.18608  0.36549  1.0000
  N   N1        1.0  0.35554  0.01251  0.11232  1.0000
  N   N2        1.0  0.14446  0.51252  0.38768  1.0000
  N   N3        1.0  0.64446  0.98749  0.88768  1.0000
  N   N4        1.0  0.85554  0.48749  0.61232  1.0000
  N   N5        1.0  0.14203  0.13967  0.04747  1.0000
  N   N6        1.0  0.35797  0.63967  0.45253  1.0000
  N   N7        1.0  0.85797  0.86033  0.95253  1.0000
  N   N8        1.0  0.64203  0.36033  0.54747  1.0000
  O   O1        1.0  0.11958  0.38498  0.07381  1.0000
  O   O2        1.0  0.38042  0.88497  0.42619  1.0000
  O   O3        1.0  0.88042  0.61502  0.92619  1.0000
  O   O4        1.0  0.61958  0.11503  0.57381  1.0000
  O   O5        1.0  0.15535  0.89135  0.03020  1.0000
  O   O6        1.0  0.34464  0.39135  0.46980  1.0000
  O   O7        1.0  0.84465  0.10865  0.96980  1.0000
  O   O8        1.0  0.65535  0.60865  0.53019  1.0000
  O   O9        1.0  0.55568  0.13051  0.19643  1.0000
  O   O10       1.0  0.94432  0.63051  0.30356  1.0000
  O   O11       1.0  0.44432  0.86949  0.80356  1.0000
  O   O12       1.0  0.05568  0.36949  0.69644  1.0000
