data_image0
_chemical_formula_structural       Na2H6C8O10
_chemical_formula_sum              "Na2 H6 C8 O10"
_cell_length_a       3.61827
_cell_length_b       8.12683
_cell_length_c       9.45031
_cell_angle_alpha    89.9996
_cell_angle_beta     98.2367
_cell_angle_gamma    90.0003

_space_group_name_H-M_alt    "P 1"
_space_group_IT_number       1

loop_
  _space_group_symop_operation_xyz
  'x, y, z'

loop_
  _atom_site_type_symbol
  _atom_site_label
  _atom_site_symmetry_multiplicity
  _atom_site_fract_x
  _atom_site_fract_y
  _atom_site_fract_z
  _atom_site_occupancy
  Na  Na1       1.0  0.45766  0.13689  0.35526  1.0000
  Na  Na2       1.0  0.45764  0.86311  0.85526  1.0000
  H   H1        1.0  0.91380  0.03808  0.13176  1.0000
  H   H2        1.0  0.91378  0.96192  0.63176  1.0000
  H   H3        1.0  0.87602  0.23082  0.12894  1.0000
  H   H4        1.0  0.87600  0.76918  0.62895  1.0000
  H   H5        1.0  0.72122  0.49587  0.97479  1.0000
  H   H6        1.0  0.72122  0.50414  0.47479  1.0000
  C   C1        1.0  0.32556  0.55546  0.28074  1.0000
  C   C2        1.0  0.32553  0.44454  0.78074  1.0000
  C   C3        1.0  0.07956  0.55970  0.14663  1.0000
  C   C4        1.0  0.07957  0.44029  0.64664  1.0000
  C   C5        1.0  0.09223  0.73865  0.13967  1.0000
  C   C6        1.0  0.09224  0.26136  0.63968  1.0000
  C   C7        1.0  0.33889  0.74021  0.28319  1.0000
  C   C8        1.0  0.33886  0.25979  0.78320  1.0000
  O   O1        1.0  0.89766  0.13558  0.19363  1.0000
  O   O2        1.0  0.89764  0.86441  0.69363  1.0000
  O   O3        1.0  0.47710  0.44225  0.36192  1.0000
  O   O4        1.0  0.47708  0.55775  0.86192  1.0000
  O   O5        1.0  0.90985  0.44553  0.06508  1.0000
  O   O6        1.0  0.90985  0.55447  0.56508  1.0000
  O   O7        1.0  0.95900  0.84472  0.05009  1.0000
  O   O8        1.0  0.95901  0.15527  0.55010  1.0000
  O   O9        1.0  0.48722  0.84548  0.36657  1.0000
  O   O10       1.0  0.48720  0.15454  0.86657  1.0000
