data_image0
_chemical_formula_structural       K3BiH48C30S6N14O4
_chemical_formula_sum              "K3 Bi1 H48 C30 S6 N14 O4"
_cell_length_a       10.901
_cell_length_b       11.0315
_cell_length_c       12.1398
_cell_angle_alpha    73.2466
_cell_angle_beta     63.8196
_cell_angle_gamma    65.2421

_space_group_name_H-M_alt    "P 1"
_space_group_IT_number       1

loop_
  _space_group_symop_operation_xyz
  'x, y, z'

loop_
  _atom_site_type_symbol
  _atom_site_label
  _atom_site_symmetry_multiplicity
  _atom_site_fract_x
  _atom_site_fract_y
  _atom_site_fract_z
  _atom_site_occupancy
  K   K1        1.0  0.00000  0.50000  0.50000  1.0000
  K   K2        1.0  0.92510  0.19580  0.53723  1.0000
  K   K3        1.0  0.07489  0.80421  0.46278  1.0000
  Bi  Bi1       1.0  0.00001  0.00000  0.99999  1.0000
  H   H1        1.0  0.44091  0.04682  0.30631  1.0000
  H   H2        1.0  0.55909  0.95318  0.69369  1.0000
  H   H3        1.0  0.27981  0.01152  0.34693  1.0000
  H   H4        1.0  0.72019  0.98848  0.65307  1.0000
  H   H5        1.0  0.27085  0.14883  0.40460  1.0000
  H   H6        1.0  0.72914  0.85118  0.59540  1.0000
  H   H7        1.0  0.50996  0.12980  0.07804  1.0000
  H   H8        1.0  0.49003  0.87020  0.92196  1.0000
  H   H9        1.0  0.40445  0.02881  0.10782  1.0000
  H   H10       1.0  0.59556  0.97119  0.89218  1.0000
  H   H11       1.0  0.43816  0.19782  0.90402  1.0000
  H   H12       1.0  0.56183  0.80218  0.09598  1.0000
  H   H13       1.0  0.26004  0.19187  0.99505  1.0000
  H   H14       1.0  0.73996  0.80812  0.00496  1.0000
  H   H15       1.0  0.24559  0.42919  0.93738  1.0000
  H   H16       1.0  0.75440  0.57080  0.06262  1.0000
  H   H17       1.0  0.38049  0.39780  0.99598  1.0000
  H   H18       1.0  0.61951  0.60220  0.00401  1.0000
  H   H19       1.0  0.99752  0.52460  0.08115  1.0000
  H   H20       1.0  0.00248  0.47541  0.91885  1.0000
  H   H21       1.0  0.09444  0.60181  0.10958  1.0000
  H   H22       1.0  0.90556  0.39819  0.89041  1.0000
  H   H23       1.0  0.98174  0.51846  0.23547  1.0000
  H   H24       1.0  0.01827  0.48155  0.76453  1.0000
  H   H25       1.0  0.51822  0.49199  0.82814  1.0000
  H   H26       1.0  0.48178  0.50802  0.17186  1.0000
  H   H27       1.0  0.59815  0.60934  0.81556  1.0000
  H   H28       1.0  0.40185  0.39067  0.18443  1.0000
  H   H29       1.0  0.70691  0.46077  0.74020  1.0000
  H   H30       1.0  0.29309  0.53923  0.25979  1.0000
  H   H31       1.0  0.43834  0.78801  0.73892  1.0000
  H   H32       1.0  0.56165  0.21199  0.26108  1.0000
  H   H33       1.0  0.34137  0.70883  0.71663  1.0000
  H   H34       1.0  0.65862  0.29117  0.28336  1.0000
  H   H35       1.0  0.34460  0.90910  0.56436  1.0000
  H   H36       1.0  0.65540  0.09090  0.43562  1.0000
  H   H37       1.0  0.53694  0.86316  0.51593  1.0000
  H   H38       1.0  0.46306  0.13684  0.48407  1.0000
  H   H39       1.0  0.37340  0.71462  0.48368  1.0000
  H   H40       1.0  0.62660  0.28538  0.51631  1.0000
  H   H41       1.0  0.48935  0.79843  0.36514  1.0000
  H   H42       1.0  0.51065  0.20156  0.63485  1.0000
  H   H43       1.0  0.71603  0.63416  0.25920  1.0000
  H   H44       1.0  0.28398  0.36583  0.74080  1.0000
  H   H45       1.0  0.59388  0.54299  0.31258  1.0000
  H   H46       1.0  0.40613  0.45700  0.68741  1.0000
  H   H47       1.0  0.75891  0.46902  0.34278  1.0000
  H   H48       1.0  0.24110  0.53098  0.65721  1.0000
  C   C1        1.0  0.13837  0.18343  0.70986  1.0000
  C   C2        1.0  0.86163  0.81657  0.29015  1.0000
  C   C3        1.0  0.73655  0.17792  0.85566  1.0000
  C   C4        1.0  0.26345  0.82208  0.14434  1.0000
  C   C5        1.0  0.94507  0.11954  0.26545  1.0000
  C   C6        1.0  0.05492  0.88046  0.73457  1.0000
  C   C7        1.0  0.18571  0.30073  0.23240  1.0000
  C   C8        1.0  0.81429  0.69927  0.76760  1.0000
  C   C9        1.0  0.32358  0.09277  0.32523  1.0000
  C   C10       1.0  0.67642  0.90723  0.67478  1.0000
  C   C11       1.0  0.39976  0.13285  0.09770  1.0000
  C   C12       1.0  0.60023  0.86715  0.90231  1.0000
  C   C13       1.0  0.34791  0.21775  0.99316  1.0000
  C   C14       1.0  0.65208  0.78225  0.00684  1.0000
  C   C15       1.0  0.29129  0.36583  0.00783  1.0000
  C   C16       1.0  0.70870  0.63417  0.99217  1.0000
  C   C17       1.0  0.05603  0.51571  0.13902  1.0000
  C   C18       1.0  0.94397  0.48429  0.86098  1.0000
  C   C19       1.0  0.64381  0.55638  0.54721  1.0000
  C   C20       1.0  0.35619  0.44362  0.45279  1.0000
  C   C21       1.0  0.60028  0.53960  0.76548  1.0000
  C   C22       1.0  0.39972  0.46040  0.23451  1.0000
  C   C23       1.0  0.44145  0.73515  0.67305  1.0000
  C   C24       1.0  0.55855  0.26485  0.32694  1.0000
  C   C25       1.0  0.44695  0.82403  0.55078  1.0000
  C   C26       1.0  0.55305  0.17596  0.44921  1.0000
  C   C27       1.0  0.47024  0.74151  0.45823  1.0000
  C   C28       1.0  0.52977  0.25848  0.54177  1.0000
  C   C29       1.0  0.67076  0.56293  0.33495  1.0000
  C   C30       1.0  0.32925  0.43706  0.66504  1.0000
  S   S1        1.0  0.22723  0.08199  0.80011  1.0000
  S   S2        1.0  0.77277  0.91800  0.19989  1.0000
  S   S3        1.0  0.75675  0.21854  0.96596  1.0000
  S   S4        1.0  0.24325  0.78145  0.03404  1.0000
  S   S5        1.0  0.97206  0.19869  0.12381  1.0000
  S   S6        1.0  0.02792  0.80131  0.87622  1.0000
  N   N1        1.0  0.07596  0.25630  0.64433  1.0000
  N   N2        1.0  0.92404  0.74371  0.35568  1.0000
  N   N3        1.0  0.71735  0.15313  0.77738  1.0000
  N   N4        1.0  0.28264  0.84687  0.22263  1.0000
  N   N5        1.0  0.92501  0.06648  0.36838  1.0000
  N   N6        1.0  0.07497  0.93353  0.63164  1.0000
  N   N7        1.0  0.30225  0.18378  0.21670  1.0000
  N   N8        1.0  0.69775  0.81622  0.78330  1.0000
  N   N9        1.0  0.17626  0.38971  0.12878  1.0000
  N   N10       1.0  0.82374  0.61029  0.87122  1.0000
  N   N11       1.0  0.56970  0.61353  0.65517  1.0000
  N   N12       1.0  0.43030  0.38646  0.34483  1.0000
  N   N13       1.0  0.59702  0.61936  0.45081  1.0000
  N   N14       1.0  0.40299  0.38063  0.54919  1.0000
  O   O1        1.0  0.09265  0.32651  0.33881  1.0000
  O   O2        1.0  0.90735  0.67350  0.66119  1.0000
  O   O3        1.0  0.75300  0.44999  0.53692  1.0000
  O   O4        1.0  0.24700  0.55001  0.46308  1.0000
