data_image0
_chemical_formula_structural       Nd2H46C28O18
_chemical_formula_sum              "Nd2 H46 C28 O18"
_cell_length_a       8.61791
_cell_length_b       8.86468
_cell_length_c       11.7709
_cell_angle_alpha    108.713
_cell_angle_beta     89.9998
_cell_angle_gamma    90.0001

_space_group_name_H-M_alt    "P 1"
_space_group_IT_number       1

loop_
  _space_group_symop_operation_xyz
  'x, y, z'

loop_
  _atom_site_type_symbol
  _atom_site_label
  _atom_site_symmetry_multiplicity
  _atom_site_fract_x
  _atom_site_fract_y
  _atom_site_fract_z
  _atom_site_occupancy
  Nd  Nd1       1.0  0.45683  0.01125  0.99513  1.0000
  Nd  Nd2       1.0  0.95683  0.98875  0.00487  1.0000
  H   H1        1.0  0.07875  0.84787  0.66626  1.0000
  H   H2        1.0  0.57875  0.15213  0.33374  1.0000
  H   H3        1.0  0.09188  0.67068  0.69949  1.0000
  H   H4        1.0  0.59187  0.32932  0.30051  1.0000
  H   H5        1.0  0.32304  0.78047  0.54132  1.0000
  H   H6        1.0  0.82303  0.21953  0.45868  1.0000
  H   H7        1.0  0.34901  0.60935  0.58287  1.0000
  H   H8        1.0  0.84900  0.39065  0.41713  1.0000
  H   H9        1.0  0.07866  0.66467  0.43077  1.0000
  H   H10       1.0  0.57865  0.33533  0.56923  1.0000
  H   H11       1.0  0.09333  0.50102  0.48376  1.0000
  H   H12       1.0  0.59332  0.49898  0.51624  1.0000
  H   H13       1.0  0.33255  0.58306  0.31919  1.0000
  H   H14       1.0  0.83255  0.41693  0.68081  1.0000
  H   H15       1.0  0.34930  0.42709  0.38008  1.0000
  H   H16       1.0  0.84930  0.57291  0.61991  1.0000
  H   H17       1.0  0.11146  0.46156  0.19817  1.0000
  H   H18       1.0  0.61145  0.53844  0.80183  1.0000
  H   H19       1.0  0.07711  0.32910  0.27933  1.0000
  H   H20       1.0  0.57711  0.67091  0.72067  1.0000
  H   H21       1.0  0.56883  0.26450  0.81410  1.0000
  H   H22       1.0  0.06883  0.73550  0.18590  1.0000
  H   H23       1.0  0.37465  0.89353  0.38872  1.0000
  H   H24       1.0  0.87465  0.10647  0.61128  1.0000
  H   H25       1.0  0.17392  0.85096  0.36707  1.0000
  H   H26       1.0  0.67392  0.14905  0.63293  1.0000
  H   H27       1.0  0.31903  0.18079  0.40737  1.0000
  H   H28       1.0  0.81903  0.81922  0.59263  1.0000
  H   H29       1.0  0.11835  0.13740  0.39788  1.0000
  H   H30       1.0  0.61835  0.86261  0.60212  1.0000
  H   H31       1.0  0.34003  0.08588  0.58716  1.0000
  H   H32       1.0  0.84003  0.91413  0.41284  1.0000
  H   H33       1.0  0.13921  0.04917  0.58099  1.0000
  H   H34       1.0  0.63921  0.95084  0.41901  1.0000
  H   H35       1.0  0.29063  0.37633  0.62323  1.0000
  H   H36       1.0  0.79063  0.62368  0.37678  1.0000
  H   H37       1.0  0.08881  0.34163  0.61542  1.0000
  H   H38       1.0  0.58881  0.65837  0.38458  1.0000
  H   H39       1.0  0.09968  0.24955  0.79587  1.0000
  H   H40       1.0  0.59968  0.75045  0.20413  1.0000
  H   H41       1.0  0.17180  0.44442  0.82682  1.0000
  H   H42       1.0  0.67180  0.55558  0.17318  1.0000
  H   H43       1.0  0.32615  0.72189  0.02575  1.0000
  H   H44       1.0  0.82615  0.27811  0.97425  1.0000
  H   H45       1.0  0.40995  0.63748  0.90103  1.0000
  H   H46       1.0  0.90995  0.36252  0.09897  1.0000
  C   C1        1.0  0.25882  0.84389  0.78586  1.0000
  C   C2        1.0  0.75881  0.15611  0.21414  1.0000
  C   C3        1.0  0.16330  0.75993  0.67682  1.0000
  C   C4        1.0  0.66330  0.24008  0.32318  1.0000
  C   C5        1.0  0.25919  0.68646  0.56397  1.0000
  C   C6        1.0  0.75919  0.31354  0.43603  1.0000
  C   C7        1.0  0.16303  0.58843  0.45710  1.0000
  C   C8        1.0  0.66303  0.41156  0.54290  1.0000
  C   C9        1.0  0.26404  0.49895  0.35019  1.0000
  C   C10       1.0  0.76403  0.50105  0.64980  1.0000
  C   C11       1.0  0.16944  0.38996  0.24661  1.0000
  C   C12       1.0  0.66944  0.61004  0.75339  1.0000
  C   C13       1.0  0.26254  0.26410  0.15591  1.0000
  C   C14       1.0  0.76254  0.73590  0.84408  1.0000
  C   C15       1.0  0.29221  0.90032  0.22185  1.0000
  C   C16       1.0  0.79221  0.09968  0.77816  1.0000
  C   C17       1.0  0.26636  0.92906  0.35443  1.0000
  C   C18       1.0  0.76636  0.07095  0.64557  1.0000
  C   C19       1.0  0.23065  0.10303  0.42705  1.0000
  C   C20       1.0  0.73065  0.89697  0.57295  1.0000
  C   C21       1.0  0.22840  0.12683  0.56163  1.0000
  C   C22       1.0  0.72840  0.87317  0.43838  1.0000
  C   C23       1.0  0.19974  0.29897  0.64019  1.0000
  C   C24       1.0  0.69973  0.70103  0.35981  1.0000
  C   C25       1.0  0.19441  0.31870  0.77456  1.0000
  C   C26       1.0  0.69441  0.68130  0.22545  1.0000
  C   C27       1.0  0.34199  0.26837  0.82156  1.0000
  C   C28       1.0  0.84199  0.73162  0.17844  1.0000
  O   O1        1.0  0.19491  0.88957  0.89056  1.0000
  O   O2        1.0  0.69491  0.11043  0.10944  1.0000
  O   O3        1.0  0.40247  0.86816  0.77585  1.0000
  O   O4        1.0  0.90247  0.13184  0.22415  1.0000
  O   O5        1.0  0.19571  0.13249  0.09503  1.0000
  O   O6        1.0  0.69571  0.86751  0.90497  1.0000
  O   O7        1.0  0.40521  0.28507  0.14016  1.0000
  O   O8        1.0  0.90521  0.71493  0.85983  1.0000
  O   O9        1.0  0.40689  0.96685  0.19093  1.0000
  O   O10       1.0  0.90689  0.03315  0.80907  1.0000
  O   O11       1.0  0.19939  0.80634  0.14449  1.0000
  O   O12       1.0  0.69939  0.19365  0.85551  1.0000
  O   O13       1.0  0.47186  0.31401  0.78248  1.0000
  O   O14       1.0  0.97186  0.68598  0.21752  1.0000
  O   O15       1.0  0.34090  0.19010  0.89188  1.0000
  O   O16       1.0  0.84090  0.80989  0.10811  1.0000
  O   O17       1.0  0.42453  0.71564  0.97987  1.0000
  O   O18       1.0  0.92453  0.28437  0.02013  1.0000
