data_image0
_chemical_formula_structural       Mn2H6C8N16
_chemical_formula_sum              "Mn2 H6 C8 N16"
_cell_length_a       5.92807
_cell_length_b       8.02384
_cell_length_c       8.96799
_cell_angle_alpha    88.2267
_cell_angle_beta     84.2338
_cell_angle_gamma    67.7505

_space_group_name_H-M_alt    "P 1"
_space_group_IT_number       1

loop_
  _space_group_symop_operation_xyz
  'x, y, z'

loop_
  _atom_site_type_symbol
  _atom_site_label
  _atom_site_symmetry_multiplicity
  _atom_site_fract_x
  _atom_site_fract_y
  _atom_site_fract_z
  _atom_site_occupancy
  Mn  Mn1       1.0  0.19728  0.59760  0.99854  1.0000
  Mn  Mn2       1.0  0.80639  0.36619  0.00573  1.0000
  H   H1        1.0  0.92446  0.71862  0.34940  1.0000
  H   H2        1.0  0.36157  0.71902  0.64806  1.0000
  H   H3        1.0  0.06367  0.29958  0.67290  1.0000
  H   H4        1.0  0.63111  0.29883  0.33454  1.0000
  H   H5        1.0  0.69927  0.01793  0.48081  1.0000
  H   H6        1.0  0.28027  0.01862  0.52085  1.0000
  C   C1        1.0  0.89583  0.84477  0.29076  1.0000
  C   C2        1.0  0.26311  0.84516  0.70892  1.0000
  C   C3        1.0  0.09827  0.16753  0.72200  1.0000
  C   C4        1.0  0.73163  0.16730  0.28288  1.0000
  C   C5        1.0  0.76849  0.01123  0.36347  1.0000
  C   C6        1.0  0.21968  0.01166  0.63842  1.0000
  C   C7        1.0  0.95227  0.99399  0.07628  1.0000
  C   C8        1.0  0.05870  0.99394  0.92620  1.0000
  N   N1        1.0  0.98647  0.83748  0.14751  1.0000
  N   N2        1.0  0.18396  0.83723  0.85282  1.0000
  N   N3        1.0  0.01496  0.16266  0.86868  1.0000
  N   N4        1.0  0.82043  0.16332  0.13583  1.0000
  N   N5        1.0  0.06015  0.41236  0.12411  1.0000
  N   N6        1.0  0.52170  0.40757  0.87674  1.0000
  N   N7        1.0  0.92970  0.57568  0.86425  1.0000
  N   N8        1.0  0.51395  0.55755  0.12916  1.0000
  N   N9        1.0  0.11034  0.35144  0.24786  1.0000
  N   N10       1.0  0.53632  0.34811  0.75153  1.0000
  N   N11       1.0  0.87200  0.64188  0.74409  1.0000
  N   N12       1.0  0.49978  0.62922  0.24890  1.0000
  N   N13       1.0  0.16070  0.29598  0.36619  1.0000
  N   N14       1.0  0.54265  0.29505  0.63165  1.0000
  N   N15       1.0  0.82107  0.70876  0.62866  1.0000
  N   N16       1.0  0.47381  0.70373  0.36226  1.0000
