data_image0
_chemical_formula_structural       Cd4H48C68N4O20
_chemical_formula_sum              "Cd4 H48 C68 N4 O20"
_cell_length_a       9.9818
_cell_length_b       10.9679
_cell_length_c       15.4459
_cell_angle_alpha    95.4723
_cell_angle_beta     89.9839
_cell_angle_gamma    117.065

_space_group_name_H-M_alt    "P 1"
_space_group_IT_number       1

loop_
  _space_group_symop_operation_xyz
  'x, y, z'

loop_
  _atom_site_type_symbol
  _atom_site_label
  _atom_site_symmetry_multiplicity
  _atom_site_fract_x
  _atom_site_fract_y
  _atom_site_fract_z
  _atom_site_occupancy
  Cd  Cd1       1.0  0.96297  0.04301  0.37876  1.0000
  Cd  Cd2       1.0  0.91985  0.95697  0.12117  1.0000
  Cd  Cd3       1.0  0.03703  0.95699  0.62124  1.0000
  Cd  Cd4       1.0  0.08015  0.04303  0.87883  1.0000
  H   H1        1.0  0.09565  0.60559  0.48201  1.0000
  H   H2        1.0  0.49011  0.39463  0.01801  1.0000
  H   H3        1.0  0.90435  0.39441  0.51798  1.0000
  H   H4        1.0  0.50989  0.60538  0.98199  1.0000
  H   H5        1.0  0.11155  0.42601  0.37920  1.0000
  H   H6        1.0  0.68562  0.57410  0.12080  1.0000
  H   H7        1.0  0.88845  0.57399  0.62080  1.0000
  H   H8        1.0  0.31438  0.42590  0.87920  1.0000
  H   H9        1.0  0.06332  0.42129  0.21879  1.0000
  H   H10       1.0  0.64212  0.57866  0.28125  1.0000
  H   H11       1.0  0.93668  0.57871  0.78121  1.0000
  H   H12       1.0  0.35788  0.42134  0.71875  1.0000
  H   H13       1.0  0.99856  0.59599  0.16646  1.0000
  H   H14       1.0  0.40264  0.40401  0.33359  1.0000
  H   H15       1.0  0.00144  0.40401  0.83354  1.0000
  H   H16       1.0  0.59736  0.59600  0.66641  1.0000
  H   H17       1.0  0.65306  0.79993  0.30345  1.0000
  H   H18       1.0  0.85286  0.19997  0.19646  1.0000
  H   H19       1.0  0.34694  0.20007  0.69655  1.0000
  H   H20       1.0  0.14714  0.80004  0.80354  1.0000
  H   H21       1.0  0.37693  0.73298  0.29069  1.0000
  H   H22       1.0  0.64380  0.26708  0.20923  1.0000
  H   H23       1.0  0.62307  0.26702  0.70931  1.0000
  H   H24       1.0  0.35620  0.73293  0.79077  1.0000
  H   H25       1.0  0.29067  0.90634  0.34918  1.0000
  H   H26       1.0  0.38413  0.09376  0.15085  1.0000
  H   H27       1.0  0.70933  0.09366  0.65082  1.0000
  H   H28       1.0  0.61587  0.90624  0.84915  1.0000
  H   H29       1.0  0.75218  0.18644  0.42605  1.0000
  H   H30       1.0  0.56544  0.81353  0.07381  1.0000
  H   H31       1.0  0.24782  0.81356  0.57395  1.0000
  H   H32       1.0  0.43456  0.18647  0.92619  1.0000
  H   H33       1.0  0.37366  0.15714  0.38529  1.0000
  H   H34       1.0  0.21630  0.84282  0.11481  1.0000
  H   H35       1.0  0.62634  0.84286  0.61471  1.0000
  H   H36       1.0  0.78370  0.15719  0.88519  1.0000
  H   H37       1.0  0.39924  0.11810  0.49087  1.0000
  H   H38       1.0  0.28092  0.88177  0.00920  1.0000
  H   H39       1.0  0.60075  0.88190  0.50913  1.0000
  H   H40       1.0  0.71909  0.11824  0.99080  1.0000
  H   H41       1.0  0.75823  0.54951  0.45778  1.0000
  H   H42       1.0  0.20859  0.45041  0.04228  1.0000
  H   H43       1.0  0.24177  0.45048  0.54222  1.0000
  H   H44       1.0  0.79141  0.54959  0.95772  1.0000
  H   H45       1.0  0.29998  0.25878  0.49984  1.0000
  H   H46       1.0  0.04122  0.74123  0.00019  1.0000
  H   H47       1.0  0.70002  0.74122  0.50016  1.0000
  H   H48       1.0  0.95878  0.25877  0.99981  1.0000
  C   C1        1.0  0.03559  0.80820  0.45250  1.0000
  C   C2        1.0  0.22754  0.19190  0.04754  1.0000
  C   C3        1.0  0.96441  0.19180  0.54751  1.0000
  C   C4        1.0  0.77246  0.80810  0.95246  1.0000
  C   C5        1.0  0.03565  0.70080  0.38401  1.0000
  C   C6        1.0  0.33493  0.29935  0.11603  1.0000
  C   C7        1.0  0.96434  0.29920  0.61599  1.0000
  C   C8        1.0  0.66507  0.70065  0.88397  1.0000
  C   C9        1.0  0.07274  0.60186  0.41266  1.0000
  C   C10       1.0  0.47095  0.39835  0.08738  1.0000
  C   C11       1.0  0.92726  0.39814  0.58734  1.0000
  C   C12       1.0  0.52905  0.60165  0.91262  1.0000
  C   C13       1.0  0.08313  0.50152  0.35438  1.0000
  C   C14       1.0  0.58167  0.49862  0.14565  1.0000
  C   C15       1.0  0.91687  0.49848  0.64562  1.0000
  C   C16       1.0  0.41833  0.50138  0.85435  1.0000
  C   C17       1.0  0.05599  0.49898  0.26541  1.0000
  C   C18       1.0  0.55711  0.50105  0.23464  1.0000
  C   C19       1.0  0.94401  0.50102  0.73459  1.0000
  C   C20       1.0  0.44289  0.49895  0.76536  1.0000
  C   C21       1.0  0.02040  0.59740  0.23574  1.0000
  C   C22       1.0  0.42305  0.40264  0.26431  1.0000
  C   C23       1.0  0.97960  0.40260  0.76426  1.0000
  C   C24       1.0  0.57695  0.59736  0.73569  1.0000
  C   C25       1.0  0.01027  0.69887  0.29380  1.0000
  C   C26       1.0  0.31145  0.30122  0.20625  1.0000
  C   C27       1.0  0.98972  0.30113  0.70620  1.0000
  C   C28       1.0  0.68855  0.69878  0.79375  1.0000
  C   C29       1.0  0.96590  0.79680  0.25569  1.0000
  C   C30       1.0  0.16922  0.20315  0.24443  1.0000
  C   C31       1.0  0.03411  0.20320  0.74431  1.0000
  C   C32       1.0  0.83078  0.79685  0.75557  1.0000
  C   C33       1.0  0.60928  0.87021  0.32819  1.0000
  C   C34       1.0  0.73881  0.12973  0.17169  1.0000
  C   C35       1.0  0.39072  0.12979  0.67181  1.0000
  C   C36       1.0  0.26119  0.87027  0.82831  1.0000
  C   C37       1.0  0.45648  0.83422  0.32146  1.0000
  C   C38       1.0  0.62206  0.16582  0.17846  1.0000
  C   C39       1.0  0.54352  0.16578  0.67854  1.0000
  C   C40       1.0  0.37794  0.83419  0.82155  1.0000
  C   C41       1.0  0.40897  0.92977  0.35400  1.0000
  C   C42       1.0  0.47897  0.07030  0.14598  1.0000
  C   C43       1.0  0.59103  0.07023  0.64600  1.0000
  C   C44       1.0  0.52103  0.92970  0.85402  1.0000
  C   C45       1.0  0.51444  0.05847  0.39361  1.0000
  C   C46       1.0  0.45572  0.94156  0.10639  1.0000
  C   C47       1.0  0.48556  0.94153  0.60639  1.0000
  C   C48       1.0  0.54428  0.05844  0.89361  1.0000
  C   C49       1.0  0.66550  0.08705  0.39730  1.0000
  C   C50       1.0  0.57817  0.91293  0.10258  1.0000
  C   C51       1.0  0.33451  0.91295  0.60270  1.0000
  C   C52       1.0  0.42183  0.08707  0.89742  1.0000
  C   C53       1.0  0.45769  0.15609  0.43113  1.0000
  C   C54       1.0  0.30140  0.84388  0.06896  1.0000
  C   C55       1.0  0.54231  0.84391  0.56887  1.0000
  C   C56       1.0  0.69860  0.15612  0.93104  1.0000
  C   C57       1.0  0.53498  0.39158  0.47617  1.0000
  C   C58       1.0  0.14337  0.60841  0.02387  1.0000
  C   C59       1.0  0.46502  0.60842  0.52383  1.0000
  C   C60       1.0  0.85663  0.39159  0.97613  1.0000
  C   C61       1.0  0.64504  0.52805  0.47629  1.0000
  C   C62       1.0  0.11691  0.47192  0.02374  1.0000
  C   C63       1.0  0.35496  0.47194  0.52371  1.0000
  C   C64       1.0  0.88308  0.52808  0.97626  1.0000
  C   C65       1.0  0.38902  0.36362  0.50025  1.0000
  C   C66       1.0  0.02542  0.63638  0.99976  1.0000
  C   C67       1.0  0.61098  0.63637  0.49975  1.0000
  C   C68       1.0  0.97458  0.36362  0.00024  1.0000
  N   N1        1.0  0.71193  0.99458  0.36498  1.0000
  N   N2        1.0  0.71709  0.00537  0.13487  1.0000
  N   N3        1.0  0.28807  0.00542  0.63502  1.0000
  N   N4        1.0  0.28292  0.99463  0.86513  1.0000
  O   O1        1.0  0.98794  0.76694  0.52622  1.0000
  O   O2        1.0  0.22118  0.23312  0.97381  1.0000
  O   O3        1.0  0.01206  0.23306  0.47378  1.0000
  O   O4        1.0  0.77882  0.76688  0.02619  1.0000
  O   O5        1.0  0.09031  0.93419  0.43807  1.0000
  O   O6        1.0  0.15625  0.06592  0.06200  1.0000
  O   O7        1.0  0.90969  0.06581  0.56193  1.0000
  O   O8        1.0  0.84375  0.93408  0.93800  1.0000
  O   O9        1.0  0.87369  0.83121  0.29451  1.0000
  O   O10       1.0  0.04249  0.16851  0.20569  1.0000
  O   O11       1.0  0.12632  0.16879  0.70549  1.0000
  O   O12       1.0  0.95751  0.83149  0.79431  1.0000
  O   O13       1.0  0.01955  0.83653  0.18280  1.0000
  O   O14       1.0  0.18328  0.16355  0.31732  1.0000
  O   O15       1.0  0.98046  0.16347  0.81720  1.0000
  O   O16       1.0  0.81672  0.83645  0.68268  1.0000
  O   O17       1.0  0.57865  0.29172  0.45013  1.0000
  O   O18       1.0  0.28685  0.70826  0.04997  1.0000
  O   O19       1.0  0.42134  0.70827  0.54987  1.0000
  O   O20       1.0  0.71315  0.29174  0.95003  1.0000
