data_image0
_chemical_formula_structural       Hg4H4C8S8N8Cl4
_chemical_formula_sum              "Hg4 H4 C8 S8 N8 Cl4"
_cell_length_a       7.5297
_cell_length_b       9.19601
_cell_length_c       9.66727
_cell_angle_alpha    90.0001
_cell_angle_beta     89.9999
_cell_angle_gamma    104.97

_space_group_name_H-M_alt    "P 1"
_space_group_IT_number       1

loop_
  _space_group_symop_operation_xyz
  'x, y, z'

loop_
  _atom_site_type_symbol
  _atom_site_label
  _atom_site_symmetry_multiplicity
  _atom_site_fract_x
  _atom_site_fract_y
  _atom_site_fract_z
  _atom_site_occupancy
  Hg  Hg1       1.0  0.16684  0.84507  0.23686  1.0000
  Hg  Hg2       1.0  0.33315  0.15492  0.73686  1.0000
  Hg  Hg3       1.0  0.83316  0.15493  0.76314  1.0000
  Hg  Hg4       1.0  0.66685  0.84507  0.26314  1.0000
  H   H1        1.0  0.67578  0.44094  0.97461  1.0000
  H   H2        1.0  0.82422  0.55905  0.47461  1.0000
  H   H3        1.0  0.32422  0.55906  0.02539  1.0000
  H   H4        1.0  0.17578  0.44094  0.52539  1.0000
  C   C1        1.0  0.46442  0.15521  0.19933  1.0000
  C   C2        1.0  0.03558  0.84479  0.69932  1.0000
  C   C3        1.0  0.53558  0.84480  0.80067  1.0000
  C   C4        1.0  0.96443  0.15521  0.30066  1.0000
  C   C5        1.0  0.59800  0.34550  0.03442  1.0000
  C   C6        1.0  0.90199  0.65449  0.53442  1.0000
  C   C7        1.0  0.40200  0.65449  0.96557  1.0000
  C   C8        1.0  0.09801  0.34551  0.46558  1.0000
  S   S1        1.0  0.40242  0.04092  0.34261  1.0000
  S   S2        1.0  0.09757  0.95908  0.84261  1.0000
  S   S3        1.0  0.59758  0.95909  0.65739  1.0000
  S   S4        1.0  0.90243  0.04092  0.15739  1.0000
  S   S5        1.0  0.63018  0.32656  0.20865  1.0000
  S   S6        1.0  0.86981  0.67344  0.70866  1.0000
  S   S7        1.0  0.36981  0.67345  0.79134  1.0000
  S   S8        1.0  0.13020  0.32656  0.29134  1.0000
  N   N1        1.0  0.39568  0.12396  0.07368  1.0000
  N   N2        1.0  0.10431  0.87604  0.57369  1.0000
  N   N3        1.0  0.60431  0.87604  0.92632  1.0000
  N   N4        1.0  0.89569  0.12396  0.42633  1.0000
  N   N5        1.0  0.47323  0.23289  0.98098  1.0000
  N   N6        1.0  0.02675  0.76711  0.48099  1.0000
  N   N7        1.0  0.52677  0.76712  0.01902  1.0000
  N   N8        1.0  0.97324  0.23289  0.51902  1.0000
  Cl  Cl1       1.0  0.96808  0.64203  0.11736  1.0000
  Cl  Cl2       1.0  0.53192  0.35795  0.61736  1.0000
  Cl  Cl3       1.0  0.03193  0.35796  0.88264  1.0000
  Cl  Cl4       1.0  0.46808  0.64204  0.38264  1.0000
