data_image0
_chemical_formula_structural       Cu4H40C44S8Br8N8
_chemical_formula_sum              "Cu4 H40 C44 S8 Br8 N8"
_cell_length_a       8.64873
_cell_length_b       12.5577
_cell_length_c       13.9929
_cell_angle_alpha    90.0005
_cell_angle_beta     100.935
_cell_angle_gamma    90.0006

_space_group_name_H-M_alt    "P 1"
_space_group_IT_number       1

loop_
  _space_group_symop_operation_xyz
  'x, y, z'

loop_
  _atom_site_type_symbol
  _atom_site_label
  _atom_site_symmetry_multiplicity
  _atom_site_fract_x
  _atom_site_fract_y
  _atom_site_fract_z
  _atom_site_occupancy
  Cu  Cu1       1.0  0.29517  0.85085  0.22384  1.0000
  Cu  Cu2       1.0  0.70487  0.35085  0.27617  1.0000
  Cu  Cu3       1.0  0.70483  0.14915  0.77617  1.0000
  Cu  Cu4       1.0  0.29514  0.64915  0.72383  1.0000
  H   H1        1.0  0.57957  0.19797  0.09930  1.0000
  H   H2        1.0  0.42045  0.69797  0.40072  1.0000
  H   H3        1.0  0.42044  0.80203  0.90069  1.0000
  H   H4        1.0  0.57955  0.30203  0.59931  1.0000
  H   H5        1.0  0.69337  0.09581  0.05535  1.0000
  H   H6        1.0  0.30665  0.59580  0.44467  1.0000
  H   H7        1.0  0.30663  0.90419  0.94465  1.0000
  H   H8        1.0  0.69335  0.40419  0.55535  1.0000
  H   H9        1.0  0.77581  0.94644  0.07485  1.0000
  H   H10       1.0  0.22420  0.44645  0.42514  1.0000
  H   H11       1.0  0.22419  0.05355  0.92514  1.0000
  H   H12       1.0  0.77578  0.55355  0.57486  1.0000
  H   H13       1.0  0.86388  0.76185  0.06888  1.0000
  H   H14       1.0  0.13614  0.26186  0.43112  1.0000
  H   H15       1.0  0.13612  0.23814  0.93113  1.0000
  H   H16       1.0  0.86386  0.73814  0.56888  1.0000
  H   H17       1.0  0.68991  0.61203  0.11421  1.0000
  H   H18       1.0  0.31012  0.11204  0.38580  1.0000
  H   H19       1.0  0.31010  0.38796  0.88582  1.0000
  H   H20       1.0  0.68987  0.88796  0.61419  1.0000
  H   H21       1.0  0.44933  0.66253  0.17489  1.0000
  H   H22       1.0  0.55070  0.16255  0.32512  1.0000
  H   H23       1.0  0.55067  0.33747  0.82512  1.0000
  H   H24       1.0  0.44928  0.83746  0.67487  1.0000
  H   H25       1.0  0.06709  0.10510  0.14495  1.0000
  H   H26       1.0  0.93292  0.60511  0.35505  1.0000
  H   H27       1.0  0.93292  0.89490  0.85504  1.0000
  H   H28       1.0  0.06707  0.39490  0.64496  1.0000
  H   H29       1.0  0.26035  0.24507  0.11265  1.0000
  H   H30       1.0  0.73966  0.74509  0.38734  1.0000
  H   H31       1.0  0.73966  0.75493  0.88734  1.0000
  H   H32       1.0  0.26033  0.25493  0.61265  1.0000
  H   H33       1.0  0.20739  0.43513  0.14438  1.0000
  H   H34       1.0  0.79263  0.93515  0.35559  1.0000
  H   H35       1.0  0.79260  0.56487  0.85560  1.0000
  H   H36       1.0  0.20737  0.06487  0.64440  1.0000
  H   H37       1.0  0.96549  0.48140  0.21186  1.0000
  H   H38       1.0  0.03455  0.98140  0.28812  1.0000
  H   H39       1.0  0.03452  0.51860  0.78814  1.0000
  H   H40       1.0  0.96546  0.01861  0.71186  1.0000
  C   C1        1.0  0.63632  0.11978  0.11575  1.0000
  C   C2        1.0  0.36370  0.61979  0.38426  1.0000
  C   C3        1.0  0.36368  0.88021  0.88424  1.0000
  C   C4        1.0  0.63630  0.38022  0.61575  1.0000
  C   C5        1.0  0.56520  0.90468  0.13064  1.0000
  C   C6        1.0  0.43481  0.40468  0.36936  1.0000
  C   C7        1.0  0.43480  0.09533  0.86935  1.0000
  C   C8        1.0  0.56517  0.59532  0.63065  1.0000
  C   C9        1.0  0.70507  0.88297  0.09753  1.0000
  C   C10       1.0  0.29494  0.38297  0.40246  1.0000
  C   C11       1.0  0.29492  0.11703  0.90247  1.0000
  C   C12       1.0  0.70505  0.61702  0.59754  1.0000
  C   C13       1.0  0.75352  0.77785  0.09306  1.0000
  C   C14       1.0  0.24649  0.27785  0.40694  1.0000
  C   C15       1.0  0.24648  0.22215  0.90695  1.0000
  C   C16       1.0  0.75349  0.72215  0.59306  1.0000
  C   C17       1.0  0.66082  0.69597  0.11919  1.0000
  C   C18       1.0  0.33921  0.19598  0.38081  1.0000
  C   C19       1.0  0.33918  0.30402  0.88082  1.0000
  C   C20       1.0  0.66078  0.80402  0.61919  1.0000
  C   C21       1.0  0.52504  0.72323  0.15256  1.0000
  C   C22       1.0  0.47498  0.22323  0.34744  1.0000
  C   C23       1.0  0.47496  0.27677  0.84745  1.0000
  C   C24       1.0  0.52501  0.77677  0.65255  1.0000
  C   C25       1.0  0.91835  0.22160  0.19640  1.0000
  C   C26       1.0  0.08168  0.72160  0.30360  1.0000
  C   C27       1.0  0.08166  0.77840  0.80360  1.0000
  C   C28       1.0  0.91832  0.27840  0.69640  1.0000
  C   C29       1.0  0.04908  0.18923  0.15887  1.0000
  C   C30       1.0  0.95095  0.68924  0.34112  1.0000
  C   C31       1.0  0.95093  0.81076  0.84112  1.0000
  C   C32       1.0  0.04906  0.31077  0.65888  1.0000
  C   C33       1.0  0.15461  0.26687  0.13986  1.0000
  C   C34       1.0  0.84541  0.76689  0.36013  1.0000
  C   C35       1.0  0.84539  0.73313  0.86013  1.0000
  C   C36       1.0  0.15458  0.23313  0.63987  1.0000
  C   C37       1.0  0.12512  0.37346  0.15725  1.0000
  C   C38       1.0  0.87491  0.87347  0.34274  1.0000
  C   C39       1.0  0.87489  0.62653  0.84275  1.0000
  C   C40       1.0  0.12509  0.12654  0.65725  1.0000
  C   C41       1.0  0.99164  0.39965  0.19445  1.0000
  C   C42       1.0  0.00839  0.89966  0.30554  1.0000
  C   C43       1.0  0.00837  0.60035  0.80555  1.0000
  C   C44       1.0  0.99161  0.10035  0.69445  1.0000
  S   S1        1.0  0.48175  0.03191  0.13384  1.0000
  S   S2        1.0  0.51829  0.53192  0.36617  1.0000
  S   S3        1.0  0.51826  0.96808  0.86616  1.0000
  S   S4        1.0  0.48172  0.46808  0.63384  1.0000
  S   S5        1.0  0.78153  0.13031  0.22939  1.0000
  S   S6        1.0  0.21849  0.63031  0.27063  1.0000
  S   S7        1.0  0.21847  0.86969  0.77061  1.0000
  S   S8        1.0  0.78151  0.36969  0.72938  1.0000
  Br  Br1       1.0  0.12199  0.90521  0.07373  1.0000
  Br  Br2       1.0  0.87803  0.40522  0.42629  1.0000
  Br  Br3       1.0  0.87802  0.09476  0.92626  1.0000
  Br  Br4       1.0  0.12196  0.59476  0.57373  1.0000
  Br  Br5       1.0  0.45831  0.90247  0.37821  1.0000
  Br  Br6       1.0  0.54172  0.40245  0.12179  1.0000
  Br  Br7       1.0  0.54168  0.09752  0.62180  1.0000
  Br  Br8       1.0  0.45831  0.59752  0.87820  1.0000
  N   N1        1.0  0.47936  0.82515  0.16018  1.0000
  N   N2        1.0  0.52067  0.32516  0.33983  1.0000
  N   N3        1.0  0.52064  0.17485  0.83983  1.0000
  N   N4        1.0  0.47933  0.67485  0.66018  1.0000
  N   N5        1.0  0.89127  0.32500  0.21422  1.0000
  N   N6        1.0  0.10875  0.82500  0.28579  1.0000
  N   N7        1.0  0.10874  0.67499  0.78579  1.0000
  N   N8        1.0  0.89125  0.17500  0.71421  1.0000
