data_image0
_chemical_formula_structural       Li2H22C24N8O20
_chemical_formula_sum              "Li2 H22 C24 N8 O20"
_cell_length_a       4.87927
_cell_length_b       6.54591
_cell_length_c       24.6579
_cell_angle_alpha    90.0002
_cell_angle_beta     90.0001
_cell_angle_gamma    112.755

_space_group_name_H-M_alt    "P 1"
_space_group_IT_number       1

loop_
  _space_group_symop_operation_xyz
  'x, y, z'

loop_
  _atom_site_type_symbol
  _atom_site_label
  _atom_site_symmetry_multiplicity
  _atom_site_fract_x
  _atom_site_fract_y
  _atom_site_fract_z
  _atom_site_occupancy
  Li  Li1       1.0  1.00000  0.50000  0.00000  1.0000
  Li  Li2       1.0  0.50000  1.00000  0.50000  1.0000
  H   H1        1.0  0.80002  0.71279  0.76879  1.0000
  H   H2        1.0  0.69998  0.78721  0.26879  1.0000
  H   H3        1.0  0.19999  0.28721  0.23121  1.0000
  H   H4        1.0  0.30001  0.21280  0.73121  1.0000
  H   H5        1.0  0.03239  0.44104  0.79455  1.0000
  H   H6        1.0  0.46762  0.05895  0.29455  1.0000
  H   H7        1.0  0.96762  0.55896  0.20545  1.0000
  H   H8        1.0  0.53239  0.94105  0.70545  1.0000
  H   H9        1.0  0.37723  0.22464  0.97871  1.0000
  H   H10       1.0  0.12277  0.27536  0.47871  1.0000
  H   H11       1.0  0.62277  0.77536  0.02129  1.0000
  H   H12       1.0  0.87723  0.72464  0.52129  1.0000
  H   H13       1.0  0.41723  0.20129  0.04231  1.0000
  H   H14       1.0  0.08277  0.29871  0.54231  1.0000
  H   H15       1.0  0.58277  0.79871  0.95769  1.0000
  H   H16       1.0  0.91723  0.70129  0.45769  1.0000
  H   H17       1.0  0.37459  0.10615  0.87483  1.0000
  H   H18       1.0  0.12542  0.39385  0.37483  1.0000
  H   H19       1.0  0.62541  0.89384  0.12517  1.0000
  H   H20       1.0  0.87458  0.60616  0.62517  1.0000
  H   H21       1.0  0.50000  0.00000  0.00000  1.0000
  H   H22       1.0  1.00000  0.50000  0.50000  1.0000
  C   C1        1.0  0.72757  0.77047  0.85313  1.0000
  C   C2        1.0  0.77243  0.72953  0.35312  1.0000
  C   C3        1.0  0.27243  0.22953  0.14687  1.0000
  C   C4        1.0  0.22756  0.27047  0.64687  1.0000
  C   C5        1.0  0.97841  0.48819  0.88031  1.0000
  C   C6        1.0  0.52159  0.01180  0.38031  1.0000
  C   C7        1.0  0.02159  0.51180  0.11969  1.0000
  C   C8        1.0  0.47841  0.98820  0.61969  1.0000
  C   C9        1.0  0.13044  0.33928  0.89974  1.0000
  C   C10       1.0  0.36956  0.16071  0.39974  1.0000
  C   C11       1.0  0.86956  0.66072  0.10026  1.0000
  C   C12       1.0  0.63044  0.83929  0.60026  1.0000
  C   C13       1.0  0.58776  0.93428  0.84097  1.0000
  C   C14       1.0  0.91224  0.56572  0.34097  1.0000
  C   C15       1.0  0.41224  0.06572  0.15903  1.0000
  C   C16       1.0  0.08775  0.43428  0.65903  1.0000
  C   C17       1.0  0.82509  0.67277  0.81088  1.0000
  C   C18       1.0  0.67491  0.82722  0.31088  1.0000
  C   C19       1.0  0.17491  0.32722  0.18912  1.0000
  C   C20       1.0  0.32509  0.17278  0.68912  1.0000
  C   C21       1.0  0.95196  0.52447  0.82499  1.0000
  C   C22       1.0  0.54804  0.97553  0.32499  1.0000
  C   C23       1.0  0.04804  0.47553  0.17501  1.0000
  C   C24       1.0  0.45196  0.02447  0.67501  1.0000
  N   N1        1.0  0.87830  0.58486  0.91931  1.0000
  N   N2        1.0  0.62169  0.91514  0.41931  1.0000
  N   N3        1.0  0.12169  0.41514  0.08069  1.0000
  N   N4        1.0  0.37831  0.08486  0.58069  1.0000
  N   N5        1.0  0.75044  0.72295  0.90552  1.0000
  N   N6        1.0  0.74956  0.77705  0.40552  1.0000
  N   N7        1.0  0.24956  0.27705  0.09448  1.0000
  N   N8        1.0  0.25044  0.22295  0.59448  1.0000
  O   O1        1.0  0.15646  0.32234  0.95056  1.0000
  O   O2        1.0  0.34354  0.17766  0.45056  1.0000
  O   O3        1.0  0.84354  0.67766  0.04944  1.0000
  O   O4        1.0  0.65646  0.82234  0.54944  1.0000
  O   O5        1.0  0.48218  0.99620  0.88455  1.0000
  O   O6        1.0  0.01783  0.50380  0.38455  1.0000
  O   O7        1.0  0.51782  0.00379  0.11545  1.0000
  O   O8        1.0  0.98218  0.49620  0.61545  1.0000
  O   O9        1.0  0.22399  0.24815  0.86273  1.0000
  O   O10       1.0  0.27601  0.25185  0.36273  1.0000
  O   O11       1.0  0.77601  0.75185  0.13727  1.0000
  O   O12       1.0  0.72399  0.74815  0.63727  1.0000
  O   O13       1.0  0.57696  0.99696  0.79432  1.0000
  O   O14       1.0  0.92304  0.50303  0.29432  1.0000
  O   O15       1.0  0.42304  0.00303  0.20568  1.0000
  O   O16       1.0  0.07696  0.49697  0.70568  1.0000
  O   O17       1.0  0.50753  0.18673  0.00581  1.0000
  O   O18       1.0  0.99247  0.31327  0.50581  1.0000
  O   O19       1.0  0.49247  0.81327  0.99419  1.0000
  O   O20       1.0  0.00753  0.68673  0.49419  1.0000
