data_image0
_chemical_formula_structural       Ca4H16C20N8O20
_chemical_formula_sum              "Ca4 H16 C20 N8 O20"
_cell_length_a       6.40065
_cell_length_b       9.85196
_cell_length_c       10.8918
_cell_angle_alpha    90.0001
_cell_angle_beta     104.024
_cell_angle_gamma    90

_space_group_name_H-M_alt    "P 1"
_space_group_IT_number       1

loop_
  _space_group_symop_operation_xyz
  'x, y, z'

loop_
  _atom_site_type_symbol
  _atom_site_label
  _atom_site_symmetry_multiplicity
  _atom_site_fract_x
  _atom_site_fract_y
  _atom_site_fract_z
  _atom_site_occupancy
  Ca  Ca1       1.0  0.08821  0.55628  0.17195  1.0000
  Ca  Ca2       1.0  0.41179  0.05628  0.32805  1.0000
  Ca  Ca3       1.0  0.91179  0.44372  0.82805  1.0000
  Ca  Ca4       1.0  0.58821  0.94372  0.67195  1.0000
  H   H1        1.0  0.53616  0.62473  0.11295  1.0000
  H   H2        1.0  0.96384  0.12472  0.38706  1.0000
  H   H3        1.0  0.46384  0.37528  0.88705  1.0000
  H   H4        1.0  0.03616  0.87528  0.61295  1.0000
  H   H5        1.0  0.35928  0.60579  0.98211  1.0000
  H   H6        1.0  0.14072  0.10579  0.51789  1.0000
  H   H7        1.0  0.64072  0.39421  0.01789  1.0000
  H   H8        1.0  0.85928  0.89421  0.48211  1.0000
  H   H9        1.0  0.78804  0.68515  0.55513  1.0000
  H   H10       1.0  0.71196  0.18515  0.94486  1.0000
  H   H11       1.0  0.21196  0.31485  0.44486  1.0000
  H   H12       1.0  0.28804  0.81486  0.05514  1.0000
  H   H13       1.0  0.76161  0.60044  0.33120  1.0000
  H   H14       1.0  0.73839  0.10044  0.16880  1.0000
  H   H15       1.0  0.23838  0.39956  0.66880  1.0000
  H   H16       1.0  0.26162  0.89956  0.83120  1.0000
  C   C1        1.0  0.73452  0.32441  0.28645  1.0000
  C   C2        1.0  0.76548  0.82441  0.21355  1.0000
  C   C3        1.0  0.26549  0.67558  0.71355  1.0000
  C   C4        1.0  0.23452  0.17559  0.78645  1.0000
  C   C5        1.0  0.72769  0.39799  0.40356  1.0000
  C   C6        1.0  0.77231  0.89799  0.09644  1.0000
  C   C7        1.0  0.27231  0.60201  0.59644  1.0000
  C   C8        1.0  0.22769  0.10201  0.90356  1.0000
  C   C9        1.0  0.69164  0.23237  0.59201  1.0000
  C   C10       1.0  0.80836  0.73237  0.90799  1.0000
  C   C11       1.0  0.30835  0.76763  0.40799  1.0000
  C   C12       1.0  0.19164  0.26763  0.09201  1.0000
  C   C13       1.0  0.76652  0.57950  0.52632  1.0000
  C   C14       1.0  0.73348  0.07950  0.97368  1.0000
  C   C15       1.0  0.23347  0.42050  0.47368  1.0000
  C   C16       1.0  0.26653  0.92050  0.02632  1.0000
  C   C17       1.0  0.72450  0.36094  0.52745  1.0000
  C   C18       1.0  0.77550  0.86094  0.97255  1.0000
  C   C19       1.0  0.27550  0.63906  0.47255  1.0000
  C   C20       1.0  0.22450  0.13906  0.02745  1.0000
  N   N1        1.0  0.75301  0.47565  0.60215  1.0000
  N   N2        1.0  0.74699  0.97565  0.89785  1.0000
  N   N3        1.0  0.24699  0.52435  0.39785  1.0000
  N   N4        1.0  0.25301  0.02436  0.10215  1.0000
  N   N5        1.0  0.75318  0.53684  0.40758  1.0000
  N   N6        1.0  0.74682  0.03684  0.09243  1.0000
  N   N7        1.0  0.24682  0.46316  0.59242  1.0000
  N   N8        1.0  0.25318  0.96316  0.90758  1.0000
  O   O1        1.0  0.77381  0.39194  0.19553  1.0000
  O   O2        1.0  0.72619  0.89194  0.30448  1.0000
  O   O3        1.0  0.22619  0.60806  0.80447  1.0000
  O   O4        1.0  0.27381  0.10806  0.69552  1.0000
  O   O5        1.0  0.74924  0.23099  0.71181  1.0000
  O   O6        1.0  0.75076  0.73099  0.78819  1.0000
  O   O7        1.0  0.25076  0.76901  0.28819  1.0000
  O   O8        1.0  0.24924  0.26901  0.21181  1.0000
  O   O9        1.0  0.60071  0.13087  0.52694  1.0000
  O   O10       1.0  0.89929  0.63087  0.97306  1.0000
  O   O11       1.0  0.39929  0.86913  0.47306  1.0000
  O   O12       1.0  0.10071  0.36913  0.02694  1.0000
  O   O13       1.0  0.70828  0.19471  0.28654  1.0000
  O   O14       1.0  0.79171  0.69472  0.21346  1.0000
  O   O15       1.0  0.29172  0.80529  0.71346  1.0000
  O   O16       1.0  0.20829  0.30528  0.78654  1.0000
  O   O17       1.0  0.38248  0.60729  0.07494  1.0000
  O   O18       1.0  0.11752  0.10729  0.42506  1.0000
  O   O19       1.0  0.61752  0.39271  0.92506  1.0000
  O   O20       1.0  0.88248  0.89271  0.57494  1.0000
