data_image0
_chemical_formula_structural       Cd2H24C28S2O16
_chemical_formula_sum              "Cd2 H24 C28 S2 O16"
_cell_length_a       5.26029
_cell_length_b       12.1027
_cell_length_c       13.1657
_cell_angle_alpha    115.984
_cell_angle_beta     89.9983
_cell_angle_gamma    90.0015

_space_group_name_H-M_alt    "P 1"
_space_group_IT_number       1

loop_
  _space_group_symop_operation_xyz
  'x, y, z'

loop_
  _atom_site_type_symbol
  _atom_site_label
  _atom_site_symmetry_multiplicity
  _atom_site_fract_x
  _atom_site_fract_y
  _atom_site_fract_z
  _atom_site_occupancy
  Cd  Cd1       1.0  0.03979  0.75000  0.00000  1.0000
  Cd  Cd2       1.0  0.96021  0.25000  1.00000  1.0000
  H   H1        1.0  0.75204  0.60319  0.08885  1.0000
  H   H2        1.0  0.75203  0.89681  0.91116  1.0000
  H   H3        1.0  0.24796  0.39681  0.91116  1.0000
  H   H4        1.0  0.24797  0.10319  0.08885  1.0000
  H   H5        1.0  0.60286  0.73197  0.11587  1.0000
  H   H6        1.0  0.60287  0.76802  0.88414  1.0000
  H   H7        1.0  0.39714  0.26802  0.88414  1.0000
  H   H8        1.0  0.39713  0.23198  0.11586  1.0000
  H   H9        1.0  0.52411  0.90973  0.33558  1.0000
  H   H10       1.0  0.52408  0.59026  0.66442  1.0000
  H   H11       1.0  0.47589  0.09027  0.66442  1.0000
  H   H12       1.0  0.47591  0.40974  0.33558  1.0000
  H   H13       1.0  0.82619  0.04228  0.48177  1.0000
  H   H14       1.0  0.82616  0.45772  0.51822  1.0000
  H   H15       1.0  0.17382  0.95772  0.51823  1.0000
  H   H16       1.0  0.17383  0.54228  0.48178  1.0000
  H   H17       1.0  0.97721  0.24556  0.28773  1.0000
  H   H18       1.0  0.97724  0.25446  0.71227  1.0000
  H   H19       1.0  0.02278  0.75445  0.71227  1.0000
  H   H20       1.0  0.02277  0.74554  0.28773  1.0000
  H   H21       1.0  0.67210  0.11148  0.14118  1.0000
  H   H22       1.0  0.67211  0.38852  0.85882  1.0000
  H   H23       1.0  0.32790  0.88852  0.85882  1.0000
  H   H24       1.0  0.32789  0.61148  0.14118  1.0000
  C   C1        1.0  0.38031  0.92750  0.14663  1.0000
  C   C2        1.0  0.38031  0.57250  0.85338  1.0000
  C   C3        1.0  0.61969  0.07250  0.85337  1.0000
  C   C4        1.0  0.61969  0.42750  0.14662  1.0000
  C   C5        1.0  0.57244  0.00508  0.23085  1.0000
  C   C6        1.0  0.57243  0.49491  0.76915  1.0000
  C   C7        1.0  0.42756  0.99492  0.76915  1.0000
  C   C8        1.0  0.42757  0.50509  0.23085  1.0000
  C   C9        1.0  0.62139  0.98365  0.32552  1.0000
  C   C10       1.0  0.62137  0.51635  0.67447  1.0000
  C   C11       1.0  0.37861  0.01635  0.67448  1.0000
  C   C12       1.0  0.37863  0.48365  0.32553  1.0000
  C   C13       1.0  0.79246  0.05781  0.40749  1.0000
  C   C14       1.0  0.79244  0.44219  0.59250  1.0000
  C   C15       1.0  0.20754  0.94218  0.59251  1.0000
  C   C16       1.0  0.20756  0.55781  0.40750  1.0000
  C   C17       1.0  0.91679  0.15206  0.39311  1.0000
  C   C18       1.0  0.91679  0.34795  0.60688  1.0000
  C   C19       1.0  0.08321  0.84794  0.60689  1.0000
  C   C20       1.0  0.08321  0.65205  0.39312  1.0000
  C   C21       1.0  0.87444  0.17324  0.29839  1.0000
  C   C22       1.0  0.87445  0.32677  0.70161  1.0000
  C   C23       1.0  0.12556  0.82677  0.70161  1.0000
  C   C24       1.0  0.12555  0.67323  0.29839  1.0000
  C   C25       1.0  0.70182  0.09876  0.21706  1.0000
  C   C26       1.0  0.70182  0.40125  0.78294  1.0000
  C   C27       1.0  0.29818  0.90124  0.78294  1.0000
  C   C28       1.0  0.29818  0.59875  0.21706  1.0000
  S   S1        1.0  0.12953  0.25001  0.50000  1.0000
  S   S2        1.0  0.87048  0.74999  0.50001  1.0000
  O   O1        1.0  0.33824  0.81944  0.14010  1.0000
  O   O2        1.0  0.33824  0.68056  0.85991  1.0000
  O   O3        1.0  0.66176  0.18056  0.85990  1.0000
  O   O4        1.0  0.66176  0.31945  0.14010  1.0000
  O   O5        1.0  0.26034  0.96505  0.08405  1.0000
  O   O6        1.0  0.26034  0.53494  0.91595  1.0000
  O   O7        1.0  0.73966  0.03495  0.91595  1.0000
  O   O8        1.0  0.73967  0.46506  0.08405  1.0000
  O   O9        1.0  0.26731  0.32299  0.45537  1.0000
  O   O10       1.0  0.26731  0.17703  0.54462  1.0000
  O   O11       1.0  0.73270  0.67702  0.54463  1.0000
  O   O12       1.0  0.73269  0.82297  0.45538  1.0000
  O   O13       1.0  0.76778  0.68761  0.09252  1.0000
  O   O14       1.0  0.76778  0.81239  0.90749  1.0000
  O   O15       1.0  0.23222  0.31238  0.90748  1.0000
  O   O16       1.0  0.23222  0.18761  0.09251  1.0000
