data_image0
_chemical_formula_structural       Na8H32C32O32
_chemical_formula_sum              "Na8 H32 C32 O32"
_cell_length_a       8.67623
_cell_length_b       8.90313
_cell_length_c       12.5306
_cell_angle_alpha    90
_cell_angle_beta     90
_cell_angle_gamma    90

_space_group_name_H-M_alt    "P 1"
_space_group_IT_number       1

loop_
  _space_group_symop_operation_xyz
  'x, y, z'

loop_
  _atom_site_type_symbol
  _atom_site_label
  _atom_site_symmetry_multiplicity
  _atom_site_fract_x
  _atom_site_fract_y
  _atom_site_fract_z
  _atom_site_occupancy
  Na  Na1       1.0  0.93216  0.08089  0.36909  1.0000
  Na  Na2       1.0  0.56784  0.41911  0.86909  1.0000
  Na  Na3       1.0  0.93216  0.91911  0.13091  1.0000
  Na  Na4       1.0  0.56784  0.58089  0.63091  1.0000
  Na  Na5       1.0  0.06784  0.91911  0.63091  1.0000
  Na  Na6       1.0  0.43216  0.58089  0.13091  1.0000
  Na  Na7       1.0  0.06784  0.08089  0.86909  1.0000
  Na  Na8       1.0  0.43216  0.41911  0.36909  1.0000
  H   H1        1.0  0.49577  0.74663  0.43434  1.0000
  H   H2        1.0  0.00423  0.75337  0.93434  1.0000
  H   H3        1.0  0.49576  0.25337  0.06566  1.0000
  H   H4        1.0  0.00423  0.24663  0.56566  1.0000
  H   H5        1.0  0.50423  0.25337  0.56566  1.0000
  H   H6        1.0  0.99577  0.24663  0.06566  1.0000
  H   H7        1.0  0.50423  0.74663  0.93434  1.0000
  H   H8        1.0  0.99577  0.75337  0.43434  1.0000
  H   H9        1.0  0.43094  0.87915  0.34176  1.0000
  H   H10       1.0  0.06906  0.62085  0.84176  1.0000
  H   H11       1.0  0.43094  0.12085  0.15824  1.0000
  H   H12       1.0  0.06906  0.37916  0.65824  1.0000
  H   H13       1.0  0.56906  0.12085  0.65824  1.0000
  H   H14       1.0  0.93094  0.37915  0.15824  1.0000
  H   H15       1.0  0.56906  0.87915  0.84176  1.0000
  H   H16       1.0  0.93094  0.62085  0.34176  1.0000
  H   H17       1.0  0.61174  0.07322  0.42132  1.0000
  H   H18       1.0  0.88826  0.42678  0.92132  1.0000
  H   H19       1.0  0.61174  0.92679  0.07868  1.0000
  H   H20       1.0  0.88826  0.57322  0.57868  1.0000
  H   H21       1.0  0.38826  0.92679  0.57868  1.0000
  H   H22       1.0  0.11174  0.57322  0.07868  1.0000
  H   H23       1.0  0.38826  0.07322  0.92132  1.0000
  H   H24       1.0  0.11174  0.42678  0.42132  1.0000
  H   H25       1.0  0.71773  0.68296  0.18998  1.0000
  H   H26       1.0  0.78227  0.81704  0.68998  1.0000
  H   H27       1.0  0.71773  0.31704  0.31002  1.0000
  H   H28       1.0  0.78227  0.18296  0.81002  1.0000
  H   H29       1.0  0.28227  0.31704  0.81002  1.0000
  H   H30       1.0  0.21773  0.18296  0.31002  1.0000
  H   H31       1.0  0.28227  0.68296  0.68998  1.0000
  H   H32       1.0  0.21773  0.81704  0.18998  1.0000
  C   C1        1.0  0.65792  0.80664  0.31388  1.0000
  C   C2        1.0  0.84207  0.69336  0.81388  1.0000
  C   C3        1.0  0.65793  0.19336  0.18612  1.0000
  C   C4        1.0  0.84207  0.30664  0.68612  1.0000
  C   C5        1.0  0.34207  0.19336  0.68612  1.0000
  C   C6        1.0  0.15793  0.30664  0.18612  1.0000
  C   C7        1.0  0.34208  0.80664  0.81388  1.0000
  C   C8        1.0  0.15793  0.69336  0.31388  1.0000
  C   C9        1.0  0.53120  0.84806  0.39083  1.0000
  C   C10       1.0  0.96880  0.65194  0.89084  1.0000
  C   C11       1.0  0.53120  0.15194  0.10917  1.0000
  C   C12       1.0  0.96880  0.34806  0.60917  1.0000
  C   C13       1.0  0.46880  0.15195  0.60917  1.0000
  C   C14       1.0  0.03120  0.34806  0.10917  1.0000
  C   C15       1.0  0.46880  0.84806  0.89084  1.0000
  C   C16       1.0  0.03120  0.65194  0.39083  1.0000
  C   C17       1.0  0.57190  0.97597  0.46765  1.0000
  C   C18       1.0  0.92810  0.52403  0.96765  1.0000
  C   C19       1.0  0.57190  0.02403  0.03235  1.0000
  C   C20       1.0  0.92810  0.47597  0.53235  1.0000
  C   C21       1.0  0.42810  0.02403  0.53235  1.0000
  C   C22       1.0  0.07190  0.47597  0.03235  1.0000
  C   C23       1.0  0.42810  0.97597  0.96765  1.0000
  C   C24       1.0  0.07190  0.52403  0.46765  1.0000
  C   C25       1.0  0.70252  0.92946  0.54325  1.0000
  C   C26       1.0  0.79748  0.57054  0.04325  1.0000
  C   C27       1.0  0.70252  0.07054  0.95675  1.0000
  C   C28       1.0  0.79748  0.42946  0.45675  1.0000
  C   C29       1.0  0.29748  0.07054  0.45675  1.0000
  C   C30       1.0  0.20252  0.42946  0.95675  1.0000
  C   C31       1.0  0.29748  0.92946  0.04325  1.0000
  C   C32       1.0  0.20252  0.57054  0.54325  1.0000
  O   O1        1.0  0.78270  0.87414  0.30951  1.0000
  O   O2        1.0  0.71730  0.62586  0.80951  1.0000
  O   O3        1.0  0.78270  0.12586  0.19049  1.0000
  O   O4        1.0  0.71730  0.37414  0.69049  1.0000
  O   O5        1.0  0.21730  0.12586  0.69049  1.0000
  O   O6        1.0  0.28270  0.37414  0.19049  1.0000
  O   O7        1.0  0.21730  0.87414  0.80951  1.0000
  O   O8        1.0  0.28270  0.62586  0.30951  1.0000
  O   O9        1.0  0.62485  0.69412  0.24881  1.0000
  O   O10       1.0  0.87515  0.80588  0.74881  1.0000
  O   O11       1.0  0.62485  0.30588  0.25119  1.0000
  O   O12       1.0  0.87515  0.19412  0.75119  1.0000
  O   O13       1.0  0.37515  0.30589  0.75119  1.0000
  O   O14       1.0  0.12485  0.19412  0.25119  1.0000
  O   O15       1.0  0.37515  0.69412  0.74881  1.0000
  O   O16       1.0  0.12485  0.80588  0.24881  1.0000
  O   O17       1.0  0.83316  0.99016  0.53634  1.0000
  O   O18       1.0  0.66684  0.50984  0.03634  1.0000
  O   O19       1.0  0.83316  0.00984  0.96366  1.0000
  O   O20       1.0  0.66684  0.49016  0.46366  1.0000
  O   O21       1.0  0.16684  0.00984  0.46366  1.0000
  O   O22       1.0  0.33316  0.49016  0.96366  1.0000
  O   O23       1.0  0.16684  0.99016  0.03634  1.0000
  O   O24       1.0  0.33316  0.50984  0.53634  1.0000
  O   O25       1.0  0.66841  0.82766  0.61278  1.0000
  O   O26       1.0  0.83159  0.67235  0.11278  1.0000
  O   O27       1.0  0.66841  0.17235  0.88722  1.0000
  O   O28       1.0  0.83159  0.32765  0.38722  1.0000
  O   O29       1.0  0.33159  0.17235  0.38722  1.0000
  O   O30       1.0  0.16841  0.32765  0.88722  1.0000
  O   O31       1.0  0.33159  0.82766  0.11278  1.0000
  O   O32       1.0  0.16841  0.67235  0.61278  1.0000
