data_image0
_chemical_formula_structural       H24Pb2C28N4O8
_chemical_formula_sum              "H24 Pb2 C28 N4 O8"
_cell_length_a       6.75161
_cell_length_b       7.94144
_cell_length_c       13.8381
_cell_angle_alpha    74.8933
_cell_angle_beta     88.0807
_cell_angle_gamma    69.2761

_space_group_name_H-M_alt    "P 1"
_space_group_IT_number       1

loop_
  _space_group_symop_operation_xyz
  'x, y, z'

loop_
  _atom_site_type_symbol
  _atom_site_label
  _atom_site_symmetry_multiplicity
  _atom_site_fract_x
  _atom_site_fract_y
  _atom_site_fract_z
  _atom_site_occupancy
  H   H1        1.0  0.58433  0.67814  0.35694  1.0000
  H   H2        1.0  0.41565  0.32187  0.64305  1.0000
  H   H3        1.0  0.62642  0.56306  0.48086  1.0000
  H   H4        1.0  0.37357  0.43695  0.51913  1.0000
  H   H5        1.0  0.01729  0.23749  0.96308  1.0000
  H   H6        1.0  0.98272  0.76249  0.03692  1.0000
  H   H7        1.0  0.02653  0.14045  0.86939  1.0000
  H   H8        1.0  0.97348  0.85954  0.13060  1.0000
  H   H9        1.0  0.67935  0.51849  0.22692  1.0000
  H   H10       1.0  0.32062  0.48152  0.77307  1.0000
  H   H11       1.0  0.74064  0.21794  0.53862  1.0000
  H   H12       1.0  0.25936  0.78208  0.46138  1.0000
  H   H13       1.0  0.79380  0.92860  0.48923  1.0000
  H   H14       1.0  0.20620  0.07140  0.51077  1.0000
  H   H15       1.0  0.78072  0.93191  0.30867  1.0000
  H   H16       1.0  0.21928  0.06809  0.69133  1.0000
  H   H17       1.0  0.84985  0.57148  0.94396  1.0000
  H   H18       1.0  0.15014  0.42850  0.05605  1.0000
  H   H19       1.0  0.91473  0.32613  0.69631  1.0000
  H   H20       1.0  0.08528  0.67386  0.30369  1.0000
  H   H21       1.0  0.81185  0.64159  0.57766  1.0000
  H   H22       1.0  0.18814  0.35841  0.42234  1.0000
  H   H23       1.0  0.71003  0.92540  0.64286  1.0000
  H   H24       1.0  0.28998  0.07460  0.35715  1.0000
  Pb  Pb1       1.0  0.57319  0.23656  0.94713  1.0000
  Pb  Pb2       1.0  0.42682  0.76345  0.05287  1.0000
  C   C1        1.0  0.72079  0.23257  0.14865  1.0000
  C   C2        1.0  0.27921  0.76743  0.85135  1.0000
  C   C3        1.0  0.73005  0.22614  0.25698  1.0000
  C   C4        1.0  0.26993  0.77387  0.74302  1.0000
  C   C5        1.0  0.69799  0.39004  0.28458  1.0000
  C   C6        1.0  0.30200  0.60996  0.71541  1.0000
  C   C7        1.0  0.69561  0.39266  0.38566  1.0000
  C   C8        1.0  0.30438  0.60735  0.61434  1.0000
  C   C9        1.0  0.73380  0.22238  0.45924  1.0000
  C   C10       1.0  0.26621  0.77763  0.54076  1.0000
  C   C11       1.0  0.76548  0.05846  0.43121  1.0000
  C   C12       1.0  0.23451  0.94154  0.56879  1.0000
  C   C13       1.0  0.76249  0.05815  0.33082  1.0000
  C   C14       1.0  0.23751  0.94185  0.66918  1.0000
  C   C15       1.0  0.71129  0.93377  0.83728  1.0000
  C   C16       1.0  0.28871  0.06622  0.16272  1.0000
  C   C17       1.0  0.77359  0.76600  0.79707  1.0000
  C   C18       1.0  0.22642  0.23399  0.20293  1.0000
  C   C19       1.0  0.84027  0.58757  0.86351  1.0000
  C   C20       1.0  0.15974  0.41242  0.13650  1.0000
  C   C21       1.0  0.89088  0.42888  0.82787  1.0000
  C   C22       1.0  0.10913  0.57111  0.17213  1.0000
  C   C23       1.0  0.87714  0.44946  0.72434  1.0000
  C   C24       1.0  0.12286  0.55054  0.27566  1.0000
  C   C25       1.0  0.81532  0.62762  0.65814  1.0000
  C   C26       1.0  0.18469  0.37238  0.34187  1.0000
  C   C27       1.0  0.76159  0.78577  0.69364  1.0000
  C   C28       1.0  0.23842  0.21422  0.30637  1.0000
  N   N1        1.0  0.66568  0.55837  0.40999  1.0000
  N   N2        1.0  0.33431  0.44164  0.59001  1.0000
  N   N3        1.0  0.93945  0.25096  0.89735  1.0000
  N   N4        1.0  0.06057  0.74903  0.10265  1.0000
  O   O1        1.0  0.74434  0.08137  0.12390  1.0000
  O   O2        1.0  0.25564  0.91863  0.87610  1.0000
  O   O3        1.0  0.68251  0.38741  0.08210  1.0000
  O   O4        1.0  0.31750  0.61259  0.91789  1.0000
  O   O5        1.0  0.64645  0.09660  0.77888  1.0000
  O   O6        1.0  0.35356  0.90339  0.22112  1.0000
  O   O7        1.0  0.72639  0.90304  0.93470  1.0000
  O   O8        1.0  0.27359  0.09696  0.06531  1.0000
