data_image0
_chemical_formula_structural       Mg2H32C32N4O20
_chemical_formula_sum              "Mg2 H32 C32 N4 O20"
_cell_length_a       7.05964
_cell_length_b       9.97563
_cell_length_c       11.0877
_cell_angle_alpha    90.0005
_cell_angle_beta     92.8377
_cell_angle_gamma    89.9992

_space_group_name_H-M_alt    "P 1"
_space_group_IT_number       1

loop_
  _space_group_symop_operation_xyz
  'x, y, z'

loop_
  _atom_site_type_symbol
  _atom_site_label
  _atom_site_symmetry_multiplicity
  _atom_site_fract_x
  _atom_site_fract_y
  _atom_site_fract_z
  _atom_site_occupancy
  Mg  Mg1       1.0  0.25001  0.72107  0.75000  1.0000
  Mg  Mg2       1.0  0.75000  0.27893  0.25000  1.0000
  H   H1        1.0  0.16576  0.03341  0.96905  1.0000
  H   H2        1.0  0.33424  0.03341  0.53095  1.0000
  H   H3        1.0  0.83424  0.96659  0.03095  1.0000
  H   H4        1.0  0.66576  0.96659  0.46905  1.0000
  H   H5        1.0  0.13307  0.46327  0.93845  1.0000
  H   H6        1.0  0.36693  0.46327  0.56154  1.0000
  H   H7        1.0  0.86693  0.53673  0.06154  1.0000
  H   H8        1.0  0.63306  0.53673  0.43846  1.0000
  H   H9        1.0  0.91946  0.21251  0.64619  1.0000
  H   H10       1.0  0.58054  0.21251  0.85381  1.0000
  H   H11       1.0  0.08053  0.78749  0.35381  1.0000
  H   H12       1.0  0.41946  0.78749  0.14619  1.0000
  H   H13       1.0  0.16478  0.64990  0.49433  1.0000
  H   H14       1.0  0.33523  0.64990  0.00566  1.0000
  H   H15       1.0  0.83522  0.35010  0.50567  1.0000
  H   H16       1.0  0.66478  0.35010  0.99433  1.0000
  H   H17       1.0  0.26460  0.79011  0.52237  1.0000
  H   H18       1.0  0.23542  0.79012  0.97763  1.0000
  H   H19       1.0  0.73541  0.20989  0.47763  1.0000
  H   H20       1.0  0.76459  0.20988  0.02237  1.0000
  H   H21       1.0  0.32871  0.17906  0.11018  1.0000
  H   H22       1.0  0.17128  0.17906  0.38982  1.0000
  H   H23       1.0  0.67129  0.82094  0.88982  1.0000
  H   H24       1.0  0.82872  0.82094  0.61018  1.0000
  H   H25       1.0  0.13201  0.26403  0.14868  1.0000
  H   H26       1.0  0.36799  0.26401  0.35132  1.0000
  H   H27       1.0  0.86799  0.73598  0.85132  1.0000
  H   H28       1.0  0.63201  0.73600  0.64868  1.0000
  H   H29       1.0  0.31200  0.35524  0.09657  1.0000
  H   H30       1.0  0.18800  0.35524  0.40343  1.0000
  H   H31       1.0  0.68800  0.64475  0.90343  1.0000
  H   H32       1.0  0.81200  0.64476  0.59657  1.0000
  C   C1        1.0  0.00050  0.97414  0.74528  1.0000
  C   C2        1.0  0.49950  0.97414  0.75471  1.0000
  C   C3        1.0  0.99950  0.02586  0.25472  1.0000
  C   C4        1.0  0.50050  0.02586  0.24529  1.0000
  C   C5        1.0  0.03351  0.10956  0.80241  1.0000
  C   C6        1.0  0.46650  0.10956  0.69759  1.0000
  C   C7        1.0  0.96648  0.89044  0.19759  1.0000
  C   C8        1.0  0.53350  0.89044  0.30241  1.0000
  C   C9        1.0  0.12039  0.12193  0.91813  1.0000
  C   C10       1.0  0.37960  0.12192  0.58187  1.0000
  C   C11       1.0  0.87961  0.87807  0.08187  1.0000
  C   C12       1.0  0.62039  0.87808  0.41813  1.0000
  C   C13       1.0  0.15272  0.24942  0.96614  1.0000
  C   C14       1.0  0.34728  0.24943  0.53386  1.0000
  C   C15       1.0  0.84728  0.75058  0.03386  1.0000
  C   C16       1.0  0.65272  0.75058  0.46615  1.0000
  C   C17       1.0  0.10432  0.36416  0.90086  1.0000
  C   C18       1.0  0.39567  0.36416  0.59913  1.0000
  C   C19       1.0  0.89568  0.63584  0.09914  1.0000
  C   C20       1.0  0.60432  0.63584  0.40087  1.0000
  C   C21       1.0  0.01981  0.35204  0.78450  1.0000
  C   C22       1.0  0.48020  0.35203  0.71550  1.0000
  C   C23       1.0  0.98019  0.64796  0.21550  1.0000
  C   C24       1.0  0.51980  0.64797  0.28451  1.0000
  C   C25       1.0  0.98284  0.22479  0.73671  1.0000
  C   C26       1.0  0.51717  0.22480  0.76329  1.0000
  C   C27       1.0  0.01716  0.77521  0.26329  1.0000
  C   C28       1.0  0.48283  0.77520  0.23671  1.0000
  C   C29       1.0  0.97475  0.47735  0.71410  1.0000
  C   C30       1.0  0.52526  0.47734  0.78590  1.0000
  C   C31       1.0  0.02525  0.52266  0.28591  1.0000
  C   C32       1.0  0.47474  0.52266  0.21410  1.0000
  N   N1        1.0  0.23884  0.26368  0.08745  1.0000
  N   N2        1.0  0.26116  0.26368  0.41255  1.0000
  N   N3        1.0  0.76116  0.73632  0.91254  1.0000
  N   N4        1.0  0.73884  0.73633  0.58746  1.0000
  O   O1        1.0  0.90861  0.96882  0.64490  1.0000
  O   O2        1.0  0.59139  0.96882  0.85510  1.0000
  O   O3        1.0  0.09138  0.03118  0.35509  1.0000
  O   O4        1.0  0.40861  0.03118  0.14490  1.0000
  O   O5        1.0  0.06906  0.87179  0.80284  1.0000
  O   O6        1.0  0.43094  0.87179  0.69715  1.0000
  O   O7        1.0  0.93094  0.12821  0.19715  1.0000
  O   O8        1.0  0.56906  0.12822  0.30285  1.0000
  O   O9        1.0  0.88081  0.47107  0.61354  1.0000
  O   O10       1.0  0.61919  0.47105  0.88646  1.0000
  O   O11       1.0  0.11918  0.52894  0.38646  1.0000
  O   O12       1.0  0.38082  0.52894  0.11354  1.0000
  O   O13       1.0  0.03236  0.58792  0.76130  1.0000
  O   O14       1.0  0.46766  0.58792  0.73870  1.0000
  O   O15       1.0  0.96765  0.41207  0.23870  1.0000
  O   O16       1.0  0.53235  0.41208  0.26130  1.0000
  O   O17       1.0  0.19067  0.71936  0.55803  1.0000
  O   O18       1.0  0.30934  0.71936  0.94197  1.0000
  O   O19       1.0  0.80933  0.28064  0.44197  1.0000
  O   O20       1.0  0.69066  0.28064  0.05803  1.0000
