data_image0
_chemical_formula_structural       Cd2H24C32N8Cl4O4
_chemical_formula_sum              "Cd2 H24 C32 N8 Cl4 O4"
_cell_length_a       3.74377
_cell_length_b       14.4985
_cell_length_c       15.7435
_cell_angle_alpha    71.8681
_cell_angle_beta     83.1474
_cell_angle_gamma    82.5657

_space_group_name_H-M_alt    "P 1"
_space_group_IT_number       1

loop_
  _space_group_symop_operation_xyz
  'x, y, z'

loop_
  _atom_site_type_symbol
  _atom_site_label
  _atom_site_symmetry_multiplicity
  _atom_site_fract_x
  _atom_site_fract_y
  _atom_site_fract_z
  _atom_site_occupancy
  Cd  Cd1       1.0  0.59136  0.24997  0.75003  1.0000
  Cd  Cd2       1.0  0.40864  0.75003  0.24997  1.0000
  H   H1        1.0  0.73108  0.18402  0.58004  1.0000
  H   H2        1.0  0.49485  0.31593  0.92001  1.0000
  H   H3        1.0  0.26892  0.81598  0.41996  1.0000
  H   H4        1.0  0.50515  0.68407  0.07999  1.0000
  H   H5        1.0  0.31139  0.79101  0.76054  1.0000
  H   H6        1.0  0.86285  0.70899  0.73961  1.0000
  H   H7        1.0  0.68860  0.20899  0.23946  1.0000
  H   H8        1.0  0.13715  0.29101  0.26038  1.0000
  H   H9        1.0  0.31882  0.75368  0.92547  1.0000
  H   H10       1.0  0.99752  0.74627  0.57466  1.0000
  H   H11       1.0  0.68119  0.24632  0.07453  1.0000
  H   H12       1.0  0.00248  0.25373  0.42534  1.0000
  H   H13       1.0  0.50779  0.87660  0.98849  1.0000
  H   H14       1.0  0.37208  0.62328  0.51158  1.0000
  H   H15       1.0  0.49222  0.12340  0.01152  1.0000
  H   H16       1.0  0.62792  0.37672  0.48842  1.0000
  H   H17       1.0  0.66941  0.03754  0.88730  1.0000
  H   H18       1.0  0.59403  0.46241  0.61276  1.0000
  H   H19       1.0  0.33059  0.96246  0.11270  1.0000
  H   H20       1.0  0.40597  0.53759  0.38724  1.0000
  H   H21       1.0  0.59514  0.06742  0.51554  1.0000
  H   H22       1.0  0.17796  0.43254  0.98457  1.0000
  H   H23       1.0  0.40486  0.93258  0.48446  1.0000
  H   H24       1.0  0.82204  0.56746  0.01543  1.0000
  C   C1        1.0  0.66405  0.11332  0.62517  1.0000
  C   C2        1.0  0.40219  0.38663  0.87488  1.0000
  C   C3        1.0  0.33595  0.88668  0.37483  1.0000
  C   C4        1.0  0.59780  0.61337  0.12511  1.0000
  C   C5        1.0  0.48435  0.95635  0.63509  1.0000
  C   C6        1.0  0.07551  0.54362  0.86502  1.0000
  C   C7        1.0  0.51565  0.04365  0.36491  1.0000
  C   C8        1.0  0.92449  0.45638  0.13498  1.0000
  C   C9        1.0  0.48174  0.93461  0.73156  1.0000
  C   C10       1.0  0.14774  0.56537  0.76855  1.0000
  C   C11       1.0  0.51826  0.06539  0.26844  1.0000
  C   C12       1.0  0.85226  0.43463  0.23145  1.0000
  C   C13       1.0  0.38862  0.84393  0.78940  1.0000
  C   C14       1.0  0.02182  0.65607  0.71072  1.0000
  C   C15       1.0  0.61138  0.15607  0.21060  1.0000
  C   C16       1.0  0.97818  0.34393  0.28928  1.0000
  C   C17       1.0  0.39446  0.82378  0.88112  1.0000
  C   C18       1.0  0.09888  0.67617  0.61900  1.0000
  C   C19       1.0  0.60554  0.17622  0.11888  1.0000
  C   C20       1.0  0.90112  0.32383  0.38100  1.0000
  C   C21       1.0  0.49742  0.89349  0.91633  1.0000
  C   C22       1.0  0.30657  0.60642  0.58375  1.0000
  C   C23       1.0  0.50258  0.10651  0.08367  1.0000
  C   C24       1.0  0.69343  0.39358  0.41625  1.0000
  C   C25       1.0  0.58657  0.98365  0.86050  1.0000
  C   C26       1.0  0.43044  0.51631  0.63958  1.0000
  C   C27       1.0  0.41342  0.01635  0.13951  1.0000
  C   C28       1.0  0.56957  0.48369  0.36042  1.0000
  C   C29       1.0  0.57595  0.00623  0.76724  1.0000
  C   C30       1.0  0.34942  0.49375  0.73285  1.0000
  C   C31       1.0  0.42404  0.99377  0.23276  1.0000
  C   C32       1.0  0.65058  0.50625  0.26715  1.0000
  N   N1        1.0  0.65934  0.09741  0.71151  1.0000
  N   N2        1.0  0.46818  0.40255  0.78856  1.0000
  N   N3        1.0  0.34065  0.90259  0.28850  1.0000
  N   N4        1.0  0.53182  0.59745  0.21144  1.0000
  N   N5        1.0  0.58794  0.04766  0.58617  1.0000
  N   N6        1.0  0.22147  0.45231  0.91392  1.0000
  N   N7        1.0  0.41206  0.95234  0.41383  1.0000
  N   N8        1.0  0.77853  0.54769  0.08608  1.0000
  Cl  Cl1       1.0  0.11508  0.30917  0.62698  1.0000
  Cl  Cl2       1.0  0.05128  0.19073  0.87308  1.0000
  Cl  Cl3       1.0  0.88492  0.69083  0.37302  1.0000
  Cl  Cl4       1.0  0.94872  0.80927  0.12692  1.0000
  O   O1        1.0  0.40100  0.89998  0.59593  1.0000
  O   O2        1.0  0.89643  0.60002  0.90418  1.0000
  O   O3        1.0  0.59900  0.10002  0.40407  1.0000
  O   O4        1.0  0.10357  0.39998  0.09582  1.0000
