data_image0
_chemical_formula_structural       Zn2H36C44N8O8
_chemical_formula_sum              "Zn2 H36 C44 N8 O8"
_cell_length_a       10.0011
_cell_length_b       10.1767
_cell_length_c       11.1461
_cell_angle_alpha    99.5235
_cell_angle_beta     102.519
_cell_angle_gamma    112.519

_space_group_name_H-M_alt    "P 1"
_space_group_IT_number       1

loop_
  _space_group_symop_operation_xyz
  'x, y, z'

loop_
  _atom_site_type_symbol
  _atom_site_label
  _atom_site_symmetry_multiplicity
  _atom_site_fract_x
  _atom_site_fract_y
  _atom_site_fract_z
  _atom_site_occupancy
  Zn  Zn1       1.0  0.72184  0.03353  0.88030  1.0000
  Zn  Zn2       1.0  0.27816  0.96647  0.11970  1.0000
  H   H1        1.0  0.98361  0.24003  0.54451  1.0000
  H   H2        1.0  0.01640  0.75997  0.45549  1.0000
  H   H3        1.0  0.02761  0.11935  0.10786  1.0000
  H   H4        1.0  0.97238  0.88065  0.89214  1.0000
  H   H5        1.0  0.78143  0.36334  0.01062  1.0000
  H   H6        1.0  0.21857  0.63666  0.98938  1.0000
  H   H7        1.0  0.37219  0.74199  0.72971  1.0000
  H   H8        1.0  0.62780  0.25801  0.27029  1.0000
  H   H9        1.0  0.06185  0.37810  0.40085  1.0000
  H   H10       1.0  0.93814  0.62190  0.59915  1.0000
  H   H11       1.0  0.30404  0.75364  0.29572  1.0000
  H   H12       1.0  0.69596  0.24636  0.70428  1.0000
  H   H13       1.0  0.63213  0.02634  0.15268  1.0000
  H   H14       1.0  0.36787  0.97366  0.84732  1.0000
  H   H15       1.0  0.77771  0.64254  0.11565  1.0000
  H   H16       1.0  0.22229  0.35746  0.88436  1.0000
  H   H17       1.0  0.91956  0.83194  0.63475  1.0000
  H   H18       1.0  0.08044  0.16806  0.36525  1.0000
  H   H19       1.0  0.36935  0.61169  0.86416  1.0000
  H   H20       1.0  0.63066  0.38831  0.13584  1.0000
  H   H21       1.0  0.26731  0.31050  0.25801  1.0000
  H   H22       1.0  0.73269  0.68950  0.74198  1.0000
  H   H23       1.0  0.31789  0.46777  0.19915  1.0000
  H   H24       1.0  0.68211  0.53223  0.80085  1.0000
  H   H25       1.0  0.05835  0.55575  0.19038  1.0000
  H   H26       1.0  0.94165  0.44425  0.80962  1.0000
  H   H27       1.0  0.11755  0.52462  0.62138  1.0000
  H   H28       1.0  0.88244  0.47538  0.37862  1.0000
  H   H29       1.0  0.56544  0.80459  0.61745  1.0000
  H   H30       1.0  0.43456  0.19541  0.38255  1.0000
  H   H31       1.0  0.66027  0.72977  0.45515  1.0000
  H   H32       1.0  0.33973  0.27023  0.54486  1.0000
  H   H33       1.0  0.54695  0.58124  0.31615  1.0000
  H   H34       1.0  0.45305  0.41876  0.68386  1.0000
  H   H35       1.0  0.75653  0.87132  0.28549  1.0000
  H   H36       1.0  0.24348  0.12867  0.71451  1.0000
  C   C1        1.0  0.99181  0.13541  0.52422  1.0000
  C   C2        1.0  0.00819  0.86459  0.47578  1.0000
  C   C3        1.0  0.88652  0.08365  0.70557  1.0000
  C   C4        1.0  0.11348  0.91635  0.29443  1.0000
  C   C5        1.0  0.94568  0.03990  0.59985  1.0000
  C   C6        1.0  0.05432  0.96009  0.40015  1.0000
  C   C7        1.0  0.99643  0.21003  0.10558  1.0000
  C   C8        1.0  0.00357  0.78997  0.89442  1.0000
  C   C9        1.0  0.66987  0.79425  0.97773  1.0000
  C   C10       1.0  0.33013  0.20575  0.02227  1.0000
  C   C11       1.0  0.87364  0.34131  0.05862  1.0000
  C   C12       1.0  0.12635  0.65868  0.94138  1.0000
  C   C13       1.0  0.28237  0.50468  0.38459  1.0000
  C   C14       1.0  0.71763  0.49532  0.61541  1.0000
  C   C15       1.0  0.42531  0.62638  0.44619  1.0000
  C   C16       1.0  0.57469  0.37362  0.55381  1.0000
  C   C17       1.0  0.58153  0.64218  0.98909  1.0000
  C   C18       1.0  0.41848  0.35782  0.01091  1.0000
  C   C19       1.0  0.34482  0.67543  0.63307  1.0000
  C   C20       1.0  0.65517  0.32457  0.36692  1.0000
  C   C21       1.0  0.17319  0.47088  0.44899  1.0000
  C   C22       1.0  0.82681  0.52912  0.55101  1.0000
  C   C23       1.0  0.40897  0.80459  0.27321  1.0000
  C   C24       1.0  0.59103  0.19540  0.72679  1.0000
  C   C25       1.0  0.58282  0.94704  0.20297  1.0000
  C   C26       1.0  0.41718  0.05296  0.79702  1.0000
  C   C27       1.0  0.65607  0.57923  0.06564  1.0000
  C   C28       1.0  0.34394  0.42077  0.93437  1.0000
  C   C29       1.0  0.95435  0.90431  0.57447  1.0000
  C   C30       1.0  0.04565  0.09569  0.42553  1.0000
  C   C31       1.0  0.42546  0.56172  0.92358  1.0000
  C   C32       1.0  0.57454  0.43828  0.07642  1.0000
  C   C33       1.0  0.24595  0.40806  0.25225  1.0000
  C   C34       1.0  0.75405  0.59195  0.74775  1.0000
  C   C35       1.0  0.01099  0.43754  0.14674  1.0000
  C   C36       1.0  0.98901  0.56246  0.85326  1.0000
  C   C37       1.0  0.20363  0.55453  0.57242  1.0000
  C   C38       1.0  0.79637  0.44548  0.42757  1.0000
  C   C39       1.0  0.45445  0.71041  0.56995  1.0000
  C   C40       1.0  0.54554  0.28959  0.43005  1.0000
  C   C41       1.0  0.54797  0.67459  0.38261  1.0000
  C   C42       1.0  0.45203  0.32540  0.61739  1.0000
  C   C43       1.0  0.64571  0.87110  0.26837  1.0000
  C   C44       1.0  0.35429  0.12890  0.73163  1.0000
  N   N1        1.0  0.43521  0.90442  0.20653  1.0000
  N   N2        1.0  0.56479  0.09557  0.79347  1.0000
  N   N3        1.0  0.86578  0.20026  0.03395  1.0000
  N   N4        1.0  0.13422  0.79974  0.96604  1.0000
  N   N5        1.0  0.08743  0.35241  0.17497  1.0000
  N   N6        1.0  0.91257  0.64759  0.82503  1.0000
  N   N7        1.0  0.53430  0.78154  0.31201  1.0000
  N   N8        1.0  0.46570  0.21846  0.68799  1.0000
  O   O1        1.0  0.81675  0.97759  0.75245  1.0000
  O   O2        1.0  0.18325  0.02241  0.24755  1.0000
  O   O3        1.0  0.90355  0.21406  0.73987  1.0000
  O   O4        1.0  0.09645  0.78594  0.26013  1.0000
  O   O5        1.0  0.59149  0.84341  0.90410  1.0000
  O   O6        1.0  0.40851  0.15659  0.09590  1.0000
  O   O7        1.0  0.80920  0.86400  0.03554  1.0000
  O   O8        1.0  0.19080  0.13601  0.96446  1.0000
