data_image0
_chemical_formula_structural       Cd2H40C36N4O20
_chemical_formula_sum              "Cd2 H40 C36 N4 O20"
_cell_length_a       9.75899
_cell_length_b       9.40215
_cell_length_c       14.0226
_cell_angle_alpha    105.724
_cell_angle_beta     90.0043
_cell_angle_gamma    121.287

_space_group_name_H-M_alt    "P 1"
_space_group_IT_number       1

loop_
  _space_group_symop_operation_xyz
  'x, y, z'

loop_
  _atom_site_type_symbol
  _atom_site_label
  _atom_site_symmetry_multiplicity
  _atom_site_fract_x
  _atom_site_fract_y
  _atom_site_fract_z
  _atom_site_occupancy
  Cd  Cd1       1.0  0.36690  1.00000  0.74999  1.0000
  Cd  Cd2       1.0  0.63310  1.00000  0.25001  1.0000
  H   H1        1.0  0.60126  0.31613  0.74883  1.0000
  H   H2        1.0  0.28498  0.68401  0.75121  1.0000
  H   H3        1.0  0.39874  0.68387  0.25117  1.0000
  H   H4        1.0  0.71502  0.31599  0.24879  1.0000
  H   H5        1.0  0.46881  0.35224  0.79808  1.0000
  H   H6        1.0  0.11629  0.64769  0.70190  1.0000
  H   H7        1.0  0.53119  0.64776  0.20192  1.0000
  H   H8        1.0  0.88371  0.35230  0.29809  1.0000
  H   H9        1.0  0.06804  0.03684  0.39603  1.0000
  H   H10       1.0  0.03132  0.96308  0.10393  1.0000
  H   H11       1.0  0.93196  0.96317  0.60397  1.0000
  H   H12       1.0  0.96867  0.03692  0.89607  1.0000
  H   H13       1.0  0.06645  0.18303  0.27142  1.0000
  H   H14       1.0  0.88348  0.81705  0.22859  1.0000
  H   H15       1.0  0.93356  0.81698  0.72858  1.0000
  H   H16       1.0  0.11651  0.18295  0.77141  1.0000
  H   H17       1.0  0.33144  0.41549  0.24326  1.0000
  H   H18       1.0  0.91565  0.58450  0.25681  1.0000
  H   H19       1.0  0.66857  0.58452  0.75675  1.0000
  H   H20       1.0  0.08434  0.41550  0.74319  1.0000
  H   H21       1.0  0.59397  0.49931  0.34524  1.0000
  H   H22       1.0  0.09429  0.50055  0.15486  1.0000
  H   H23       1.0  0.40604  0.50069  0.65476  1.0000
  H   H24       1.0  0.90570  0.49945  0.84514  1.0000
  H   H25       1.0  0.57325  0.33702  0.46410  1.0000
  H   H26       1.0  0.23592  0.66266  0.03595  1.0000
  H   H27       1.0  0.42675  0.66297  0.53591  1.0000
  H   H28       1.0  0.76407  0.33734  0.96405  1.0000
  H   H29       1.0  0.43899  0.15488  0.54138  1.0000
  H   H30       1.0  0.28381  0.84471  0.95850  1.0000
  H   H31       1.0  0.56101  0.84511  0.45863  1.0000
  H   H32       1.0  0.71619  0.15529  0.04150  1.0000
  H   H33       1.0  0.22959  0.83531  0.51130  1.0000
  H   H34       1.0  0.39443  0.16423  0.98858  1.0000
  H   H35       1.0  0.77041  0.16469  0.48870  1.0000
  H   H36       1.0  0.60557  0.83577  0.01142  1.0000
  H   H37       1.0  0.11637  0.83255  0.41298  1.0000
  H   H38       1.0  0.28400  0.16723  0.08686  1.0000
  H   H39       1.0  0.88362  0.16745  0.58702  1.0000
  H   H40       1.0  0.71600  0.83277  0.91314  1.0000
  C   C1        1.0  0.17947  0.14163  0.38253  1.0000
  C   C2        1.0  0.03791  0.85829  0.11748  1.0000
  C   C3        1.0  0.82053  0.85837  0.61746  1.0000
  C   C4        1.0  0.96209  0.14171  0.88253  1.0000
  C   C5        1.0  0.18142  0.22460  0.31426  1.0000
  C   C6        1.0  0.95683  0.77540  0.18579  1.0000
  C   C7        1.0  0.81859  0.77542  0.68574  1.0000
  C   C8        1.0  0.04317  0.22460  0.81421  1.0000
  C   C9        1.0  0.33028  0.35399  0.29904  1.0000
  C   C10       1.0  0.97610  0.64595  0.20103  1.0000
  C   C11       1.0  0.66973  0.64601  0.70096  1.0000
  C   C12       1.0  0.02390  0.35405  0.79897  1.0000
  C   C13       1.0  0.47433  0.39908  0.35385  1.0000
  C   C14       1.0  0.07496  0.60076  0.14623  1.0000
  C   C15       1.0  0.52568  0.60092  0.64615  1.0000
  C   C16       1.0  0.92503  0.39924  0.85377  1.0000
  C   C17       1.0  0.46607  0.31183  0.42099  1.0000
  C   C18       1.0  0.15398  0.68790  0.07905  1.0000
  C   C19       1.0  0.53393  0.68817  0.57902  1.0000
  C   C20       1.0  0.84602  0.31210  0.92095  1.0000
  C   C21       1.0  0.31286  0.09317  0.50600  1.0000
  C   C22       1.0  0.21955  0.90652  0.99393  1.0000
  C   C23       1.0  0.68714  0.90683  0.49400  1.0000
  C   C24       1.0  0.78045  0.09348  0.00608  1.0000
  C   C25       1.0  0.21971  0.12534  0.59054  1.0000
  C   C26       1.0  0.09416  0.87448  0.90942  1.0000
  C   C27       1.0  0.78029  0.87466  0.40946  1.0000
  C   C28       1.0  0.90584  0.12552  0.09058  1.0000
  C   C29       1.0  0.24096  0.89746  0.45332  1.0000
  C   C30       1.0  0.34358  0.10221  0.04660  1.0000
  C   C31       1.0  0.75904  0.10254  0.54668  1.0000
  C   C32       1.0  0.65642  0.89778  0.95340  1.0000
  C   C33       1.0  0.34464  0.86103  0.38133  1.0000
  C   C34       1.0  0.48370  0.13868  0.11861  1.0000
  C   C35       1.0  0.65535  0.13897  0.61866  1.0000
  C   C36       1.0  0.51629  0.86131  0.88139  1.0000
  N   N1        1.0  0.32027  0.18512  0.43383  1.0000
  N   N2        1.0  0.13503  0.81462  0.06614  1.0000
  N   N3        1.0  0.67973  0.81488  0.56616  1.0000
  N   N4        1.0  0.86497  0.18538  0.93386  1.0000
  O   O1        1.0  0.21545  0.05980  0.66022  1.0000
  O   O2        1.0  0.15545  0.94012  0.83978  1.0000
  O   O3        1.0  0.78455  0.94018  0.33978  1.0000
  O   O4        1.0  0.84455  0.05988  0.16023  1.0000
  O   O5        1.0  0.15527  0.20939  0.58601  1.0000
  O   O6        1.0  0.94563  0.79044  0.91401  1.0000
  O   O7        1.0  0.84474  0.79062  0.41400  1.0000
  O   O8        1.0  0.05437  0.20957  0.08599  1.0000
  O   O9        1.0  0.46885  0.99440  0.36751  1.0000
  O   O10       1.0  0.47454  0.00532  0.13237  1.0000
  O   O11       1.0  0.53115  0.00560  0.63249  1.0000
  O   O12       1.0  0.52545  0.99468  0.86763  1.0000
  O   O13       1.0  0.59933  0.29739  0.15875  1.0000
  O   O14       1.0  0.30153  0.70237  0.34123  1.0000
  O   O15       1.0  0.40068  0.70260  0.84125  1.0000
  O   O16       1.0  0.69846  0.29763  0.65876  1.0000
  O   O17       1.0  0.53923  0.31100  0.80815  1.0000
  O   O18       1.0  0.22798  0.68901  0.69186  1.0000
  O   O19       1.0  0.46077  0.68900  0.19185  1.0000
  O   O20       1.0  0.77203  0.31099  0.30814  1.0000
