data_image0
_chemical_formula_structural       Ba2Cd2H28C32N4O20
_chemical_formula_sum              "Ba2 Cd2 H28 C32 N4 O20"
_cell_length_a       8.06831
_cell_length_b       8.23555
_cell_length_c       14.3221
_cell_angle_alpha    106.212
_cell_angle_beta     94.4461
_cell_angle_gamma    99.7162

_space_group_name_H-M_alt    "P 1"
_space_group_IT_number       1

loop_
  _space_group_symop_operation_xyz
  'x, y, z'

loop_
  _atom_site_type_symbol
  _atom_site_label
  _atom_site_symmetry_multiplicity
  _atom_site_fract_x
  _atom_site_fract_y
  _atom_site_fract_z
  _atom_site_occupancy
  Ba  Ba1       1.0  0.37045  0.26365  0.72407  1.0000
  Ba  Ba2       1.0  0.62955  0.73635  0.27593  1.0000
  Cd  Cd1       1.0  0.48970  0.14137  0.17988  1.0000
  Cd  Cd2       1.0  0.51030  0.85862  0.82012  1.0000
  H   H1        1.0  0.15359  0.99920  0.82000  1.0000
  H   H2        1.0  0.84640  0.00080  0.18000  1.0000
  H   H3        1.0  0.01012  0.10922  0.83610  1.0000
  H   H4        1.0  0.98988  0.89078  0.16389  1.0000
  H   H5        1.0  0.97613  0.15557  0.57092  1.0000
  H   H6        1.0  0.02386  0.84443  0.42908  1.0000
  H   H7        1.0  0.96143  0.32572  0.66196  1.0000
  H   H8        1.0  0.03857  0.67429  0.33804  1.0000
  H   H9        1.0  0.67816  0.10006  0.57581  1.0000
  H   H10       1.0  0.32184  0.89994  0.42419  1.0000
  H   H11       1.0  0.66971  0.01814  0.66178  1.0000
  H   H12       1.0  0.33030  0.98186  0.33822  1.0000
  H   H13       1.0  0.02970  0.11413  0.07607  1.0000
  H   H14       1.0  0.97030  0.88587  0.92394  1.0000
  H   H15       1.0  0.43498  0.20275  0.99268  1.0000
  H   H16       1.0  0.56502  0.79725  0.00732  1.0000
  H   H17       1.0  0.27870  0.05174  0.00176  1.0000
  H   H18       1.0  0.72130  0.94826  0.99824  1.0000
  H   H19       1.0  0.16341  0.16633  0.44593  1.0000
  H   H20       1.0  0.83659  0.83367  0.55407  1.0000
  H   H21       1.0  0.43895  0.50989  0.06087  1.0000
  H   H22       1.0  0.56105  0.49011  0.93913  1.0000
  H   H23       1.0  0.96322  0.63902  0.14204  1.0000
  H   H24       1.0  0.03678  0.36098  0.85796  1.0000
  H   H25       1.0  0.38123  0.67253  0.43523  1.0000
  H   H26       1.0  0.61877  0.32747  0.56476  1.0000
  H   H27       1.0  0.10970  0.61673  0.67477  1.0000
  H   H28       1.0  0.89031  0.38327  0.32523  1.0000
  C   C1        1.0  0.07990  0.24884  0.08339  1.0000
  C   C2        1.0  0.92010  0.75116  0.91661  1.0000
  C   C3        1.0  0.12375  0.37834  0.56601  1.0000
  C   C4        1.0  0.87625  0.62166  0.43399  1.0000
  C   C5        1.0  0.18695  0.30590  0.47827  1.0000
  C   C6        1.0  0.81306  0.69410  0.52173  1.0000
  C   C7        1.0  0.24458  0.29753  0.06340  1.0000
  C   C8        1.0  0.75542  0.70247  0.93660  1.0000
  C   C9        1.0  0.30955  0.47158  0.07495  1.0000
  C   C10       1.0  0.69045  0.52842  0.92504  1.0000
  C   C11       1.0  0.04444  0.54571  0.12228  1.0000
  C   C12       1.0  0.95556  0.45429  0.87772  1.0000
  C   C13       1.0  0.30858  0.59145  0.47181  1.0000
  C   C14       1.0  0.69142  0.40855  0.52819  1.0000
  C   C15       1.0  0.27974  0.41243  0.43174  1.0000
  C   C16       1.0  0.72026  0.58757  0.56826  1.0000
  C   C17       1.0  0.24806  0.66415  0.55927  1.0000
  C   C18       1.0  0.75195  0.33585  0.44073  1.0000
  C   C19       1.0  0.15719  0.55839  0.60670  1.0000
  C   C20       1.0  0.84281  0.44161  0.39330  1.0000
  C   C21       1.0  0.21019  0.59610  0.10445  1.0000
  C   C22       1.0  0.78981  0.40390  0.89555  1.0000
  C   C23       1.0  0.35256  0.33791  0.34019  1.0000
  C   C24       1.0  0.64745  0.66209  0.65980  1.0000
  C   C25       1.0  0.28101  0.78280  0.11823  1.0000
  C   C26       1.0  0.71899  0.21720  0.88177  1.0000
  C   C27       1.0  0.28348  0.85583  0.60382  1.0000
  C   C28       1.0  0.71653  0.14417  0.39618  1.0000
  C   C29       1.0  0.80200  0.32094  0.13166  1.0000
  C   C30       1.0  0.19800  0.67907  0.86835  1.0000
  C   C31       1.0  0.98003  0.37268  0.11256  1.0000
  C   C32       1.0  0.01997  0.62732  0.88744  1.0000
  N   N1        1.0  0.04123  0.27136  0.61635  1.0000
  N   N2        1.0  0.95877  0.72864  0.38365  1.0000
  N   N3        1.0  0.34790  0.17326  0.03721  1.0000
  N   N4        1.0  0.65210  0.82675  0.96279  1.0000
  O   O1        1.0  0.43798  0.43675  0.29964  1.0000
  O   O2        1.0  0.56203  0.56325  0.70036  1.0000
  O   O3        1.0  0.32684  0.17296  0.30502  1.0000
  O   O4        1.0  0.67317  0.82704  0.69498  1.0000
  O   O5        1.0  0.18458  0.88892  0.12286  1.0000
  O   O6        1.0  0.81542  0.11108  0.87714  1.0000
  O   O7        1.0  0.12356  0.10658  0.81379  1.0000
  O   O8        1.0  0.87644  0.89342  0.18621  1.0000
  O   O9        1.0  0.66011  0.12580  0.64572  1.0000
  O   O10       1.0  0.33990  0.87420  0.35428  1.0000
  O   O11       1.0  0.44528  0.82892  0.12684  1.0000
  O   O12       1.0  0.55472  0.17108  0.87316  1.0000
  O   O13       1.0  0.32605  0.91471  0.69658  1.0000
  O   O14       1.0  0.67396  0.08529  0.30342  1.0000
  O   O15       1.0  0.26953  0.95345  0.54958  1.0000
  O   O16       1.0  0.73047  0.04655  0.45042  1.0000
  O   O17       1.0  0.74615  0.15894  0.11911  1.0000
  O   O18       1.0  0.25385  0.84106  0.88089  1.0000
  O   O19       1.0  0.71349  0.43414  0.15965  1.0000
  O   O20       1.0  0.28651  0.56586  0.84035  1.0000
