data_image0
_chemical_formula_structural       Cu4H32C48I4N8
_chemical_formula_sum              "Cu4 H32 C48 I4 N8"
_cell_length_a       4.10167
_cell_length_b       10.2686
_cell_length_c       24.9729
_cell_angle_alpha    90.0001
_cell_angle_beta     90
_cell_angle_gamma    90.0002

_space_group_name_H-M_alt    "P 1"
_space_group_IT_number       1

loop_
  _space_group_symop_operation_xyz
  'x, y, z'

loop_
  _atom_site_type_symbol
  _atom_site_label
  _atom_site_symmetry_multiplicity
  _atom_site_fract_x
  _atom_site_fract_y
  _atom_site_fract_z
  _atom_site_occupancy
  Cu  Cu1       1.0  0.16649  0.27344  0.12001  1.0000
  Cu  Cu2       1.0  0.33351  0.72656  0.62001  1.0000
  Cu  Cu3       1.0  0.66650  0.22656  0.87999  1.0000
  Cu  Cu4       1.0  0.83351  0.77344  0.37999  1.0000
  H   H1        1.0  0.77781  0.24367  0.22927  1.0000
  H   H2        1.0  0.72218  0.75634  0.72928  1.0000
  H   H3        1.0  0.27781  0.25633  0.77072  1.0000
  H   H4        1.0  0.22219  0.74367  0.27072  1.0000
  H   H5        1.0  0.54970  0.19728  0.01275  1.0000
  H   H6        1.0  0.95031  0.80273  0.51275  1.0000
  H   H7        1.0  0.04971  0.30271  0.98725  1.0000
  H   H8        1.0  0.45030  0.69728  0.48725  1.0000
  H   H9        1.0  0.67169  0.82779  0.24735  1.0000
  H   H10       1.0  0.82831  0.17221  0.74735  1.0000
  H   H11       1.0  0.17167  0.67220  0.75265  1.0000
  H   H12       1.0  0.32831  0.32780  0.25266  1.0000
  H   H13       1.0  0.28362  0.66618  0.09582  1.0000
  H   H14       1.0  0.21639  0.33383  0.59582  1.0000
  H   H15       1.0  0.78363  0.83382  0.90418  1.0000
  H   H16       1.0  0.71637  0.16618  0.40418  1.0000
  H   H17       1.0  0.55671  0.05137  0.28067  1.0000
  H   H18       1.0  0.94329  0.94863  0.78068  1.0000
  H   H19       1.0  0.05669  0.44863  0.71933  1.0000
  H   H20       1.0  0.44330  0.55137  0.21933  1.0000
  H   H21       1.0  0.60484  0.77767  0.02170  1.0000
  H   H22       1.0  0.89517  0.22233  0.52170  1.0000
  H   H23       1.0  0.10485  0.72232  0.97830  1.0000
  H   H24       1.0  0.39515  0.27768  0.47830  1.0000
  H   H25       1.0  0.93233  0.68350  0.17498  1.0000
  H   H26       1.0  0.56767  0.31650  0.67499  1.0000
  H   H27       1.0  0.43234  0.81650  0.82502  1.0000
  H   H28       1.0  0.06766  0.18350  0.32502  1.0000
  H   H29       1.0  0.75598  0.98888  0.97568  1.0000
  H   H30       1.0  0.74403  0.01113  0.47568  1.0000
  H   H31       1.0  0.25599  0.51112  0.02432  1.0000
  H   H32       1.0  0.24401  0.48888  0.52432  1.0000
  C   C1        1.0  0.23431  0.00026  0.10277  1.0000
  C   C2        1.0  0.26569  0.99974  0.60277  1.0000
  C   C3        1.0  0.73432  0.49974  0.89723  1.0000
  C   C4        1.0  0.76568  0.50026  0.39723  1.0000
  C   C5        1.0  0.81950  0.14417  0.21565  1.0000
  C   C6        1.0  0.68049  0.85583  0.71565  1.0000
  C   C7        1.0  0.31949  0.35583  0.78435  1.0000
  C   C8        1.0  0.18050  0.64417  0.28435  1.0000
  C   C9        1.0  0.05253  0.01041  0.15167  1.0000
  C   C10       1.0  0.44747  0.98960  0.65167  1.0000
  C   C11       1.0  0.55254  0.48959  0.84833  1.0000
  C   C12       1.0  0.94746  0.51041  0.34833  1.0000
  C   C13       1.0  0.32669  0.87569  0.08342  1.0000
  C   C14       1.0  0.17332  0.12431  0.58342  1.0000
  C   C15       1.0  0.82670  0.62430  0.91658  1.0000
  C   C16       1.0  0.67329  0.37570  0.41658  1.0000
  C   C17       1.0  0.49213  0.10541  0.03256  1.0000
  C   C18       1.0  0.00787  0.89459  0.53256  1.0000
  C   C19       1.0  0.99214  0.39459  0.96744  1.0000
  C   C20       1.0  0.50786  0.60541  0.46744  1.0000
  C   C21       1.0  0.94042  0.89596  0.17783  1.0000
  C   C22       1.0  0.55958  0.10405  0.67783  1.0000
  C   C23       1.0  0.44042  0.60404  0.82217  1.0000
  C   C24       1.0  0.05958  0.39595  0.32217  1.0000
  C   C25       1.0  0.75795  0.91253  0.22524  1.0000
  C   C26       1.0  0.74203  0.08747  0.72524  1.0000
  C   C27       1.0  0.25795  0.58747  0.77476  1.0000
  C   C28       1.0  0.24204  0.41253  0.27476  1.0000
  C   C29       1.0  0.21477  0.76195  0.11106  1.0000
  C   C30       1.0  0.28522  0.23806  0.61106  1.0000
  C   C31       1.0  0.71479  0.73805  0.88894  1.0000
  C   C32       1.0  0.78521  0.26195  0.38894  1.0000
  C   C33       1.0  0.69538  0.03713  0.24386  1.0000
  C   C34       1.0  0.80463  0.96287  0.74387  1.0000
  C   C35       1.0  0.19536  0.46286  0.75614  1.0000
  C   C36       1.0  0.30463  0.53713  0.25614  1.0000
  C   C37       1.0  0.52181  0.87156  0.03689  1.0000
  C   C38       1.0  0.97820  0.12844  0.53689  1.0000
  C   C39       1.0  0.02181  0.62843  0.96311  1.0000
  C   C40       1.0  0.47819  0.37157  0.46311  1.0000
  C   C41       1.0  0.02325  0.77161  0.15568  1.0000
  C   C42       1.0  0.47676  0.22839  0.65568  1.0000
  C   C43       1.0  0.52325  0.72838  0.84432  1.0000
  C   C44       1.0  0.97674  0.27161  0.34432  1.0000
  C   C45       1.0  0.60565  0.98689  0.01168  1.0000
  C   C46       1.0  0.89437  0.01311  0.51168  1.0000
  C   C47       1.0  0.10565  0.51310  0.98832  1.0000
  C   C48       1.0  0.39434  0.48690  0.48832  1.0000
  I   I1        1.0  0.66590  0.42465  0.11718  1.0000
  I   I2        1.0  0.83411  0.57535  0.61718  1.0000
  I   I3        1.0  0.16590  0.07535  0.88282  1.0000
  I   I4        1.0  0.33411  0.92465  0.38282  1.0000
  N   N1        1.0  0.30924  0.11331  0.07673  1.0000
  N   N2        1.0  0.19077  0.88670  0.57673  1.0000
  N   N3        1.0  0.80925  0.38669  0.92327  1.0000
  N   N4        1.0  0.69075  0.61331  0.42327  1.0000
  N   N5        1.0  0.99954  0.13239  0.17131  1.0000
  N   N6        1.0  0.50046  0.86761  0.67131  1.0000
  N   N7        1.0  0.49954  0.36760  0.82869  1.0000
  N   N8        1.0  0.00046  0.63240  0.32869  1.0000
