data_image0
_chemical_formula_structural       K2H12C24S2N8O4
_chemical_formula_sum              "K2 H12 C24 S2 N8 O4"
_cell_length_a       6.49561
_cell_length_b       9.61691
_cell_length_c       9.76964
_cell_angle_alpha    108.266
_cell_angle_beta     90.0002
_cell_angle_gamma    89.9996

_space_group_name_H-M_alt    "P 1"
_space_group_IT_number       1

loop_
  _space_group_symop_operation_xyz
  'x, y, z'

loop_
  _atom_site_type_symbol
  _atom_site_label
  _atom_site_symmetry_multiplicity
  _atom_site_fract_x
  _atom_site_fract_y
  _atom_site_fract_z
  _atom_site_occupancy
  K   K1        1.0  0.75000  0.35171  0.36860  1.0000
  K   K2        1.0  0.25000  0.64830  0.63141  1.0000
  H   H1        1.0  0.75000  0.36424  0.00816  1.0000
  H   H2        1.0  0.25000  0.63576  0.99185  1.0000
  H   H3        1.0  0.75000  0.23177  0.74611  1.0000
  H   H4        1.0  0.25000  0.76824  0.25390  1.0000
  H   H5        1.0  0.75000  0.95374  0.66444  1.0000
  H   H6        1.0  0.25000  0.04626  0.33556  1.0000
  H   H7        1.0  0.75000  0.61491  0.18159  1.0000
  H   H8        1.0  0.25000  0.38509  0.81841  1.0000
  H   H9        1.0  0.75000  0.77263  0.44004  1.0000
  H   H10       1.0  0.25000  0.22737  0.55996  1.0000
  H   H11       1.0  0.75000  0.04676  0.49338  1.0000
  H   H12       1.0  0.25000  0.95324  0.50661  1.0000
  C   C1        1.0  0.75000  0.02922  0.02987  1.0000
  C   C2        1.0  0.25000  0.97078  0.97013  1.0000
  C   C3        1.0  0.75000  0.24455  0.97107  1.0000
  C   C4        1.0  0.25000  0.75544  0.02893  1.0000
  C   C5        1.0  0.75000  0.16997  0.82228  1.0000
  C   C6        1.0  0.25000  0.83003  0.17772  1.0000
  C   C7        1.0  0.75000  0.01879  0.77777  1.0000
  C   C8        1.0  0.25000  0.98121  0.22224  1.0000
  C   C9        1.0  0.75000  0.94465  0.88124  1.0000
  C   C10       1.0  0.25000  0.05534  0.11875  1.0000
  C   C11       1.0  0.75000  0.78866  0.84094  1.0000
  C   C12       1.0  0.25000  0.21134  0.15906  1.0000
  C   C13       1.0  0.75000  0.71495  0.95015  1.0000
  C   C14       1.0  0.25000  0.28505  0.04985  1.0000
  C   C15       1.0  0.75000  0.79946  0.10021  1.0000
  C   C16       1.0  0.25000  0.20054  0.89978  1.0000
  C   C17       1.0  0.75000  0.73367  0.21022  1.0000
  C   C18       1.0  0.25000  0.26633  0.78978  1.0000
  C   C19       1.0  0.75000  0.82105  0.35292  1.0000
  C   C20       1.0  0.25000  0.17895  0.64707  1.0000
  C   C21       1.0  0.75000  0.97358  0.38224  1.0000
  C   C22       1.0  0.25000  0.02642  0.61776  1.0000
  C   C23       1.0  0.75000  0.95564  0.14069  1.0000
  C   C24       1.0  0.25000  0.04436  0.85930  1.0000
  S   S1        1.0  0.75000  0.53172  0.72064  1.0000
  S   S2        1.0  0.25000  0.46829  0.27936  1.0000
  N   N1        1.0  0.75000  0.17724  0.07212  1.0000
  N   N2        1.0  0.25000  0.82276  0.92788  1.0000
  N   N3        1.0  0.75000  0.69781  0.70479  1.0000
  N   N4        1.0  0.25000  0.30219  0.29521  1.0000
  N   N5        1.0  0.75000  0.56833  0.89692  1.0000
  N   N6        1.0  0.25000  0.43167  0.10308  1.0000
  N   N7        1.0  0.75000  0.03962  0.28064  1.0000
  N   N8        1.0  0.25000  0.96038  0.71935  1.0000
  O   O1        1.0  0.56316  0.45294  0.65530  1.0000
  O   O2        1.0  0.06317  0.54707  0.34470  1.0000
  O   O3        1.0  0.43683  0.54706  0.34470  1.0000
  O   O4        1.0  0.93683  0.45294  0.65530  1.0000
