data_image0
_chemical_formula_structural       Zn2H18C10S2N2O10
_chemical_formula_sum              "Zn2 H18 C10 S2 N2 O10"
_cell_length_a       5.30523
_cell_length_b       8.90767
_cell_length_c       9.21671
_cell_angle_alpha    112.878
_cell_angle_beta     90.0001
_cell_angle_gamma    90.0001

_space_group_name_H-M_alt    "P 1"
_space_group_IT_number       1

loop_
  _space_group_symop_operation_xyz
  'x, y, z'

loop_
  _atom_site_type_symbol
  _atom_site_label
  _atom_site_symmetry_multiplicity
  _atom_site_fract_x
  _atom_site_fract_y
  _atom_site_fract_z
  _atom_site_occupancy
  Zn  Zn1       1.0  0.94436  0.69563  0.89701  1.0000
  Zn  Zn2       1.0  0.44436  0.30437  0.10298  1.0000
  H   H1        1.0  0.69744  0.54136  0.65398  1.0000
  H   H2        1.0  0.19744  0.45865  0.34603  1.0000
  H   H3        1.0  0.99534  0.48554  0.60699  1.0000
  H   H4        1.0  0.49534  0.51446  0.39301  1.0000
  H   H5        1.0  0.50087  0.80092  0.01360  1.0000
  H   H6        1.0  0.00086  0.19909  0.98640  1.0000
  H   H7        1.0  0.65477  0.96762  0.06951  1.0000
  H   H8        1.0  0.15475  0.03239  0.93049  1.0000
  H   H9        1.0  0.65856  0.28280  0.63481  1.0000
  H   H10       1.0  0.15857  0.71721  0.36518  1.0000
  H   H11       1.0  0.99150  0.12381  0.68214  1.0000
  H   H12       1.0  0.49152  0.87619  0.31786  1.0000
  H   H13       1.0  0.19411  0.29600  0.76303  1.0000
  H   H14       1.0  0.69412  0.70399  0.23697  1.0000
  H   H15       1.0  0.03865  0.00895  0.24676  1.0000
  H   H16       1.0  0.53865  0.99104  0.75324  1.0000
  H   H17       1.0  0.81831  0.04878  0.39971  1.0000
  H   H18       1.0  0.31831  0.95122  0.60029  1.0000
  C   C1        1.0  0.72675  0.38790  0.88180  1.0000
  C   C2        1.0  0.22676  0.61207  0.11819  1.0000
  C   C3        1.0  0.81413  0.35071  0.71215  1.0000
  C   C4        1.0  0.31413  0.64929  0.28785  1.0000
  C   C5        1.0  0.04697  0.23945  0.67486  1.0000
  C   C6        1.0  0.54699  0.76055  0.32514  1.0000
  C   C7        1.0  0.95368  0.10751  0.34810  1.0000
  C   C8        1.0  0.45368  0.89248  0.65189  1.0000
  C   C9        1.0  0.81471  0.22263  0.28871  1.0000
  C   C10       1.0  0.31472  0.77737  0.71129  1.0000
  S   S1        1.0  0.20200  0.19915  0.48849  1.0000
  S   S2        1.0  0.70201  0.80085  0.51150  1.0000
  N   N1        1.0  0.86017  0.50403  0.69189  1.0000
  N   N2        1.0  0.36018  0.49597  0.30811  1.0000
  O   O1        1.0  0.70796  0.53316  0.97616  1.0000
  O   O2        1.0  0.20797  0.46683  0.02385  1.0000
  O   O3        1.0  0.64665  0.85290  0.98637  1.0000
  O   O4        1.0  0.14663  0.14710  0.01363  1.0000
  O   O5        1.0  0.67493  0.26342  0.91558  1.0000
  O   O6        1.0  0.17491  0.73658  0.08442  1.0000
  O   O7        1.0  0.86969  0.36967  0.33257  1.0000
  O   O8        1.0  0.36970  0.63033  0.66744  1.0000
  O   O9        1.0  0.63427  0.15314  0.18902  1.0000
  O   O10       1.0  0.13426  0.84686  0.81097  1.0000
