data_image0
_chemical_formula_structural       Cu2H18C10S2N2O10
_chemical_formula_sum              "Cu2 H18 C10 S2 N2 O10"
_cell_length_a       5.46684
_cell_length_b       8.58415
_cell_length_c       9.15433
_cell_angle_alpha    110.516
_cell_angle_beta     90.0005
_cell_angle_gamma    89.9997

_space_group_name_H-M_alt    "P 1"
_space_group_IT_number       1

loop_
  _space_group_symop_operation_xyz
  'x, y, z'

loop_
  _atom_site_type_symbol
  _atom_site_label
  _atom_site_symmetry_multiplicity
  _atom_site_fract_x
  _atom_site_fract_y
  _atom_site_fract_z
  _atom_site_occupancy
  Cu  Cu1       1.0  0.24965  0.82891  0.10775  1.0000
  Cu  Cu2       1.0  0.74966  0.17109  0.89225  1.0000
  H   H1        1.0  0.98939  0.94786  0.34573  1.0000
  H   H2        1.0  0.48940  0.05214  0.65427  1.0000
  H   H3        1.0  0.27818  0.00541  0.39926  1.0000
  H   H4        1.0  0.77820  0.99458  0.60074  1.0000
  H   H5        1.0  0.94391  0.52580  0.93857  1.0000
  H   H6        1.0  0.44390  0.47420  0.06143  1.0000
  H   H7        1.0  0.78512  0.68695  0.99094  1.0000
  H   H8        1.0  0.28512  0.31303  0.00907  1.0000
  H   H9        1.0  0.95529  0.22165  0.37707  1.0000
  H   H10       1.0  0.45530  0.77835  0.62293  1.0000
  H   H11       1.0  0.27920  0.38550  0.32159  1.0000
  H   H12       1.0  0.77920  0.61450  0.67841  1.0000
  H   H13       1.0  0.47506  0.20942  0.24532  1.0000
  H   H14       1.0  0.97507  0.79058  0.75468  1.0000
  H   H15       1.0  0.30818  0.48584  0.75635  1.0000
  H   H16       1.0  0.80818  0.51417  0.24364  1.0000
  H   H17       1.0  0.09793  0.44581  0.60171  1.0000
  H   H18       1.0  0.59792  0.55418  0.39829  1.0000
  C   C1        1.0  0.02386  0.12522  0.13121  1.0000
  C   C2        1.0  0.52388  0.87483  0.86881  1.0000
  C   C3        1.0  0.10432  0.15498  0.29890  1.0000
  C   C4        1.0  0.60432  0.84502  0.70109  1.0000
  C   C5        1.0  0.33215  0.26655  0.33217  1.0000
  C   C6        1.0  0.83215  0.73345  0.66783  1.0000
  C   C7        1.0  0.23257  0.38659  0.65464  1.0000
  C   C8        1.0  0.73256  0.61340  0.34535  1.0000
  C   C9        1.0  0.10521  0.25952  0.71123  1.0000
  C   C10       1.0  0.60520  0.74045  0.28875  1.0000
  S   S1        1.0  0.47959  0.30463  0.51871  1.0000
  S   S2        1.0  0.97959  0.69538  0.48129  1.0000
  N   N1        1.0  0.14932  0.99291  0.31452  1.0000
  N   N2        1.0  0.64933  0.00709  0.68548  1.0000
  O   O1        1.0  0.05262  0.98013  0.03092  1.0000
  O   O2        1.0  0.55262  0.01988  0.96906  1.0000
  O   O3        1.0  0.93601  0.64086  0.01584  1.0000
  O   O4        1.0  0.43602  0.35915  0.98416  1.0000
  O   O5        1.0  0.93723  0.24709  0.09885  1.0000
  O   O6        1.0  0.43723  0.75292  0.90115  1.0000
  O   O7        1.0  0.16475  0.10989  0.66510  1.0000
  O   O8        1.0  0.66475  0.89012  0.33490  1.0000
  O   O9        1.0  0.93015  0.32296  0.81069  1.0000
  O   O10       1.0  0.43013  0.67703  0.18931  1.0000
