data_image0
_chemical_formula_structural       Cd4H36C20S4N4O20
_chemical_formula_sum              "Cd4 H36 C20 S4 N4 O20"
_cell_length_a       7.7068
_cell_length_b       7.96648
_cell_length_c       16.8045
_cell_angle_alpha    89.9984
_cell_angle_beta     89.9997
_cell_angle_gamma    89.9999

_space_group_name_H-M_alt    "P 1"
_space_group_IT_number       1

loop_
  _space_group_symop_operation_xyz
  'x, y, z'

loop_
  _atom_site_type_symbol
  _atom_site_label
  _atom_site_symmetry_multiplicity
  _atom_site_fract_x
  _atom_site_fract_y
  _atom_site_fract_z
  _atom_site_occupancy
  Cd  Cd1       1.0  0.97610  0.76856  0.31558  1.0000
  Cd  Cd2       1.0  0.52389  0.23143  0.81558  1.0000
  Cd  Cd3       1.0  0.02389  0.26857  0.18442  1.0000
  Cd  Cd4       1.0  0.47611  0.73144  0.68442  1.0000
  H   H1        1.0  0.29239  0.57633  0.29854  1.0000
  H   H2        1.0  0.20761  0.42367  0.79853  1.0000
  H   H3        1.0  0.70762  0.07634  0.20147  1.0000
  H   H4        1.0  0.79240  0.92367  0.70146  1.0000
  H   H5        1.0  0.28924  0.71924  0.22886  1.0000
  H   H6        1.0  0.21076  0.28076  0.72886  1.0000
  H   H7        1.0  0.71077  0.21925  0.27114  1.0000
  H   H8        1.0  0.78924  0.78076  0.77114  1.0000
  H   H9        1.0  0.79006  0.52543  0.37316  1.0000
  H   H10       1.0  0.70995  0.47457  0.87315  1.0000
  H   H11       1.0  0.20995  0.02544  0.12685  1.0000
  H   H12       1.0  0.29006  0.97457  0.62684  1.0000
  H   H13       1.0  0.98194  0.44403  0.37462  1.0000
  H   H14       1.0  0.51806  0.55594  0.87461  1.0000
  H   H15       1.0  0.01807  0.94406  0.12538  1.0000
  H   H16       1.0  0.48194  0.05596  0.62539  1.0000
  H   H17       1.0  0.05849  0.16897  0.46920  1.0000
  H   H18       1.0  0.44151  0.83100  0.96920  1.0000
  H   H19       1.0  0.94151  0.66900  0.03080  1.0000
  H   H20       1.0  0.55851  0.33102  0.53080  1.0000
  H   H21       1.0  0.28014  0.14730  0.44601  1.0000
  H   H22       1.0  0.21986  0.85268  0.94601  1.0000
  H   H23       1.0  0.71986  0.64732  0.05399  1.0000
  H   H24       1.0  0.78015  0.35270  0.55400  1.0000
  H   H25       1.0  0.43886  0.87733  0.45753  1.0000
  H   H26       1.0  0.06113  0.12264  0.95753  1.0000
  H   H27       1.0  0.56113  0.37736  0.04247  1.0000
  H   H28       1.0  0.93887  0.62267  0.54247  1.0000
  H   H29       1.0  0.34428  0.67683  0.44567  1.0000
  H   H30       1.0  0.15572  0.32315  0.94567  1.0000
  H   H31       1.0  0.65571  0.17685  0.05433  1.0000
  H   H32       1.0  0.84429  0.82318  0.55434  1.0000
  H   H33       1.0  0.38940  0.93222  0.30927  1.0000
  H   H34       1.0  0.11058  0.06777  0.80927  1.0000
  H   H35       1.0  0.61058  0.43224  0.19073  1.0000
  H   H36       1.0  0.88941  0.56777  0.69073  1.0000
  C   C1        1.0  0.10942  0.16015  0.34428  1.0000
  C   C2        1.0  0.39056  0.83984  0.84429  1.0000
  C   C3        1.0  0.89056  0.66016  0.15571  1.0000
  C   C4        1.0  0.60942  0.33986  0.65572  1.0000
  C   C5        1.0  0.14967  0.10420  0.42921  1.0000
  C   C6        1.0  0.35033  0.89578  0.92922  1.0000
  C   C7        1.0  0.85033  0.60421  0.07078  1.0000
  C   C8        1.0  0.64967  0.39581  0.57079  1.0000
  C   C9        1.0  0.34333  0.80617  0.42282  1.0000
  C   C10       1.0  0.15666  0.19380  0.92282  1.0000
  C   C11       1.0  0.65666  0.30620  0.07718  1.0000
  C   C12       1.0  0.84334  0.69382  0.57718  1.0000
  C   C13       1.0  0.39096  0.80487  0.33416  1.0000
  C   C14       1.0  0.10904  0.19512  0.83416  1.0000
  C   C15       1.0  0.60904  0.30488  0.16584  1.0000
  C   C16       1.0  0.89097  0.69512  0.66584  1.0000
  C   C17       1.0  0.57920  0.73787  0.33069  1.0000
  C   C18       1.0  0.92079  0.26213  0.83069  1.0000
  C   C19       1.0  0.42080  0.23787  0.16931  1.0000
  C   C20       1.0  0.07921  0.76212  0.66931  1.0000
  S   S1        1.0  0.13141  0.88359  0.45074  1.0000
  S   S2        1.0  0.36859  0.11639  0.95074  1.0000
  S   S3        1.0  0.86859  0.38361  0.04925  1.0000
  S   S4        1.0  0.63142  0.61642  0.54925  1.0000
  N   N1        1.0  0.26876  0.70150  0.28834  1.0000
  N   N2        1.0  0.23123  0.29849  0.78834  1.0000
  N   N3        1.0  0.73123  0.20151  0.21166  1.0000
  N   N4        1.0  0.76876  0.79850  0.71166  1.0000
  O   O1        1.0  0.90652  0.53047  0.39957  1.0000
  O   O2        1.0  0.59347  0.46951  0.89957  1.0000
  O   O3        1.0  0.09348  0.03049  0.10043  1.0000
  O   O4        1.0  0.40653  0.96953  0.60043  1.0000
  O   O5        1.0  0.06064  0.05563  0.29179  1.0000
  O   O6        1.0  0.43936  0.94437  0.79179  1.0000
  O   O7        1.0  0.93936  0.55564  0.20820  1.0000
  O   O8        1.0  0.56065  0.44438  0.70821  1.0000
  O   O9        1.0  0.12469  0.31598  0.32973  1.0000
  O   O10       1.0  0.37529  0.68400  0.82974  1.0000
  O   O11       1.0  0.87530  0.81600  0.17026  1.0000
  O   O12       1.0  0.62468  0.18402  0.67027  1.0000
  O   O13       1.0  0.69725  0.85011  0.33625  1.0000
  O   O14       1.0  0.80274  0.14988  0.83625  1.0000
  O   O15       1.0  0.30275  0.35012  0.16376  1.0000
  O   O16       1.0  0.19725  0.64988  0.66376  1.0000
  O   O17       1.0  0.60019  0.58092  0.32608  1.0000
  O   O18       1.0  0.89982  0.41907  0.82608  1.0000
  O   O19       1.0  0.39982  0.08092  0.17392  1.0000
  O   O20       1.0  0.10019  0.91907  0.67392  1.0000
