data_image0
_chemical_formula_structural       Na4H16C16O22
_chemical_formula_sum              "Na4 H16 C16 O22"
_cell_length_a       6.22128
_cell_length_b       8.62641
_cell_length_c       11.3845
_cell_angle_alpha    112.261
_cell_angle_beta     90.4054
_cell_angle_gamma    90.0082

_space_group_name_H-M_alt    "P 1"
_space_group_IT_number       1

loop_
  _space_group_symop_operation_xyz
  'x, y, z'

loop_
  _atom_site_type_symbol
  _atom_site_label
  _atom_site_symmetry_multiplicity
  _atom_site_fract_x
  _atom_site_fract_y
  _atom_site_fract_z
  _atom_site_occupancy
  Na  Na1       1.0  0.50762  0.27310  0.90527  1.0000
  Na  Na2       1.0  0.99255  0.36796  0.09461  1.0000
  Na  Na3       1.0  0.49239  0.72690  0.09474  1.0000
  Na  Na4       1.0  0.00745  0.63204  0.90540  1.0000
  H   H1        1.0  0.57900  0.37633  0.58131  1.0000
  H   H2        1.0  0.92057  0.79521  0.41888  1.0000
  H   H3        1.0  0.42100  0.62366  0.41870  1.0000
  H   H4        1.0  0.07943  0.20479  0.58112  1.0000
  H   H5        1.0  0.79194  0.00894  0.69030  1.0000
  H   H6        1.0  0.70808  0.31871  0.30954  1.0000
  H   H7        1.0  0.20805  0.99105  0.30970  1.0000
  H   H8        1.0  0.29192  0.68130  0.69046  1.0000
  H   H9        1.0  0.80907  0.56407  0.51422  1.0000
  H   H10       1.0  0.69108  0.05012  0.48574  1.0000
  H   H11       1.0  0.19093  0.43592  0.48578  1.0000
  H   H12       1.0  0.30893  0.94988  0.51427  1.0000
  H   H13       1.0  0.79465  0.03353  0.93065  1.0000
  H   H14       1.0  0.70566  0.10294  0.06929  1.0000
  H   H15       1.0  0.20535  0.96647  0.06935  1.0000
  H   H16       1.0  0.29434  0.89706  0.93072  1.0000
  C   C1        1.0  0.80359  0.77970  0.69703  1.0000
  C   C2        1.0  0.69654  0.08276  0.30287  1.0000
  C   C3        1.0  0.19641  0.22030  0.30297  1.0000
  C   C4        1.0  0.30345  0.91725  0.69713  1.0000
  C   C5        1.0  0.51756  0.54730  0.77782  1.0000
  C   C6        1.0  0.98256  0.76939  0.22237  1.0000
  C   C7        1.0  0.48244  0.45271  0.22219  1.0000
  C   C8        1.0  0.01743  0.23061  0.77764  1.0000
  C   C9        1.0  0.64835  0.48567  0.65684  1.0000
  C   C10       1.0  0.85155  0.82897  0.34326  1.0000
  C   C11       1.0  0.35165  0.51433  0.34317  1.0000
  C   C12       1.0  0.14845  0.17103  0.65675  1.0000
  C   C13       1.0  0.78452  0.59698  0.61574  1.0000
  C   C14       1.0  0.71562  0.98145  0.38425  1.0000
  C   C15       1.0  0.21548  0.40301  0.38426  1.0000
  C   C16       1.0  0.28439  0.01856  0.61577  1.0000
  O   O1        1.0  0.75017  0.13767  0.99995  1.0000
  O   O2        1.0  0.24983  0.86233  0.00006  1.0000
  O   O3        1.0  0.59792  0.54508  0.87864  1.0000
  O   O4        1.0  0.90240  0.66611  0.12159  1.0000
  O   O5        1.0  0.40208  0.45492  0.12137  1.0000
  O   O6        1.0  0.09759  0.33389  0.87842  1.0000
  O   O7        1.0  0.32405  0.58974  0.76423  1.0000
  O   O8        1.0  0.17601  0.82558  0.23603  1.0000
  O   O9        1.0  0.67595  0.41026  0.23577  1.0000
  O   O10       1.0  0.82398  0.17442  0.76397  1.0000
  O   O11       1.0  0.87809  0.48347  0.66756  1.0000
  O   O12       1.0  0.62177  0.81616  0.33250  1.0000
  O   O13       1.0  0.12191  0.51653  0.33245  1.0000
  O   O14       1.0  0.37823  0.18385  0.66751  1.0000
  O   O15       1.0  0.76680  0.87594  0.63309  1.0000
  O   O16       1.0  0.73330  0.24294  0.36680  1.0000
  O   O17       1.0  0.23319  0.12405  0.36691  1.0000
  O   O18       1.0  0.26670  0.75707  0.63320  1.0000
  O   O19       1.0  0.84861  0.82816  0.81158  1.0000
  O   O20       1.0  0.65153  0.01664  0.18833  1.0000
  O   O21       1.0  0.15139  0.17185  0.18842  1.0000
  O   O22       1.0  0.34847  0.98336  0.81169  1.0000
