data_image0
_chemical_formula_structural       Cu4H18C24N10
_chemical_formula_sum              "Cu4 H18 C24 N10"
_cell_length_a       8.0879
_cell_length_b       9.10339
_cell_length_c       10.018
_cell_angle_alpha    60.5943
_cell_angle_beta     72.5545
_cell_angle_gamma    77.5823

_space_group_name_H-M_alt    "P 1"
_space_group_IT_number       1

loop_
  _space_group_symop_operation_xyz
  'x, y, z'

loop_
  _atom_site_type_symbol
  _atom_site_label
  _atom_site_symmetry_multiplicity
  _atom_site_fract_x
  _atom_site_fract_y
  _atom_site_fract_z
  _atom_site_occupancy
  Cu  Cu1       1.0  0.16908  0.56340  0.95002  1.0000
  Cu  Cu2       1.0  0.83090  0.43661  0.04999  1.0000
  Cu  Cu3       1.0  0.08309  0.15963  0.79594  1.0000
  Cu  Cu4       1.0  0.91690  0.84037  0.20405  1.0000
  H   H1        1.0  0.40709  0.63810  0.08799  1.0000
  H   H2        1.0  0.59292  0.36189  0.91202  1.0000
  H   H3        1.0  0.12924  0.23172  0.23520  1.0000
  H   H4        1.0  0.87077  0.76828  0.76480  1.0000
  H   H5        1.0  0.23843  0.06895  0.48082  1.0000
  H   H6        1.0  0.76158  0.93105  0.51918  1.0000
  H   H7        1.0  0.52616  0.49793  0.32365  1.0000
  H   H8        1.0  0.47385  0.50205  0.67635  1.0000
  H   H9        1.0  0.74188  0.36231  0.38123  1.0000
  H   H10       1.0  0.25812  0.63769  0.61877  1.0000
  H   H11       1.0  0.96867  0.36596  0.49351  1.0000
  H   H12       1.0  0.03133  0.63405  0.50648  1.0000
  H   H13       1.0  0.49372  0.00497  0.85020  1.0000
  H   H14       1.0  0.50629  0.99503  0.14979  1.0000
  H   H15       1.0  0.74634  0.00992  0.94056  1.0000
  H   H16       1.0  0.25367  0.99007  0.05944  1.0000
  H   H17       1.0  0.37899  0.07416  0.64518  1.0000
  H   H18       1.0  0.62102  0.92582  0.35483  1.0000
  C   C1        1.0  0.37436  0.51046  0.17682  1.0000
  C   C2        1.0  0.62564  0.48954  0.82319  1.0000
  C   C3        1.0  0.21952  0.28450  0.25914  1.0000
  C   C4        1.0  0.78047  0.71549  0.74086  1.0000
  C   C5        1.0  0.28079  0.19435  0.39531  1.0000
  C   C6        1.0  0.71922  0.80564  0.60470  1.0000
  C   C7        1.0  0.44314  0.42983  0.30953  1.0000
  C   C8        1.0  0.55687  0.57017  0.69047  1.0000
  C   C9        1.0  0.39867  0.26524  0.42252  1.0000
  C   C10       1.0  0.60133  0.73476  0.57748  1.0000
  C   C11       1.0  0.59092  0.18671  0.60777  1.0000
  C   C12       1.0  0.40908  0.81329  0.39222  1.0000
  C   C13       1.0  0.72981  0.28770  0.50738  1.0000
  C   C14       1.0  0.27018  0.71231  0.49262  1.0000
  C   C15       1.0  0.86137  0.28681  0.57019  1.0000
  C   C16       1.0  0.13862  0.71320  0.42980  1.0000
  C   C17       1.0  0.59683  0.08726  0.76790  1.0000
  C   C18       1.0  0.40317  0.91274  0.23209  1.0000
  C   C19       1.0  0.73627  0.09074  0.81865  1.0000
  C   C20       1.0  0.26374  0.90926  0.18134  1.0000
  C   C21       1.0  0.14423  0.41079  0.88442  1.0000
  C   C22       1.0  0.85577  0.58922  0.11558  1.0000
  C   C23       1.0  0.18913  0.79631  0.85828  1.0000
  C   C24       1.0  0.81086  0.20369  0.14173  1.0000
  N   N1        1.0  0.26559  0.44094  0.14878  1.0000
  N   N2        1.0  0.73441  0.55905  0.85123  1.0000
  N   N3        1.0  0.45595  0.16966  0.56040  1.0000
  N   N4        1.0  0.54405  0.83034  0.43960  1.0000
  N   N5        1.0  0.86893  0.18970  0.72246  1.0000
  N   N6        1.0  0.13107  0.81031  0.27753  1.0000
  N   N7        1.0  0.18497  0.94331  0.81488  1.0000
  N   N8        1.0  0.81503  0.05671  0.18512  1.0000
  N   N9        1.0  0.14173  0.31594  0.83659  1.0000
  N   N10       1.0  0.85826  0.68408  0.16342  1.0000
