data_image0
_chemical_formula_structural       Cu4H24C28N16
_chemical_formula_sum              "Cu4 H24 C28 N16"
_cell_length_a       4.77883
_cell_length_b       12.1753
_cell_length_c       13.9845
_cell_angle_alpha    107.87
_cell_angle_beta     89.9615
_cell_angle_gamma    101.284

_space_group_name_H-M_alt    "P 1"
_space_group_IT_number       1

loop_
  _space_group_symop_operation_xyz
  'x, y, z'

loop_
  _atom_site_type_symbol
  _atom_site_label
  _atom_site_symmetry_multiplicity
  _atom_site_fract_x
  _atom_site_fract_y
  _atom_site_fract_z
  _atom_site_occupancy
  Cu  Cu1       1.0  0.49637  0.04358  0.37158  1.0000
  Cu  Cu2       1.0  0.45373  0.95670  0.12897  1.0000
  Cu  Cu3       1.0  0.50364  0.95641  0.62842  1.0000
  Cu  Cu4       1.0  0.54627  0.04330  0.87103  1.0000
  H   H1        1.0  0.08493  0.82711  0.43735  1.0000
  H   H2        1.0  0.25978  0.17290  0.06245  1.0000
  H   H3        1.0  0.91506  0.17289  0.56265  1.0000
  H   H4        1.0  0.74022  0.82710  0.93755  1.0000
  H   H5        1.0  0.78019  0.81327  0.25286  1.0000
  H   H6        1.0  0.96752  0.18686  0.24726  1.0000
  H   H7        1.0  0.21981  0.18674  0.74714  1.0000
  H   H8        1.0  0.03249  0.81314  0.75274  1.0000
  H   H9        1.0  0.04781  0.51456  0.31368  1.0000
  H   H10       1.0  0.53319  0.48562  0.18656  1.0000
  H   H11       1.0  0.95219  0.48544  0.68632  1.0000
  H   H12       1.0  0.46681  0.51438  0.81344  1.0000
  H   H13       1.0  0.95469  0.61311  0.42642  1.0000
  H   H14       1.0  0.34196  0.38704  0.07387  1.0000
  H   H15       1.0  0.04531  0.38688  0.57358  1.0000
  H   H16       1.0  0.65804  0.61296  0.92613  1.0000
  H   H17       1.0  0.39075  0.69972  0.57241  1.0000
  H   H18       1.0  0.69180  0.30030  0.92785  1.0000
  H   H19       1.0  0.60925  0.30028  0.42759  1.0000
  H   H20       1.0  0.30820  0.69970  0.07215  1.0000
  H   H21       1.0  0.29898  0.37369  0.32925  1.0000
  H   H22       1.0  0.92482  0.62646  0.17075  1.0000
  H   H23       1.0  0.70101  0.62631  0.67074  1.0000
  H   H24       1.0  0.07518  0.37354  0.82925  1.0000
  C   C1        1.0  0.14225  0.08227  0.37979  1.0000
  C   C2        1.0  0.06118  0.91805  0.12095  1.0000
  C   C3        1.0  0.85775  0.91773  0.62021  1.0000
  C   C4        1.0  0.93882  0.08195  0.87905  1.0000
  C   C5        1.0  0.24938  0.79780  0.38824  1.0000
  C   C6        1.0  0.45306  0.20225  0.11168  1.0000
  C   C7        1.0  0.75061  0.20220  0.61176  1.0000
  C   C8        1.0  0.54694  0.79775  0.88832  1.0000
  C   C9        1.0  0.60382  0.78742  0.29561  1.0000
  C   C10       1.0  0.81722  0.21268  0.20444  1.0000
  C   C11       1.0  0.39618  0.21258  0.70439  1.0000
  C   C12       1.0  0.18279  0.78732  0.79556  1.0000
  C   C13       1.0  0.13453  0.58437  0.38372  1.0000
  C   C14       1.0  0.55040  0.41578  0.11652  1.0000
  C   C15       1.0  0.86547  0.41563  0.61627  1.0000
  C   C16       1.0  0.44960  0.58422  0.88348  1.0000
  C   C17       1.0  0.32311  0.54075  0.44418  1.0000
  C   C18       1.0  0.78250  0.45937  0.05594  1.0000
  C   C19       1.0  0.67690  0.45924  0.55581  1.0000
  C   C20       1.0  0.21749  0.54063  0.94406  1.0000
  C   C21       1.0  0.43719  0.61184  0.54046  1.0000
  C   C22       1.0  0.82575  0.38818  0.95968  1.0000
  C   C23       1.0  0.56280  0.38816  0.45953  1.0000
  C   C24       1.0  0.17424  0.61182  0.04032  1.0000
  C   C25       1.0  0.38721  0.42882  0.40429  1.0000
  C   C26       1.0  0.95811  0.57129  0.09571  1.0000
  C   C27       1.0  0.61279  0.57117  0.59571  1.0000
  C   C28       1.0  0.04189  0.42871  0.90429  1.0000
  N   N1        1.0  0.44460  0.86422  0.34943  1.0000
  N   N2        1.0  0.58210  0.13579  0.15036  1.0000
  N   N3        1.0  0.55540  0.13578  0.65057  1.0000
  N   N4        1.0  0.41791  0.86421  0.84964  1.0000
  N   N5        1.0  0.51797  0.67817  0.29920  1.0000
  N   N6        1.0  0.83981  0.32200  0.20109  1.0000
  N   N7        1.0  0.48202  0.32183  0.70080  1.0000
  N   N8        1.0  0.16019  0.67800  0.79891  1.0000
  N   N9        1.0  0.29122  0.68662  0.35839  1.0000
  N   N10       1.0  0.60508  0.31353  0.14182  1.0000
  N   N11       1.0  0.70878  0.31338  0.64161  1.0000
  N   N12       1.0  0.39492  0.68647  0.85818  1.0000
  N   N13       1.0  0.89797  0.08688  0.38009  1.0000
  N   N14       1.0  0.81222  0.91323  0.12038  1.0000
  N   N15       1.0  0.10203  0.91312  0.61991  1.0000
  N   N16       1.0  0.18779  0.08677  0.87962  1.0000
