data_image0
_chemical_formula_structural       Cu2H16C20N8
_chemical_formula_sum              "Cu2 H16 C20 N8"
_cell_length_a       4.76453
_cell_length_b       7.55238
_cell_length_c       13.9816
_cell_angle_alpha    83.3089
_cell_angle_beta     80.5668
_cell_angle_gamma    74.9462

_space_group_name_H-M_alt    "P 1"
_space_group_IT_number       1

loop_
  _space_group_symop_operation_xyz
  'x, y, z'

loop_
  _atom_site_type_symbol
  _atom_site_label
  _atom_site_symmetry_multiplicity
  _atom_site_fract_x
  _atom_site_fract_y
  _atom_site_fract_z
  _atom_site_occupancy
  Cu  Cu1       1.0  0.36657  0.31442  0.95659  1.0000
  Cu  Cu2       1.0  0.63342  0.68557  0.04341  1.0000
  H   H1        1.0  0.94050  0.33144  0.16592  1.0000
  H   H2        1.0  0.05947  0.66857  0.83409  1.0000
  H   H3        1.0  0.79781  0.00532  0.10089  1.0000
  H   H4        1.0  0.20215  0.99468  0.89910  1.0000
  H   H5        1.0  0.71471  0.97492  0.34976  1.0000
  H   H6        1.0  0.28530  0.02509  0.65024  1.0000
  H   H7        1.0  0.83426  0.81250  0.26053  1.0000
  H   H8        1.0  0.16574  0.18750  0.73946  1.0000
  H   H9        1.0  0.32922  0.94410  0.48274  1.0000
  H   H10       1.0  0.67079  0.05590  0.51726  1.0000
  H   H11       1.0  0.51994  0.58729  0.25001  1.0000
  H   H12       1.0  0.48007  0.41271  0.74998  1.0000
  H   H13       1.0  0.21470  0.39572  0.34552  1.0000
  H   H14       1.0  0.78532  0.60429  0.65448  1.0000
  H   H15       1.0  0.02617  0.75514  0.57960  1.0000
  H   H16       1.0  0.97385  0.24486  0.42040  1.0000
  C   C1        1.0  0.99914  0.33488  0.92507  1.0000
  C   C2        1.0  0.00086  0.66511  0.07493  1.0000
  C   C3        1.0  0.14625  0.23030  0.17279  1.0000
  C   C4        1.0  0.85373  0.76970  0.82722  1.0000
  C   C5        1.0  0.58137  0.06819  0.13698  1.0000
  C   C6        1.0  0.41860  0.93181  0.86302  1.0000
  C   C7        1.0  0.63930  0.89606  0.30222  1.0000
  C   C8        1.0  0.36070  0.10394  0.69778  1.0000
  C   C9        1.0  0.30671  0.82216  0.45289  1.0000
  C   C10       1.0  0.69330  0.17784  0.54711  1.0000
  C   C11       1.0  0.45078  0.77819  0.36022  1.0000
  C   C12       1.0  0.54923  0.22180  0.63978  1.0000
  C   C13       1.0  0.41332  0.62298  0.32290  1.0000
  C   C14       1.0  0.58669  0.37702  0.67710  1.0000
  C   C15       1.0  0.23781  0.51536  0.37721  1.0000
  C   C16       1.0  0.76220  0.48464  0.62279  1.0000
  C   C17       1.0  0.09283  0.55781  0.47105  1.0000
  C   C18       1.0  0.90718  0.44219  0.52894  1.0000
  C   C19       1.0  0.13172  0.71457  0.50754  1.0000
  C   C20       1.0  0.86830  0.28543  0.49247  1.0000
  N   N1        1.0  0.75603  0.32998  0.92081  1.0000
  N   N2        1.0  0.24398  0.67000  0.07919  1.0000
  N   N3        1.0  0.37177  0.19710  0.09798  1.0000
  N   N4        1.0  0.62819  0.80291  0.90202  1.0000
  N   N5        1.0  0.48321  0.02703  0.23069  1.0000
  N   N6        1.0  0.51678  0.97298  0.76931  1.0000
  N   N7        1.0  0.20500  0.13011  0.25502  1.0000
  N   N8        1.0  0.79500  0.86990  0.74499  1.0000
