data_image0
_chemical_formula_structural       Cu4H24C16Br4N16O4
_chemical_formula_sum              "Cu4 H24 C16 Br4 N16 O4"
_cell_length_a       6.95993
_cell_length_b       8.94112
_cell_length_c       12.1026
_cell_angle_alpha    89.9996
_cell_angle_beta     89.9982
_cell_angle_gamma    89.9998

_space_group_name_H-M_alt    "P 1"
_space_group_IT_number       1

loop_
  _space_group_symop_operation_xyz
  'x, y, z'

loop_
  _atom_site_type_symbol
  _atom_site_label
  _atom_site_symmetry_multiplicity
  _atom_site_fract_x
  _atom_site_fract_y
  _atom_site_fract_z
  _atom_site_occupancy
  Cu  Cu1       1.0  0.00002  0.19142  0.50000  1.0000
  Cu  Cu2       1.0  0.50001  0.80858  1.00000  1.0000
  Cu  Cu3       1.0  0.00003  0.80859  0.50000  1.0000
  Cu  Cu4       1.0  0.50000  0.19142  1.00000  1.0000
  H   H1        1.0  0.33436  0.86163  0.60372  1.0000
  H   H2        1.0  0.66566  0.86164  0.39629  1.0000
  H   H3        1.0  0.16564  0.13836  0.10370  1.0000
  H   H4        1.0  0.83435  0.13837  0.89626  1.0000
  H   H5        1.0  0.66568  0.13835  0.39630  1.0000
  H   H6        1.0  0.33438  0.13837  0.60371  1.0000
  H   H7        1.0  0.83437  0.86163  0.89629  1.0000
  H   H8        1.0  0.16565  0.86164  0.10371  1.0000
  H   H9        1.0  0.41079  0.78437  0.73316  1.0000
  H   H10       1.0  0.58916  0.78436  0.26686  1.0000
  H   H11       1.0  0.08915  0.21561  0.23314  1.0000
  H   H12       1.0  0.91081  0.21563  0.76683  1.0000
  H   H13       1.0  0.58918  0.21562  0.26686  1.0000
  H   H14       1.0  0.41081  0.21562  0.73315  1.0000
  H   H15       1.0  0.91084  0.78437  0.76685  1.0000
  H   H16       1.0  0.08916  0.78439  0.23315  1.0000
  H   H17       1.0  0.56913  0.78087  0.61735  1.0000
  H   H18       1.0  0.43088  0.78086  0.38269  1.0000
  H   H19       1.0  0.93086  0.21913  0.11732  1.0000
  H   H20       1.0  0.06912  0.21913  0.88265  1.0000
  H   H21       1.0  0.43089  0.21913  0.38269  1.0000
  H   H22       1.0  0.56915  0.21913  0.61734  1.0000
  H   H23       1.0  0.06914  0.78086  0.88268  1.0000
  H   H24       1.0  0.93086  0.78088  0.11733  1.0000
  C   C1        1.0  0.90927  0.50000  0.46961  1.0000
  C   C2        1.0  0.09077  0.50000  0.53041  1.0000
  C   C3        1.0  0.59075  0.50000  0.96959  1.0000
  C   C4        1.0  0.40924  0.50000  0.03039  1.0000
  C   C5        1.0  0.41852  0.77286  0.64295  1.0000
  C   C6        1.0  0.58146  0.77285  0.35707  1.0000
  C   C7        1.0  0.08144  0.22714  0.14293  1.0000
  C   C8        1.0  0.91852  0.22714  0.85704  1.0000
  C   C9        1.0  0.58147  0.22714  0.35707  1.0000
  C   C10       1.0  0.41854  0.22713  0.64294  1.0000
  C   C11       1.0  0.91854  0.77287  0.85706  1.0000
  C   C12       1.0  0.08145  0.77287  0.14295  1.0000
  C   C13       1.0  0.42971  0.50000  0.63871  1.0000
  C   C14       1.0  0.57030  0.49999  0.36130  1.0000
  C   C15       1.0  0.07029  0.50000  0.13870  1.0000
  C   C16       1.0  0.92971  0.50000  0.86126  1.0000
  Br  Br1       1.0  0.15285  0.00001  0.38636  1.0000
  Br  Br2       1.0  0.84720  0.00000  0.61364  1.0000
  Br  Br3       1.0  0.34718  1.00000  0.88637  1.0000
  Br  Br4       1.0  0.65284  1.00000  0.11364  1.0000
  N   N1        1.0  0.33770  0.63123  0.60781  1.0000
  N   N2        1.0  0.66232  0.63120  0.39218  1.0000
  N   N3        1.0  0.16228  0.36880  0.10782  1.0000
  N   N4        1.0  0.83767  0.36877  0.89218  1.0000
  N   N5        1.0  0.66232  0.36879  0.39219  1.0000
  N   N6        1.0  0.33770  0.36877  0.60781  1.0000
  N   N7        1.0  0.83769  0.63123  0.89219  1.0000
  N   N8        1.0  0.16229  0.63121  0.10783  1.0000
  N   N9        1.0  0.16358  0.36604  0.55506  1.0000
  N   N10       1.0  0.83644  0.36601  0.44494  1.0000
  N   N11       1.0  0.33641  0.63399  0.05506  1.0000
  N   N12       1.0  0.66356  0.63397  0.94494  1.0000
  N   N13       1.0  0.83644  0.63399  0.44494  1.0000
  N   N14       1.0  0.16357  0.63397  0.55506  1.0000
  N   N15       1.0  0.66355  0.36603  0.94494  1.0000
  N   N16       1.0  0.33641  0.36601  0.05506  1.0000
  O   O1        1.0  0.41577  0.49999  0.31159  1.0000
  O   O2        1.0  0.58427  0.50000  0.68842  1.0000
  O   O3        1.0  0.08420  0.50000  0.81154  1.0000
  O   O4        1.0  0.91571  0.50000  0.18843  1.0000
