data_image0
_chemical_formula_structural       Na5GdH24C12Cl2O29
_chemical_formula_sum              "Na5 Gd1 H24 C12 Cl2 O29"
_cell_length_a       9.62166
_cell_length_b       9.62158
_cell_length_c       10.9332
_cell_angle_alpha    63.8856
_cell_angle_beta     63.8857
_cell_angle_gamma    60.0057

_space_group_name_H-M_alt    "P 1"
_space_group_IT_number       1

loop_
  _space_group_symop_operation_xyz
  'x, y, z'

loop_
  _atom_site_type_symbol
  _atom_site_label
  _atom_site_symmetry_multiplicity
  _atom_site_fract_x
  _atom_site_fract_y
  _atom_site_fract_z
  _atom_site_occupancy
  Na  Na1       1.0  0.19461  0.19459  0.41616  1.0000
  Na  Na2       1.0  0.80540  0.80539  0.58384  1.0000
  Na  Na3       1.0  0.80516  0.19484  0.50000  1.0000
  Na  Na4       1.0  0.19485  0.50001  0.50004  1.0000
  Na  Na5       1.0  0.50000  0.80515  0.49997  1.0000
  Gd  Gd1       1.0  0.00004  0.99996  1.00000  1.0000
  H   H1        1.0  0.29629  0.17038  0.03749  1.0000
  H   H2        1.0  0.17024  0.49568  0.03765  1.0000
  H   H3        1.0  0.49584  0.29640  0.03737  1.0000
  H   H4        1.0  0.70360  0.50417  0.96262  1.0000
  H   H5        1.0  0.82962  0.70372  0.96251  1.0000
  H   H6        1.0  0.50431  0.82976  0.96235  1.0000
  H   H7        1.0  0.34727  0.96472  0.15832  1.0000
  H   H8        1.0  0.96456  0.52961  0.15842  1.0000
  H   H9        1.0  0.52962  0.34713  0.15839  1.0000
  H   H10       1.0  0.65287  0.47037  0.84161  1.0000
  H   H11       1.0  0.03528  0.65272  0.84168  1.0000
  H   H12       1.0  0.47038  0.03544  0.84158  1.0000
  H   H13       1.0  0.90695  0.19508  0.67874  1.0000
  H   H14       1.0  0.19519  0.21942  0.67883  1.0000
  H   H15       1.0  0.21938  0.90695  0.67867  1.0000
  H   H16       1.0  0.09305  0.78062  0.32132  1.0000
  H   H17       1.0  0.80492  0.09306  0.32126  1.0000
  H   H18       1.0  0.78058  0.80481  0.32118  1.0000
  H   H19       1.0  0.83454  0.38794  0.60463  1.0000
  H   H20       1.0  0.38804  0.17293  0.60464  1.0000
  H   H21       1.0  0.17298  0.83462  0.60455  1.0000
  H   H22       1.0  0.16539  0.82700  0.39545  1.0000
  H   H23       1.0  0.61206  0.16546  0.39537  1.0000
  H   H24       1.0  0.82709  0.61196  0.39536  1.0000
  C   C1        1.0  0.25845  0.06219  0.09667  1.0000
  C   C2        1.0  0.06209  0.58257  0.09677  1.0000
  C   C3        1.0  0.58261  0.25841  0.09665  1.0000
  C   C4        1.0  0.74159  0.41739  0.90335  1.0000
  C   C5        1.0  0.93781  0.74155  0.90332  1.0000
  C   C6        1.0  0.41743  0.93791  0.90323  1.0000
  C   C7        1.0  0.08367  0.11490  0.19829  1.0000
  C   C8        1.0  0.11488  0.60291  0.19836  1.0000
  C   C9        1.0  0.60288  0.08360  0.19814  1.0000
  C   C10       1.0  0.91640  0.39712  0.80186  1.0000
  C   C11       1.0  0.88510  0.91633  0.80170  1.0000
  C   C12       1.0  0.39709  0.88511  0.80164  1.0000
  Cl  Cl1       1.0  0.42984  0.42989  0.71092  1.0000
  Cl  Cl2       1.0  0.57010  0.57016  0.28908  1.0000
  O   O1        1.0  0.25733  0.99993  0.99999  1.0000
  O   O2        1.0  0.00007  0.74267  0.00001  1.0000
  O   O3        1.0  0.74277  0.25723  0.00000  1.0000
  O   O4        1.0  0.96779  0.10864  0.17404  1.0000
  O   O5        1.0  0.10867  0.74931  0.17407  1.0000
  O   O6        1.0  0.74917  0.96762  0.17371  1.0000
  O   O7        1.0  0.03238  0.25083  0.82629  1.0000
  O   O8        1.0  0.89137  0.03222  0.82596  1.0000
  O   O9        1.0  0.25070  0.89133  0.82593  1.0000
  O   O10       1.0  0.06313  0.15787  0.29984  1.0000
  O   O11       1.0  0.15787  0.47888  0.29989  1.0000
  O   O12       1.0  0.47886  0.06313  0.29973  1.0000
  O   O13       1.0  0.93686  0.52114  0.70027  1.0000
  O   O14       1.0  0.84214  0.93686  0.70016  1.0000
  O   O15       1.0  0.52112  0.84212  0.70011  1.0000
  O   O16       1.0  0.91859  0.28260  0.58489  1.0000
  O   O17       1.0  0.28263  0.21409  0.58496  1.0000
  O   O18       1.0  0.21408  0.91863  0.58483  1.0000
  O   O19       1.0  0.08137  0.78593  0.41516  1.0000
  O   O20       1.0  0.71741  0.08141  0.41510  1.0000
  O   O21       1.0  0.78591  0.71737  0.41504  1.0000
  O   O22       1.0  0.37830  0.37837  0.86543  1.0000
  O   O23       1.0  0.62163  0.62170  0.13456  1.0000
  O   O24       1.0  0.51728  0.28221  0.65890  1.0000
  O   O25       1.0  0.28218  0.54219  0.65888  1.0000
  O   O26       1.0  0.54212  0.51735  0.65893  1.0000
  O   O27       1.0  0.48265  0.45789  0.34106  1.0000
  O   O28       1.0  0.71778  0.48272  0.34109  1.0000
  O   O29       1.0  0.45781  0.71782  0.34112  1.0000
