data_image0
_chemical_formula_structural       ZnH30C18S4N2O8
_chemical_formula_sum              "Zn1 H30 C18 S4 N2 O8"
_cell_length_a       8.11547
_cell_length_b       8.77706
_cell_length_c       10.04
_cell_angle_alpha    94.0871
_cell_angle_beta     110.773
_cell_angle_gamma    107.979

_space_group_name_H-M_alt    "P 1"
_space_group_IT_number       1

loop_
  _space_group_symop_operation_xyz
  'x, y, z'

loop_
  _atom_site_type_symbol
  _atom_site_label
  _atom_site_symmetry_multiplicity
  _atom_site_fract_x
  _atom_site_fract_y
  _atom_site_fract_z
  _atom_site_occupancy
  Zn  Zn1       1.0  0.00000  0.00000  0.00000  1.0000
  H   H1        1.0  0.04200  0.61990  0.43073  1.0000
  H   H2        1.0  0.95801  0.38010  0.56927  1.0000
  H   H3        1.0  0.12384  0.59589  0.29032  1.0000
  H   H4        1.0  0.87616  0.40410  0.70968  1.0000
  H   H5        1.0  0.32608  0.89785  0.36380  1.0000
  H   H6        1.0  0.67392  0.10215  0.63620  1.0000
  H   H7        1.0  0.38845  0.80080  0.51388  1.0000
  H   H8        1.0  0.61155  0.19919  0.48612  1.0000
  H   H9        1.0  0.24533  0.92147  0.50399  1.0000
  H   H10       1.0  0.75467  0.07853  0.49601  1.0000
  H   H11       1.0  0.54789  0.84587  0.09141  1.0000
  H   H12       1.0  0.45211  0.15413  0.90859  1.0000
  H   H13       1.0  0.40922  0.62920  0.04178  1.0000
  H   H14       1.0  0.59079  0.37080  0.95821  1.0000
  H   H15       1.0  0.39142  0.75889  0.17943  1.0000
  H   H16       1.0  0.60858  0.24111  0.82057  1.0000
  H   H17       1.0  0.20200  0.82749  0.71103  1.0000
  H   H18       1.0  0.79800  0.17251  0.28897  1.0000
  H   H19       1.0  0.28202  0.66014  0.75849  1.0000
  H   H20       1.0  0.71798  0.33986  0.24151  1.0000
  H   H21       1.0  0.44338  0.87021  0.83382  1.0000
  H   H22       1.0  0.55662  0.12979  0.16618  1.0000
  H   H23       1.0  0.05743  0.07555  0.31828  1.0000
  H   H24       1.0  0.94257  0.92444  0.68171  1.0000
  H   H25       1.0  0.26696  0.28219  0.53981  1.0000
  H   H26       1.0  0.73304  0.71781  0.46019  1.0000
  H   H27       1.0  0.55364  0.54098  0.28362  1.0000
  H   H28       1.0  0.44636  0.45903  0.71638  1.0000
  H   H29       1.0  0.32506  0.32494  0.07260  1.0000
  H   H30       1.0  0.67494  0.67506  0.92740  1.0000
  C   C1        1.0  0.09912  0.68385  0.35755  1.0000
  C   C2        1.0  0.90088  0.31615  0.64245  1.0000
  C   C3        1.0  0.27505  0.83478  0.43987  1.0000
  C   C4        1.0  0.72495  0.16522  0.56013  1.0000
  C   C5        1.0  0.41440  0.75197  0.07829  1.0000
  C   C6        1.0  0.58560  0.24803  0.92171  1.0000
  C   C7        1.0  0.29675  0.78599  0.79572  1.0000
  C   C8        1.0  0.70325  0.21401  0.20428  1.0000
  C   C9        1.0  0.16879  0.18197  0.31519  1.0000
  C   C10       1.0  0.83120  0.81803  0.68481  1.0000
  C   C11       1.0  0.28889  0.30082  0.44020  1.0000
  C   C12       1.0  0.71111  0.69918  0.55980  1.0000
  C   C13       1.0  0.43295  0.43592  0.43455  1.0000
  C   C14       1.0  0.56705  0.56408  0.56545  1.0000
  C   C15       1.0  0.44493  0.44319  0.29890  1.0000
  C   C16       1.0  0.55507  0.55682  0.70110  1.0000
  C   C17       1.0  0.31852  0.31978  0.17874  1.0000
  C   C18       1.0  0.68148  0.68023  0.82126  1.0000
  S   S1        1.0  0.91073  0.73565  0.23410  1.0000
  S   S2        1.0  0.08926  0.26435  0.76590  1.0000
  S   S3        1.0  0.22004  0.78290  0.94294  1.0000
  S   S4        1.0  0.77996  0.21710  0.05706  1.0000
  N   N1        1.0  0.18266  0.19009  0.18580  1.0000
  N   N2        1.0  0.81734  0.80991  0.81420  1.0000
  O   O1        1.0  0.99287  0.81733  0.13570  1.0000
  O   O2        1.0  0.00713  0.18267  0.86430  1.0000
  O   O3        1.0  0.75309  0.58053  0.15770  1.0000
  O   O4        1.0  0.24691  0.41947  0.84230  1.0000
  O   O5        1.0  0.86631  0.84535  0.32214  1.0000
  O   O6        1.0  0.13369  0.15465  0.67786  1.0000
  O   O7        1.0  0.24337  0.96182  0.99023  1.0000
  O   O8        1.0  0.75662  0.03818  0.00977  1.0000
