data_image0
_chemical_formula_structural       CoH24C22N2O6
_chemical_formula_sum              "Co1 H24 C22 N2 O6"
_cell_length_a       5.50577
_cell_length_b       8.69455
_cell_length_c       10.6932
_cell_angle_alpha    94.3311
_cell_angle_beta     94.9982
_cell_angle_gamma    91.5331

_space_group_name_H-M_alt    "P 1"
_space_group_IT_number       1

loop_
  _space_group_symop_operation_xyz
  'x, y, z'

loop_
  _atom_site_type_symbol
  _atom_site_label
  _atom_site_symmetry_multiplicity
  _atom_site_fract_x
  _atom_site_fract_y
  _atom_site_fract_z
  _atom_site_occupancy
  Co  Co1       1.0  0.50000  0.50000  0.00000  1.0000
  H   H1        1.0  0.12424  0.71969  0.06727  1.0000
  H   H2        1.0  0.87577  0.28032  0.93274  1.0000
  H   H3        1.0  0.08404  0.92124  0.23778  1.0000
  H   H4        1.0  0.91596  0.07876  0.76223  1.0000
  H   H5        1.0  0.79444  0.80282  0.40053  1.0000
  H   H6        1.0  0.20556  0.19718  0.59947  1.0000
  H   H7        1.0  0.81178  0.61228  0.22028  1.0000
  H   H8        1.0  0.18822  0.38772  0.77972  1.0000
  H   H9        1.0  0.22107  0.98433  0.47346  1.0000
  H   H10       1.0  0.77894  0.01567  0.52654  1.0000
  H   H11       1.0  0.40745  0.11505  0.40438  1.0000
  H   H12       1.0  0.59256  0.88495  0.59562  1.0000
  H   H13       1.0  0.84214  0.13877  0.34801  1.0000
  H   H14       1.0  0.15786  0.86123  0.65199  1.0000
  H   H15       1.0  0.07738  0.21560  0.26362  1.0000
  H   H16       1.0  0.92262  0.78440  0.73638  1.0000
  H   H17       1.0  0.63034  0.33141  0.49870  1.0000
  H   H18       1.0  0.36965  0.66860  0.50129  1.0000
  H   H19       1.0  0.29537  0.45078  0.33971  1.0000
  H   H20       1.0  0.70462  0.54923  0.66029  1.0000
  H   H21       1.0  0.32682  0.30325  0.11374  1.0000
  H   H22       1.0  0.67317  0.69674  0.88626  1.0000
  H   H23       1.0  0.08337  0.40188  0.08814  1.0000
  H   H24       1.0  0.91662  0.59811  0.91186  1.0000
  C   C1        1.0  0.26998  0.74204  0.14232  1.0000
  C   C2        1.0  0.73002  0.25796  0.85769  1.0000
  C   C3        1.0  0.24950  0.85518  0.23887  1.0000
  C   C4        1.0  0.75051  0.14483  0.76114  1.0000
  C   C5        1.0  0.43555  0.88215  0.33675  1.0000
  C   C6        1.0  0.56446  0.11784  0.66325  1.0000
  C   C7        1.0  0.64132  0.79250  0.32842  1.0000
  C   C8        1.0  0.35868  0.20749  0.67159  1.0000
  C   C9        1.0  0.65316  0.68285  0.22775  1.0000
  C   C10       1.0  0.34684  0.31715  0.77225  1.0000
  C   C11       1.0  0.40581  0.00110  0.44349  1.0000
  C   C12       1.0  0.59419  0.99889  0.55651  1.0000
  C   C13       1.0  0.71315  0.28570  0.20681  1.0000
  C   C14       1.0  0.28685  0.71429  0.79318  1.0000
  C   C15       1.0  0.90896  0.24238  0.30739  1.0000
  C   C16       1.0  0.09105  0.75762  0.69261  1.0000
  C   C17       1.0  0.95831  0.37408  0.40780  1.0000
  C   C18       1.0  0.04168  0.62592  0.59220  1.0000
  C   C19       1.0  0.79453  0.40419  0.49921  1.0000
  C   C20       1.0  0.20546  0.59581  0.50078  1.0000
  C   C21       1.0  0.16462  0.47241  0.40955  1.0000
  C   C22       1.0  0.83537  0.52759  0.59044  1.0000
  N   N1        1.0  0.46951  0.65485  0.13590  1.0000
  N   N2        1.0  0.53050  0.34515  0.86410  1.0000
  O   O1        1.0  0.49802  0.23156  0.21110  1.0000
  O   O2        1.0  0.50199  0.76843  0.78890  1.0000
  O   O3        1.0  0.77688  0.37875  0.12742  1.0000
  O   O4        1.0  0.22312  0.62125  0.87258  1.0000
  O   O5        1.0  0.23152  0.36630  0.04887  1.0000
  O   O6        1.0  0.76848  0.63370  0.95113  1.0000
