data_image0
_chemical_formula_structural       Na4Cu2H24C32O20
_chemical_formula_sum              "Na4 Cu2 H24 C32 O20"
_cell_length_a       6.55177
_cell_length_b       11.056
_cell_length_c       12.3038
_cell_angle_alpha    102.247
_cell_angle_beta     89.9997
_cell_angle_gamma    90.0006

_space_group_name_H-M_alt    "P 1"
_space_group_IT_number       1

loop_
  _space_group_symop_operation_xyz
  'x, y, z'

loop_
  _atom_site_type_symbol
  _atom_site_label
  _atom_site_symmetry_multiplicity
  _atom_site_fract_x
  _atom_site_fract_y
  _atom_site_fract_z
  _atom_site_occupancy
  Na  Na1       1.0  0.85219  0.59364  0.69762  1.0000
  Na  Na2       1.0  0.64780  0.59363  0.19763  1.0000
  Na  Na3       1.0  0.14781  0.40636  0.30237  1.0000
  Na  Na4       1.0  0.35220  0.40637  0.80237  1.0000
  Cu  Cu1       1.0  1.00000  0.50000  1.00000  1.0000
  Cu  Cu2       1.0  0.50000  0.50000  0.50000  1.0000
  H   H1        1.0  0.12129  0.93224  0.01351  1.0000
  H   H2        1.0  0.37872  0.93224  0.51351  1.0000
  H   H3        1.0  0.87871  0.06776  0.98649  1.0000
  H   H4        1.0  0.62129  0.06776  0.48649  1.0000
  H   H5        1.0  0.32108  0.10350  0.96232  1.0000
  H   H6        1.0  0.17892  0.10350  0.46232  1.0000
  H   H7        1.0  0.67892  0.89650  0.03768  1.0000
  H   H8        1.0  0.82109  0.89650  0.53768  1.0000
  H   H9        1.0  0.54234  0.06160  0.79455  1.0000
  H   H10       1.0  0.95765  0.06161  0.29455  1.0000
  H   H11       1.0  0.45766  0.93840  0.20545  1.0000
  H   H12       1.0  0.04235  0.93840  0.70545  1.0000
  H   H13       1.0  0.56569  0.84694  0.67917  1.0000
  H   H14       1.0  0.93430  0.84694  0.17918  1.0000
  H   H15       1.0  0.43430  0.15307  0.32083  1.0000
  H   H16       1.0  0.06570  0.15307  0.82083  1.0000
  H   H17       1.0  0.04498  0.64951  0.50117  1.0000
  H   H18       1.0  0.45501  0.64952  0.00117  1.0000
  H   H19       1.0  0.95502  0.35050  0.49883  1.0000
  H   H20       1.0  0.54499  0.35049  0.99882  1.0000
  H   H21       1.0  0.80981  0.67275  0.48292  1.0000
  H   H22       1.0  0.69019  0.67276  0.98292  1.0000
  H   H23       1.0  0.19019  0.32725  0.51708  1.0000
  H   H24       1.0  0.30981  0.32724  0.01707  1.0000
  C   C1        1.0  0.09672  0.69635  0.90629  1.0000
  C   C2        1.0  0.40329  0.69635  0.40629  1.0000
  C   C3        1.0  0.90328  0.30366  0.09371  1.0000
  C   C4        1.0  0.59671  0.30365  0.59372  1.0000
  C   C5        1.0  0.22559  0.79504  0.87345  1.0000
  C   C6        1.0  0.27441  0.79505  0.37345  1.0000
  C   C7        1.0  0.77441  0.20496  0.12655  1.0000
  C   C8        1.0  0.72559  0.20495  0.62655  1.0000
  C   C9        1.0  0.21638  0.91474  0.93919  1.0000
  C   C10       1.0  0.28362  0.91474  0.43919  1.0000
  C   C11       1.0  0.78362  0.08526  0.06081  1.0000
  C   C12       1.0  0.71638  0.08526  0.56081  1.0000
  C   C13       1.0  0.32924  0.01039  0.91077  1.0000
  C   C14       1.0  0.17076  0.01039  0.41077  1.0000
  C   C15       1.0  0.67075  0.98961  0.08923  1.0000
  C   C16       1.0  0.82925  0.98960  0.58923  1.0000
  C   C17       1.0  0.45444  0.98674  0.81671  1.0000
  C   C18       1.0  0.04556  0.98674  0.31672  1.0000
  C   C19       1.0  0.54556  0.01326  0.18329  1.0000
  C   C20       1.0  0.95444  0.01326  0.68329  1.0000
  C   C21       1.0  0.46733  0.86717  0.75212  1.0000
  C   C22       1.0  0.03267  0.86718  0.25212  1.0000
  C   C23       1.0  0.53268  0.13282  0.24788  1.0000
  C   C24       1.0  0.96733  0.13282  0.74788  1.0000
  C   C25       1.0  0.35238  0.77048  0.77901  1.0000
  C   C26       1.0  0.14762  0.77048  0.27901  1.0000
  C   C27       1.0  0.64762  0.22952  0.22099  1.0000
  C   C28       1.0  0.85238  0.22952  0.72099  1.0000
  C   C29       1.0  0.35691  0.64437  0.70466  1.0000
  C   C30       1.0  0.14308  0.64437  0.20466  1.0000
  C   C31       1.0  0.64309  0.35563  0.29534  1.0000
  C   C32       1.0  0.85692  0.35563  0.79534  1.0000
  O   O1        1.0  0.90647  0.70008  0.89490  1.0000
  O   O2        1.0  0.59353  0.70008  0.39491  1.0000
  O   O3        1.0  0.09352  0.29991  0.10509  1.0000
  O   O4        1.0  0.40647  0.29991  0.60509  1.0000
  O   O5        1.0  0.19282  0.61506  0.94911  1.0000
  O   O6        1.0  0.30719  0.61506  0.44910  1.0000
  O   O7        1.0  0.80718  0.38494  0.05089  1.0000
  O   O8        1.0  0.69281  0.38494  0.55089  1.0000
  O   O9        1.0  0.51748  0.62027  0.64222  1.0000
  O   O10       1.0  0.98251  0.62027  0.14222  1.0000
  O   O11       1.0  0.48251  0.37973  0.35778  1.0000
  O   O12       1.0  0.01749  0.37973  0.85777  1.0000
  O   O13       1.0  0.21226  0.56968  0.70546  1.0000
  O   O14       1.0  0.28774  0.56968  0.20547  1.0000
  O   O15       1.0  0.78775  0.43032  0.29454  1.0000
  O   O16       1.0  0.71226  0.43032  0.79453  1.0000
  O   O17       1.0  0.91369  0.66882  0.53991  1.0000
  O   O18       1.0  0.58630  0.66883  0.03991  1.0000
  O   O19       1.0  0.08630  0.33119  0.46009  1.0000
  O   O20       1.0  0.41371  0.33118  0.96009  1.0000
