data_image0
_chemical_formula_structural       Na4H32C32O14
_chemical_formula_sum              "Na4 H32 C32 O14"
_cell_length_a       6.16899
_cell_length_b       7.49224
_cell_length_c       17.467
_cell_angle_alpha    102.355
_cell_angle_beta     97.8447
_cell_angle_gamma    89.9713

_space_group_name_H-M_alt    "P 1"
_space_group_IT_number       1

loop_
  _space_group_symop_operation_xyz
  'x, y, z'

loop_
  _atom_site_type_symbol
  _atom_site_label
  _atom_site_symmetry_multiplicity
  _atom_site_fract_x
  _atom_site_fract_y
  _atom_site_fract_z
  _atom_site_occupancy
  Na  Na1       1.0  0.96247  0.35453  0.06357  1.0000
  Na  Na2       1.0  0.46254  0.70874  0.06357  1.0000
  Na  Na3       1.0  0.03754  0.64547  0.93643  1.0000
  Na  Na4       1.0  0.53747  0.29126  0.93642  1.0000
  H   H1        1.0  0.74364  0.96421  0.95511  1.0000
  H   H2        1.0  0.24381  0.99110  0.95529  1.0000
  H   H3        1.0  0.25637  0.03579  0.04489  1.0000
  H   H4        1.0  0.75619  0.00890  0.04471  1.0000
  H   H5        1.0  0.56004  0.32736  0.24381  1.0000
  H   H6        1.0  0.05985  0.91549  0.24374  1.0000
  H   H7        1.0  0.43996  0.67264  0.75618  1.0000
  H   H8        1.0  0.94015  0.08451  0.75626  1.0000
  H   H9        1.0  0.64867  0.12446  0.18307  1.0000
  H   H10       1.0  0.14846  0.05784  0.18306  1.0000
  H   H11       1.0  0.35133  0.87554  0.81692  1.0000
  H   H12       1.0  0.85154  0.94215  0.81694  1.0000
  H   H13       1.0  0.21714  0.53900  0.23496  1.0000
  H   H14       1.0  0.71759  0.69540  0.23513  1.0000
  H   H15       1.0  0.78286  0.46100  0.76504  1.0000
  H   H16       1.0  0.28241  0.30460  0.76486  1.0000
  H   H17       1.0  0.44514  0.61452  0.36743  1.0000
  H   H18       1.0  0.94577  0.75297  0.36758  1.0000
  H   H19       1.0  0.55486  0.38547  0.63258  1.0000
  H   H20       1.0  0.05423  0.24703  0.63242  1.0000
  H   H21       1.0  0.32600  0.50438  0.48119  1.0000
  H   H22       1.0  0.82620  0.97710  0.48118  1.0000
  H   H23       1.0  0.67399  0.49562  0.51881  1.0000
  H   H24       1.0  0.17380  0.02289  0.51882  1.0000
  H   H25       1.0  0.98977  0.30611  0.45871  1.0000
  H   H26       1.0  0.48928  0.15229  0.45849  1.0000
  H   H27       1.0  0.01022  0.69389  0.54129  1.0000
  H   H28       1.0  0.51072  0.84770  0.54151  1.0000
  H   H29       1.0  0.76795  0.22634  0.32783  1.0000
  H   H30       1.0  0.26740  0.10054  0.32764  1.0000
  H   H31       1.0  0.23204  0.77367  0.67217  1.0000
  H   H32       1.0  0.73260  0.89946  0.67236  1.0000
  C   C1        1.0  0.49273  0.31894  0.12021  1.0000
  C   C2        1.0  0.99275  0.80066  0.12014  1.0000
  C   C3        1.0  0.50728  0.68107  0.87979  1.0000
  C   C4        1.0  0.00726  0.19934  0.87985  1.0000
  C   C5        1.0  0.63842  0.27396  0.19093  1.0000
  C   C6        1.0  0.13832  0.91616  0.19089  1.0000
  C   C7        1.0  0.36159  0.72604  0.80907  1.0000
  C   C8        1.0  0.86168  0.08384  0.80911  1.0000
  C   C9        1.0  0.97608  0.38244  0.27326  1.0000
  C   C10       1.0  0.47604  0.89009  0.27325  1.0000
  C   C11       1.0  0.02392  0.61756  0.72674  1.0000
  C   C12       1.0  0.52396  0.10991  0.72675  1.0000
  C   C13       1.0  0.17005  0.48826  0.28450  1.0000
  C   C14       1.0  0.67027  0.79571  0.28458  1.0000
  C   C15       1.0  0.82995  0.51173  0.71550  1.0000
  C   C16       1.0  0.32973  0.20429  0.71542  1.0000
  C   C17       1.0  0.29613  0.53037  0.35895  1.0000
  C   C18       1.0  0.79644  0.82838  0.35904  1.0000
  C   C19       1.0  0.70386  0.46962  0.64105  1.0000
  C   C20       1.0  0.20356  0.17162  0.64096  1.0000
  C   C21       1.0  0.23060  0.46789  0.42249  1.0000
  C   C22       1.0  0.73071  0.95454  0.42248  1.0000
  C   C23       1.0  0.76939  0.53211  0.57751  1.0000
  C   C24       1.0  0.26929  0.04546  0.57752  1.0000
  C   C25       1.0  0.04111  0.35839  0.41015  1.0000
  C   C26       1.0  0.54085  0.05139  0.41003  1.0000
  C   C27       1.0  0.95888  0.64161  0.58985  1.0000
  C   C28       1.0  0.45914  0.94861  0.58996  1.0000
  C   C29       1.0  0.91358  0.31370  0.33580  1.0000
  C   C30       1.0  0.41330  0.02137  0.33569  1.0000
  C   C31       1.0  0.08642  0.68630  0.66420  1.0000
  C   C32       1.0  0.58671  0.97863  0.66431  1.0000
  O   O1        1.0  0.85429  0.35466  0.19943  1.0000
  O   O2        1.0  0.35423  0.84389  0.19943  1.0000
  O   O3        1.0  0.14572  0.64534  0.80058  1.0000
  O   O4        1.0  0.64577  0.15611  0.80057  1.0000
  O   O5        1.0  0.56901  0.41758  0.07900  1.0000
  O   O6        1.0  0.06916  0.66086  0.07898  1.0000
  O   O7        1.0  0.43100  0.58243  0.92100  1.0000
  O   O8        1.0  0.93084  0.33914  0.92102  1.0000
  O   O9        1.0  0.29945  0.25094  0.10942  1.0000
  O   O10       1.0  0.79942  0.85794  0.10931  1.0000
  O   O11       1.0  0.70055  0.74906  0.89058  1.0000
  O   O12       1.0  0.20058  0.14206  0.89069  1.0000
  O   O13       1.0  0.74993  0.07137  0.99992  1.0000
  O   O14       1.0  0.25007  0.92863  0.00008  1.0000
