data_image0
_chemical_formula_structural       Cd2H20C16I4N8
_chemical_formula_sum              "Cd2 H20 C16 I4 N8"
_cell_length_a       5.32459
_cell_length_b       8.26348
_cell_length_c       15.6373
_cell_angle_alpha    87.8669
_cell_angle_beta     83.3395
_cell_angle_gamma    71.2634

_space_group_name_H-M_alt    "P 1"
_space_group_IT_number       1

loop_
  _space_group_symop_operation_xyz
  'x, y, z'

loop_
  _atom_site_type_symbol
  _atom_site_label
  _atom_site_symmetry_multiplicity
  _atom_site_fract_x
  _atom_site_fract_y
  _atom_site_fract_z
  _atom_site_occupancy
  Cd  Cd1       1.0  0.17177  0.38393  0.78597  1.0000
  Cd  Cd2       1.0  0.55794  0.61593  0.28722  1.0000
  H   H1        1.0  0.60259  0.76578  0.53787  1.0000
  H   H2        1.0  0.36600  0.23751  0.03812  1.0000
  H   H3        1.0  0.07584  0.54051  0.58791  1.0000
  H   H4        1.0  0.61674  0.46128  0.08875  1.0000
  H   H5        1.0  0.09592  0.86360  0.73899  1.0000
  H   H6        1.0  0.95696  0.13895  0.23914  1.0000
  H   H7        1.0  0.10163  0.84922  0.62506  1.0000
  H   H8        1.0  0.95118  0.15144  0.12512  1.0000
  H   H9        1.0  0.22160  0.00361  0.67006  1.0000
  H   H10       1.0  0.22344  0.99794  0.17112  1.0000
  H   H11       1.0  0.34446  0.79095  0.02666  1.0000
  H   H12       1.0  0.13526  0.20642  0.52707  1.0000
  H   H13       1.0  0.10436  0.55596  0.98347  1.0000
  H   H14       1.0  0.66126  0.44177  0.48393  1.0000
  H   H15       1.0  0.61260  0.95097  0.94489  1.0000
  H   H16       1.0  0.56101  0.04632  0.44563  1.0000
  H   H17       1.0  0.56648  0.97903  0.83361  1.0000
  H   H18       1.0  0.54722  0.02077  0.33378  1.0000
  H   H19       1.0  0.85428  0.81857  0.86733  1.0000
  H   H20       1.0  0.67404  0.18024  0.36970  1.0000
  C   C1        1.0  0.59581  0.66235  0.74006  1.0000
  C   C2        1.0  0.25943  0.33788  0.24071  1.0000
  C   C3        1.0  0.65533  0.71295  0.60032  1.0000
  C   C4        1.0  0.36690  0.28945  0.10069  1.0000
  C   C5        1.0  0.88728  0.60135  0.62606  1.0000
  C   C6        1.0  0.48886  0.40013  0.12669  1.0000
  C   C7        1.0  0.20639  0.87424  0.67674  1.0000
  C   C8        1.0  0.07948  0.12738  0.17714  1.0000
  C   C9        1.0  0.46551  0.66591  0.82762  1.0000
  C   C10       1.0  0.13296  0.33350  0.32828  1.0000
  C   C11       1.0  0.34971  0.73030  0.96594  1.0000
  C   C12       1.0  0.08034  0.26769  0.46641  1.0000
  C   C13       1.0  0.23332  0.61358  0.94363  1.0000
  C   C14       1.0  0.84805  0.38491  0.44415  1.0000
  C   C15       1.0  0.64125  0.88489  0.88358  1.0000
  C   C16       1.0  0.52653  0.11379  0.38453  1.0000
  I   I1        1.0  0.95077  0.22095  0.91524  1.0000
  I   I2        1.0  0.17471  0.77667  0.41675  1.0000
  I   I3        1.0  0.55842  0.22113  0.65690  1.0000
  I   I4        1.0  0.77919  0.78065  0.15802  1.0000
  N   N1        1.0  0.84923  0.57163  0.71285  1.0000
  N   N2        1.0  0.42241  0.42865  0.21361  1.0000
  N   N3        1.0  0.47330  0.75010  0.67254  1.0000
  N   N4        1.0  0.22292  0.25136  0.17293  1.0000
  N   N5        1.0  0.30545  0.57492  0.85767  1.0000
  N   N6        1.0  0.88202  0.42422  0.35829  1.0000
  N   N7        1.0  0.49459  0.76234  0.89245  1.0000
  N   N8        1.0  0.25767  0.23640  0.39303  1.0000
