data_image0
_chemical_formula_structural       Cd2H20C16Br4N8
_chemical_formula_sum              "Cd2 H20 C16 Br4 N8"
_cell_length_a       4.91391
_cell_length_b       8.37328
_cell_length_c       15.3609
_cell_angle_alpha    87.2618
_cell_angle_beta     80.7611
_cell_angle_gamma    72.6657

_space_group_name_H-M_alt    "P 1"
_space_group_IT_number       1

loop_
  _space_group_symop_operation_xyz
  'x, y, z'

loop_
  _atom_site_type_symbol
  _atom_site_label
  _atom_site_symmetry_multiplicity
  _atom_site_fract_x
  _atom_site_fract_y
  _atom_site_fract_z
  _atom_site_occupancy
  Cd  Cd1       1.0  0.62545  0.74787  0.00065  1.0000
  Cd  Cd2       1.0  0.37573  0.24767  0.49944  1.0000
  H   H1        1.0  0.21543  0.35360  0.25215  1.0000
  H   H2        1.0  0.42964  0.35156  0.74783  1.0000
  H   H3        1.0  0.92716  0.85163  0.75223  1.0000
  H   H4        1.0  0.21766  0.85359  0.24790  1.0000
  H   H5        1.0  0.51003  0.58974  0.20751  1.0000
  H   H6        1.0  0.89730  0.58989  0.79276  1.0000
  H   H7        1.0  0.43922  0.08961  0.70749  1.0000
  H   H8        1.0  0.46802  0.08950  0.29251  1.0000
  H   H9        1.0  0.05563  0.21908  0.03500  1.0000
  H   H10       1.0  0.72768  0.21614  0.96463  1.0000
  H   H11       1.0  0.44172  0.71640  0.53518  1.0000
  H   H12       1.0  0.83992  0.71894  0.46492  1.0000
  H   H13       1.0  0.85694  0.26109  0.14428  1.0000
  H   H14       1.0  0.88495  0.26011  0.85600  1.0000
  H   H15       1.0  0.49052  0.76012  0.64375  1.0000
  H   H16       1.0  0.75104  0.76119  0.35566  1.0000
  H   H17       1.0  0.21104  0.11334  0.12609  1.0000
  H   H18       1.0  0.68139  0.11237  0.87272  1.0000
  H   H19       1.0  0.30377  0.61238  0.62709  1.0000
  H   H20       1.0  0.08682  0.61339  0.37379  1.0000
  C   C1        1.0  0.29833  0.45640  0.04541  1.0000
  C   C2        1.0  0.24670  0.45633  0.95437  1.0000
  C   C3        1.0  0.95034  0.95629  0.54569  1.0000
  C   C4        1.0  0.09331  0.95637  0.45463  1.0000
  C   C5        1.0  0.27219  0.40856  0.18914  1.0000
  C   C6        1.0  0.31836  0.40736  0.81078  1.0000
  C   C7        1.0  0.87858  0.90729  0.68930  1.0000
  C   C8        1.0  0.21141  0.90854  0.31090  1.0000
  C   C9        1.0  0.41425  0.52708  0.16618  1.0000
  C   C10       1.0  0.05729  0.52701  0.83386  1.0000
  C   C11       1.0  0.64034  0.02679  0.66630  1.0000
  C   C12       1.0  0.33065  0.02696  0.33388  1.0000
  C   C13       1.0  0.07136  0.23181  0.10440  1.0000
  C   C14       1.0  0.69978  0.23038  0.89521  1.0000
  C   C15       1.0  0.34447  0.73045  0.60462  1.0000
  C   C16       1.0  0.92541  0.73183  0.39555  1.0000
  Br  Br1       1.0  0.76842  0.89682  0.12096  1.0000
  Br  Br2       1.0  0.33334  0.90048  0.88067  1.0000
  Br  Br3       1.0  0.96299  0.40050  0.61931  1.0000
  Br  Br4       1.0  0.63919  0.39636  0.37898  1.0000
  N   N1        1.0  0.42935  0.55584  0.07702  1.0000
  N   N2        1.0  0.01504  0.55642  0.92291  1.0000
  N   N3        1.0  0.68705  0.05621  0.57724  1.0000
  N   N4        1.0  0.25627  0.05570  0.42305  1.0000
  N   N5        1.0  0.20159  0.36455  0.11255  1.0000
  N   N6        1.0  0.43500  0.36347  0.88720  1.0000
  N   N7        1.0  0.07165  0.86353  0.61281  1.0000
  N   N8        1.0  0.06381  0.86459  0.38748  1.0000
