data_image0
_chemical_formula_structural       Cd2H20C16N8Cl4
_chemical_formula_sum              "Cd2 H20 C16 N8 Cl4"
_cell_length_a       5.21704
_cell_length_b       8.45511
_cell_length_c       13.5471
_cell_angle_alpha    97.6842
_cell_angle_beta     89.9999
_cell_angle_gamma    90.0001

_space_group_name_H-M_alt    "P 1"
_space_group_IT_number       1

loop_
  _space_group_symop_operation_xyz
  'x, y, z'

loop_
  _atom_site_type_symbol
  _atom_site_label
  _atom_site_symmetry_multiplicity
  _atom_site_fract_x
  _atom_site_fract_y
  _atom_site_fract_z
  _atom_site_occupancy
  Cd  Cd1       1.0  0.49794  0.00286  0.58502  1.0000
  Cd  Cd2       1.0  0.50206  0.50286  0.08502  1.0000
  H   H1        1.0  0.91857  0.81279  0.91794  1.0000
  H   H2        1.0  0.08144  0.31280  0.41794  1.0000
  H   H3        1.0  0.56321  0.76705  0.76217  1.0000
  H   H4        1.0  0.43679  0.26705  0.26217  1.0000
  H   H5        1.0  0.31177  0.18167  0.87789  1.0000
  H   H6        1.0  0.68824  0.68167  0.37789  1.0000
  H   H7        1.0  0.37487  0.99222  0.91762  1.0000
  H   H8        1.0  0.62513  0.49222  0.41762  1.0000
  H   H9        1.0  0.14316  0.12590  0.98210  1.0000
  H   H10       1.0  0.85684  0.62590  0.48211  1.0000
  H   H11       1.0  0.40001  0.38870  0.57674  1.0000
  H   H12       1.0  0.59998  0.88869  0.07674  1.0000
  H   H13       1.0  0.05139  0.58155  0.69149  1.0000
  H   H14       1.0  0.94861  0.08155  0.19149  1.0000
  H   H15       1.0  0.69192  0.30891  0.85038  1.0000
  H   H16       1.0  0.30808  0.80890  0.35038  1.0000
  H   H17       1.0  0.59720  0.46479  0.78083  1.0000
  H   H18       1.0  0.40280  0.96479  0.28083  1.0000
  H   H19       1.0  0.84529  0.49800  0.87349  1.0000
  H   H20       1.0  0.15471  0.99800  0.37349  1.0000
  C   C1        1.0  0.94096  0.06658  0.75861  1.0000
  C   C2        1.0  0.05905  0.56658  0.25860  1.0000
  C   C3        1.0  0.88307  0.87883  0.85605  1.0000
  C   C4        1.0  0.11693  0.37883  0.35605  1.0000
  C   C5        1.0  0.71103  0.85699  0.77841  1.0000
  C   C6        1.0  0.28897  0.35699  0.27840  1.0000
  C   C7        1.0  0.22702  0.08134  0.90954  1.0000
  C   C8        1.0  0.77298  0.58134  0.40954  1.0000
  C   C9        1.0  0.04440  0.20544  0.71841  1.0000
  C   C10       1.0  0.95561  0.70544  0.21841  1.0000
  C   C11       1.0  0.25961  0.35794  0.62996  1.0000
  C   C12       1.0  0.74039  0.85794  0.12996  1.0000
  C   C13       1.0  0.08674  0.45443  0.68620  1.0000
  C   C14       1.0  0.91326  0.95444  0.18621  1.0000
  C   C15       1.0  0.75888  0.41105  0.81570  1.0000
  C   C16       1.0  0.24112  0.91105  0.31570  1.0000
  N   N1        1.0  0.74804  0.97433  0.71864  1.0000
  N   N2        1.0  0.25196  0.47433  0.21864  1.0000
  N   N3        1.0  0.02677  0.01059  0.84262  1.0000
  N   N4        1.0  0.97324  0.51059  0.34262  1.0000
  N   N5        1.0  0.23245  0.20405  0.65065  1.0000
  N   N6        1.0  0.76755  0.70405  0.15065  1.0000
  N   N7        1.0  0.95305  0.35731  0.74151  1.0000
  N   N8        1.0  0.04695  0.85730  0.24151  1.0000
  Cl  Cl1       1.0  0.28754  0.74384  0.55764  1.0000
  Cl  Cl2       1.0  0.71245  0.24384  0.05764  1.0000
  Cl  Cl3       1.0  0.70591  0.12646  0.45319  1.0000
  Cl  Cl4       1.0  0.29409  0.62646  0.95319  1.0000
