data_image0
_chemical_formula_structural       Cd4H52C48N4O20
_chemical_formula_sum              "Cd4 H52 C48 N4 O20"
_cell_length_a       7.299
_cell_length_b       10.9194
_cell_length_c       16.1746
_cell_angle_alpha    90
_cell_angle_beta     90.0001
_cell_angle_gamma    90.0002

_space_group_name_H-M_alt    "P 1"
_space_group_IT_number       1

loop_
  _space_group_symop_operation_xyz
  'x, y, z'

loop_
  _atom_site_type_symbol
  _atom_site_label
  _atom_site_symmetry_multiplicity
  _atom_site_fract_x
  _atom_site_fract_y
  _atom_site_fract_z
  _atom_site_occupancy
  Cd  Cd1       1.0  0.45545  0.49016  0.22158  1.0000
  Cd  Cd2       1.0  0.54455  0.99016  0.77842  1.0000
  Cd  Cd3       1.0  0.95545  0.49016  0.27841  1.0000
  Cd  Cd4       1.0  0.04455  0.99016  0.72158  1.0000
  H   H1        1.0  0.31922  0.44913  0.48746  1.0000
  H   H2        1.0  0.68078  0.94913  0.51254  1.0000
  H   H3        1.0  0.81922  0.44913  0.01254  1.0000
  H   H4        1.0  0.18077  0.94913  0.98746  1.0000
  H   H5        1.0  0.45927  0.23796  0.70322  1.0000
  H   H6        1.0  0.54072  0.73796  0.29678  1.0000
  H   H7        1.0  0.95927  0.23796  0.79677  1.0000
  H   H8        1.0  0.04073  0.73796  0.20322  1.0000
  H   H9        1.0  0.81896  0.24089  0.49273  1.0000
  H   H10       1.0  0.18104  0.74089  0.50727  1.0000
  H   H11       1.0  0.31896  0.24089  0.00727  1.0000
  H   H12       1.0  0.68104  0.74089  0.99273  1.0000
  H   H13       1.0  0.17647  0.34147  0.70167  1.0000
  H   H14       1.0  0.82353  0.84147  0.29833  1.0000
  H   H15       1.0  0.67647  0.34147  0.79833  1.0000
  H   H16       1.0  0.32353  0.84147  0.20167  1.0000
  H   H17       1.0  0.07435  0.37176  0.60405  1.0000
  H   H18       1.0  0.92565  0.87176  0.39595  1.0000
  H   H19       1.0  0.57435  0.37176  0.89595  1.0000
  H   H20       1.0  0.42565  0.87176  0.10405  1.0000
  H   H21       1.0  0.19912  0.48862  0.65482  1.0000
  H   H22       1.0  0.80089  0.98862  0.34518  1.0000
  H   H23       1.0  0.69911  0.48862  0.84518  1.0000
  H   H24       1.0  0.30089  0.98861  0.15482  1.0000
  H   H25       1.0  0.62723  0.14935  0.00410  1.0000
  H   H26       1.0  0.37279  0.64935  0.99590  1.0000
  H   H27       1.0  0.12721  0.14935  0.49590  1.0000
  H   H28       1.0  0.87278  0.64935  0.50410  1.0000
  H   H29       1.0  0.70342  0.01166  0.05204  1.0000
  H   H30       1.0  0.29659  0.51166  0.94796  1.0000
  H   H31       1.0  0.20341  0.01166  0.44796  1.0000
  H   H32       1.0  0.79659  0.51166  0.55204  1.0000
  H   H33       1.0  0.86568  0.11293  0.00606  1.0000
  H   H34       1.0  0.13433  0.61292  0.99395  1.0000
  H   H35       1.0  0.36567  0.11293  0.49395  1.0000
  H   H36       1.0  0.63433  0.61293  0.50605  1.0000
  H   H37       1.0  0.89296  0.18408  0.23227  1.0000
  H   H38       1.0  0.10704  0.68409  0.76773  1.0000
  H   H39       1.0  0.39297  0.18409  0.26773  1.0000
  H   H40       1.0  0.60704  0.68409  0.73227  1.0000
  H   H41       1.0  0.03284  0.13836  0.14703  1.0000
  H   H42       1.0  0.96716  0.63836  0.85298  1.0000
  H   H43       1.0  0.53284  0.13837  0.35298  1.0000
  H   H44       1.0  0.46716  0.63836  0.64702  1.0000
  H   H45       1.0  0.87499  0.03155  0.19044  1.0000
  H   H46       1.0  0.12500  0.53155  0.80957  1.0000
  H   H47       1.0  0.37500  0.03155  0.30957  1.0000
  H   H48       1.0  0.62500  0.53155  0.69043  1.0000
  H   H49       1.0  0.55427  0.29367  0.08830  1.0000
  H   H50       1.0  0.44574  0.79366  0.91169  1.0000
  H   H51       1.0  0.05426  0.29367  0.41169  1.0000
  H   H52       1.0  0.94574  0.79367  0.58831  1.0000
  C   C1        1.0  0.62305  0.40244  0.39831  1.0000
  C   C2        1.0  0.37696  0.90243  0.60170  1.0000
  C   C3        1.0  0.12304  0.40243  0.10170  1.0000
  C   C4        1.0  0.87696  0.90244  0.89831  1.0000
  C   C5        1.0  0.57365  0.35053  0.48176  1.0000
  C   C6        1.0  0.42635  0.85053  0.51824  1.0000
  C   C7        1.0  0.07365  0.35053  0.01824  1.0000
  C   C8        1.0  0.92635  0.85053  0.98176  1.0000
  C   C9        1.0  0.41108  0.38726  0.52056  1.0000
  C   C10       1.0  0.58892  0.88726  0.47945  1.0000
  C   C11       1.0  0.91109  0.38727  0.97945  1.0000
  C   C12       1.0  0.08891  0.88727  0.02055  1.0000
  C   C13       1.0  0.36848  0.34786  0.60069  1.0000
  C   C14       1.0  0.63151  0.84786  0.39931  1.0000
  C   C15       1.0  0.86848  0.34786  0.89931  1.0000
  C   C16       1.0  0.13152  0.84786  0.10069  1.0000
  C   C17       1.0  0.49205  0.27055  0.64140  1.0000
  C   C18       1.0  0.50795  0.77056  0.35860  1.0000
  C   C19       1.0  0.99205  0.27056  0.85859  1.0000
  C   C20       1.0  0.00795  0.77056  0.14140  1.0000
  C   C21       1.0  0.65369  0.23096  0.60293  1.0000
  C   C22       1.0  0.34631  0.73096  0.39708  1.0000
  C   C23       1.0  0.15368  0.23096  0.89707  1.0000
  C   C24       1.0  0.84632  0.73097  0.10292  1.0000
  C   C25       1.0  0.69340  0.27103  0.52275  1.0000
  C   C26       1.0  0.30660  0.77103  0.47725  1.0000
  C   C27       1.0  0.19340  0.27103  0.97725  1.0000
  C   C28       1.0  0.80659  0.77103  0.02275  1.0000
  C   C29       1.0  0.19537  0.38942  0.64273  1.0000
  C   C30       1.0  0.80463  0.88942  0.35726  1.0000
  C   C31       1.0  0.69537  0.38942  0.85727  1.0000
  C   C32       1.0  0.30463  0.88942  0.14273  1.0000
  C   C33       1.0  0.78551  0.14897  0.64708  1.0000
  C   C34       1.0  0.21449  0.64897  0.35292  1.0000
  C   C35       1.0  0.28551  0.14898  0.85292  1.0000
  C   C36       1.0  0.71449  0.64898  0.14708  1.0000
  C   C37       1.0  0.73688  0.10830  0.04106  1.0000
  C   C38       1.0  0.26313  0.60830  0.95894  1.0000
  C   C39       1.0  0.23687  0.10831  0.45894  1.0000
  C   C40       1.0  0.76313  0.60830  0.54106  1.0000
  C   C41       1.0  0.89722  0.12874  0.17596  1.0000
  C   C42       1.0  0.10277  0.62874  0.82404  1.0000
  C   C43       1.0  0.39723  0.12874  0.32404  1.0000
  C   C44       1.0  0.60277  0.62874  0.67596  1.0000
  C   C45       1.0  0.65238  0.26850  0.13713  1.0000
  C   C46       1.0  0.34763  0.76850  0.86287  1.0000
  C   C47       1.0  0.15237  0.26850  0.36287  1.0000
  C   C48       1.0  0.84763  0.76850  0.63713  1.0000
  N   N1        1.0  0.75669  0.17177  0.11944  1.0000
  N   N2        1.0  0.24332  0.67177  0.88056  1.0000
  N   N3        1.0  0.25668  0.17177  0.38056  1.0000
  N   N4        1.0  0.74332  0.67177  0.61944  1.0000
  O   O1        1.0  0.49495  0.45399  0.35829  1.0000
  O   O2        1.0  0.50505  0.95399  0.64171  1.0000
  O   O3        1.0  0.99496  0.45400  0.14171  1.0000
  O   O4        1.0  0.00505  0.95400  0.85829  1.0000
  O   O5        1.0  0.78987  0.39240  0.37641  1.0000
  O   O6        1.0  0.21015  0.89239  0.62360  1.0000
  O   O7        1.0  0.28986  0.39240  0.12359  1.0000
  O   O8        1.0  0.71013  0.89241  0.87641  1.0000
  O   O9        1.0  0.75796  0.12306  0.72410  1.0000
  O   O10       1.0  0.24204  0.62306  0.27590  1.0000
  O   O11       1.0  0.25796  0.12306  0.77590  1.0000
  O   O12       1.0  0.74204  0.62306  0.22410  1.0000
  O   O13       1.0  0.92630  0.10987  0.60950  1.0000
  O   O14       1.0  0.07369  0.60988  0.39049  1.0000
  O   O15       1.0  0.42630  0.10988  0.89049  1.0000
  O   O16       1.0  0.57370  0.60988  0.10951  1.0000
  O   O17       1.0  0.65867  0.32682  0.20409  1.0000
  O   O18       1.0  0.34133  0.82682  0.79591  1.0000
  O   O19       1.0  0.15867  0.32681  0.29591  1.0000
  O   O20       1.0  0.84133  0.82681  0.70410  1.0000
