data_image0
_chemical_formula_structural       Cd4P4H32C24N4O20
_chemical_formula_sum              "Cd4 P4 H32 C24 N4 O20"
_cell_length_a       5.26495
_cell_length_b       11.9327
_cell_length_c       14.5989
_cell_angle_alpha    74.6574
_cell_angle_beta     79.6059
_cell_angle_gamma    77.2382

_space_group_name_H-M_alt    "P 1"
_space_group_IT_number       1

loop_
  _space_group_symop_operation_xyz
  'x, y, z'

loop_
  _atom_site_type_symbol
  _atom_site_label
  _atom_site_symmetry_multiplicity
  _atom_site_fract_x
  _atom_site_fract_y
  _atom_site_fract_z
  _atom_site_occupancy
  Cd  Cd1       1.0  0.43634  0.85433  0.98185  1.0000
  Cd  Cd2       1.0  0.27288  0.64578  0.51807  1.0000
  Cd  Cd3       1.0  0.56367  0.14567  0.01815  1.0000
  Cd  Cd4       1.0  0.72712  0.35422  0.48193  1.0000
  P   P1        1.0  0.94025  0.03636  0.86291  1.0000
  P   P2        1.0  0.83992  0.46361  0.63702  1.0000
  P   P3        1.0  0.05976  0.96364  0.13709  1.0000
  P   P4        1.0  0.16008  0.53639  0.36298  1.0000
  H   H1        1.0  0.68049  0.69996  0.14590  1.0000
  H   H2        1.0  0.52670  0.80006  0.35407  1.0000
  H   H3        1.0  0.31950  0.30005  0.85410  1.0000
  H   H4        1.0  0.47330  0.19994  0.64593  1.0000
  H   H5        1.0  0.87457  0.78658  0.08545  1.0000
  H   H6        1.0  0.74688  0.71351  0.41460  1.0000
  H   H7        1.0  0.12543  0.21343  0.91455  1.0000
  H   H8        1.0  0.25313  0.28649  0.58541  1.0000
  H   H9        1.0  0.41634  0.88036  0.52816  1.0000
  H   H10       1.0  0.82495  0.62004  0.97160  1.0000
  H   H11       1.0  0.58368  0.11963  0.47184  1.0000
  H   H12       1.0  0.17505  0.37996  0.02840  1.0000
  H   H13       1.0  0.27468  0.04609  0.61357  1.0000
  H   H14       1.0  0.93501  0.45426  0.88624  1.0000
  H   H15       1.0  0.72532  0.95391  0.38643  1.0000
  H   H16       1.0  0.06498  0.54574  0.11377  1.0000
  H   H17       1.0  0.58864  0.89284  0.74654  1.0000
  H   H18       1.0  0.22821  0.60713  0.75343  1.0000
  H   H19       1.0  0.41135  0.10717  0.25345  1.0000
  H   H20       1.0  0.77179  0.39287  0.24657  1.0000
  H   H21       1.0  0.76457  0.73214  0.65893  1.0000
  H   H22       1.0  0.15562  0.76804  0.84080  1.0000
  H   H23       1.0  0.23543  0.26787  0.34107  1.0000
  H   H24       1.0  0.84438  0.23196  0.15920  1.0000
  H   H25       1.0  0.92295  0.15553  0.70191  1.0000
  H   H26       1.0  0.78104  0.34460  0.79807  1.0000
  H   H27       1.0  0.07706  0.84447  0.29809  1.0000
  H   H28       1.0  0.21896  0.65540  0.20193  1.0000
  H   H29       1.0  0.45237  0.06065  0.79324  1.0000
  H   H30       1.0  0.30684  0.43941  0.70670  1.0000
  H   H31       1.0  0.54764  0.93935  0.20676  1.0000
  H   H32       1.0  0.69315  0.56059  0.29330  1.0000
  C   C1        1.0  0.23650  0.88687  0.57841  1.0000
  C   C2        1.0  0.70194  0.61347  0.92136  1.0000
  C   C3        1.0  0.76350  0.11313  0.42159  1.0000
  C   C4        1.0  0.29805  0.38653  0.07864  1.0000
  C   C5        1.0  0.15649  0.97773  0.62595  1.0000
  C   C6        1.0  0.76066  0.52254  0.87388  1.0000
  C   C7        1.0  0.84352  0.02227  0.37405  1.0000
  C   C8        1.0  0.23934  0.47746  0.12612  1.0000
  C   C9        1.0  0.92162  0.98178  0.68877  1.0000
  C   C10       1.0  0.59261  0.51840  0.81111  1.0000
  C   C11       1.0  0.07838  0.01823  0.31123  1.0000
  C   C12       1.0  0.40738  0.48160  0.18890  1.0000
  C   C13       1.0  0.77558  0.89279  0.70010  1.0000
  C   C14       1.0  0.36870  0.60732  0.79979  1.0000
  C   C15       1.0  0.22441  0.10722  0.29990  1.0000
  C   C16       1.0  0.63129  0.39269  0.20021  1.0000
  C   C17       1.0  0.87022  0.80394  0.65072  1.0000
  C   C18       1.0  0.32499  0.69624  0.84908  1.0000
  C   C19       1.0  0.12977  0.19606  0.34928  1.0000
  C   C20       1.0  0.67501  0.30376  0.15092  1.0000
  C   C21       1.0  0.83312  0.07862  0.74177  1.0000
  C   C22       1.0  0.65405  0.42148  0.75821  1.0000
  C   C23       1.0  0.16688  0.92138  0.25823  1.0000
  C   C24       1.0  0.34595  0.57852  0.24179  1.0000
  N   N1        1.0  0.09733  0.80051  0.59081  1.0000
  N   N2        1.0  0.48873  0.69980  0.90892  1.0000
  N   N3        1.0  0.90267  0.19949  0.40919  1.0000
  N   N4        1.0  0.51127  0.30020  0.09108  1.0000
  O   O1        1.0  0.23337  0.97867  0.85247  1.0000
  O   O2        1.0  0.06512  0.52119  0.64732  1.0000
  O   O3        1.0  0.76663  0.02133  0.14753  1.0000
  O   O4        1.0  0.93488  0.47881  0.35268  1.0000
  O   O5        1.0  0.74949  0.73769  0.07887  1.0000
  O   O6        1.0  0.56620  0.76238  0.42114  1.0000
  O   O7        1.0  0.25050  0.26231  0.92114  1.0000
  O   O8        1.0  0.43380  0.23762  0.57886  1.0000
  O   O9        1.0  0.89025  0.15382  0.89557  1.0000
  O   O10       1.0  0.93950  0.34602  0.60449  1.0000
  O   O11       1.0  0.10975  0.84618  0.10443  1.0000
  O   O12       1.0  0.06050  0.65398  0.39551  1.0000
  O   O13       1.0  0.76544  0.95315  0.92787  1.0000
  O   O14       1.0  0.64685  0.54692  0.57208  1.0000
  O   O15       1.0  0.23456  0.04685  0.07213  1.0000
  O   O16       1.0  0.35316  0.45309  0.42792  1.0000
  O   O17       1.0  0.55670  0.12043  0.75056  1.0000
  O   O18       1.0  0.42814  0.37971  0.74950  1.0000
  O   O19       1.0  0.44330  0.87957  0.24944  1.0000
  O   O20       1.0  0.57185  0.62029  0.25050  1.0000
