data_image0
_chemical_formula_structural       Gd2P6H42C36N6O24
_chemical_formula_sum              "Gd2 P6 H42 C36 N6 O24"
_cell_length_a       9.95932
_cell_length_b       13.0914
_cell_length_c       13.0938
_cell_angle_alpha    113.851
_cell_angle_beta     104.675
_cell_angle_gamma    104.669

_space_group_name_H-M_alt    "P 1"
_space_group_IT_number       1

loop_
  _space_group_symop_operation_xyz
  'x, y, z'

loop_
  _atom_site_type_symbol
  _atom_site_label
  _atom_site_symmetry_multiplicity
  _atom_site_fract_x
  _atom_site_fract_y
  _atom_site_fract_z
  _atom_site_occupancy
  Gd  Gd1       1.0  0.00000  1.00000  1.00000  1.0000
  Gd  Gd2       1.0  0.50001  1.00000  0.00000  1.0000
  P   P1        1.0  0.76938  0.92633  0.16248  1.0000
  P   P2        1.0  0.84329  0.23638  0.07374  1.0000
  P   P3        1.0  0.60683  0.83747  0.76344  1.0000
  P   P4        1.0  0.23062  0.07366  0.83751  1.0000
  P   P5        1.0  0.15671  0.76362  0.92626  1.0000
  P   P6        1.0  0.39317  0.16254  0.23657  1.0000
  H   H1        1.0  0.68406  0.47759  0.17733  1.0000
  H   H2        1.0  0.20740  0.70006  0.52259  1.0000
  H   H3        1.0  0.50782  0.82267  0.29987  1.0000
  H   H4        1.0  0.31594  0.52240  0.82267  1.0000
  H   H5        1.0  0.79258  0.29994  0.47741  1.0000
  H   H6        1.0  0.49218  0.17733  0.70013  1.0000
  H   H7        1.0  0.56900  0.63127  0.17864  1.0000
  H   H8        1.0  0.93858  0.54783  0.36921  1.0000
  H   H9        1.0  0.39115  0.82095  0.45187  1.0000
  H   H10       1.0  0.43100  0.36873  0.82136  1.0000
  H   H11       1.0  0.06141  0.45216  0.63079  1.0000
  H   H12       1.0  0.60886  0.17905  0.54813  1.0000
  H   H13       1.0  0.80822  0.70073  0.96452  1.0000
  H   H14       1.0  0.10764  0.26362  0.29891  1.0000
  H   H15       1.0  0.84402  0.03587  0.73624  1.0000
  H   H16       1.0  0.19178  0.29926  0.03547  1.0000
  H   H17       1.0  0.89236  0.73638  0.70108  1.0000
  H   H18       1.0  0.15597  0.96414  0.26376  1.0000
  H   H19       1.0  0.90915  0.54708  0.97053  1.0000
  H   H20       1.0  0.36205  0.42301  0.45316  1.0000
  H   H21       1.0  0.93931  0.02990  0.57685  1.0000
  H   H22       1.0  0.09086  0.45292  0.02948  1.0000
  H   H23       1.0  0.63795  0.57699  0.54683  1.0000
  H   H24       1.0  0.06069  0.97011  0.42316  1.0000
  H   H25       1.0  0.57477  0.75275  0.97453  1.0000
  H   H26       1.0  0.82197  0.22200  0.24706  1.0000
  H   H27       1.0  0.60021  0.02535  0.77787  1.0000
  H   H28       1.0  0.42524  0.24724  0.02546  1.0000
  H   H29       1.0  0.17802  0.77800  0.75293  1.0000
  H   H30       1.0  0.39978  0.97466  0.22213  1.0000
  H   H31       1.0  0.76911  0.93292  0.36801  1.0000
  H   H32       1.0  0.83553  0.43538  0.06734  1.0000
  H   H33       1.0  0.40062  0.63191  0.56471  1.0000
  H   H34       1.0  0.23089  0.06708  0.63199  1.0000
  H   H35       1.0  0.16448  0.56461  0.93266  1.0000
  H   H36       1.0  0.59937  0.36809  0.43529  1.0000
  H   H37       1.0  0.42979  0.79262  0.07437  1.0000
  H   H38       1.0  0.63791  0.28255  0.20797  1.0000
  H   H39       1.0  0.35546  0.92511  0.71737  1.0000
  H   H40       1.0  0.57021  0.20738  0.92562  1.0000
  H   H41       1.0  0.36209  0.71745  0.79204  1.0000
  H   H42       1.0  0.64453  0.07488  0.28263  1.0000
  C   C1        1.0  0.70557  0.53099  0.13284  1.0000
  C   C2        1.0  0.17528  0.60203  0.46923  1.0000
  C   C3        1.0  0.57367  0.86716  0.39785  1.0000
  C   C4        1.0  0.29443  0.46901  0.86717  1.0000
  C   C5        1.0  0.82470  0.39796  0.53076  1.0000
  C   C6        1.0  0.42633  0.13284  0.60215  1.0000
  C   C7        1.0  0.64528  0.61539  0.13326  1.0000
  C   C8        1.0  0.03057  0.51816  0.38492  1.0000
  C   C9        1.0  0.51278  0.86657  0.48164  1.0000
  C   C10       1.0  0.35472  0.38461  0.86673  1.0000
  C   C11       1.0  0.96943  0.48184  0.61509  1.0000
  C   C12       1.0  0.48722  0.13343  0.51836  1.0000
  C   C13       1.0  0.67857  0.67713  0.07072  1.0000
  C   C14       1.0  0.00190  0.39372  0.32291  1.0000
  C   C15       1.0  0.60837  0.92923  0.60610  1.0000
  C   C16       1.0  0.32143  0.32286  0.92928  1.0000
  C   C17       1.0  0.99809  0.60627  0.67708  1.0000
  C   C18       1.0  0.39163  0.07078  0.39390  1.0000
  C   C19       1.0  0.77585  0.65300  0.01162  1.0000
  C   C20       1.0  0.12313  0.35855  0.34691  1.0000
  C   C21       1.0  0.76469  0.98862  0.64129  1.0000
  C   C22       1.0  0.22416  0.34700  0.98837  1.0000
  C   C23       1.0  0.87687  0.64145  0.65308  1.0000
  C   C24       1.0  0.23531  0.01139  0.35871  1.0000
  C   C25       1.0  0.83272  0.56783  0.01450  1.0000
  C   C26       1.0  0.26509  0.44645  0.43234  1.0000
  C   C27       1.0  0.81889  0.98588  0.55340  1.0000
  C   C28       1.0  0.16729  0.43217  0.98550  1.0000
  C   C29       1.0  0.73490  0.55355  0.56766  1.0000
  C   C30       1.0  0.18111  0.01413  0.44660  1.0000
  C   C31       1.0  0.61506  0.76784  0.06829  1.0000
  C   C32       1.0  0.84760  0.30081  0.23222  1.0000
  C   C33       1.0  0.54699  0.93158  0.69905  1.0000
  C   C34       1.0  0.38494  0.23216  0.93171  1.0000
  C   C35       1.0  0.15239  0.69919  0.76777  1.0000
  C   C36       1.0  0.45301  0.06843  0.30095  1.0000
  N   N1        1.0  0.79631  0.50860  0.07356  1.0000
  N   N2        1.0  0.28814  0.56491  0.49161  1.0000
  N   N3        1.0  0.72363  0.92664  0.43497  1.0000
  N   N4        1.0  0.20370  0.49140  0.92644  1.0000
  N   N5        1.0  0.71185  0.43510  0.50839  1.0000
  N   N6        1.0  0.27637  0.07336  0.56503  1.0000
  O   O1        1.0  0.67930  0.00687  0.15531  1.0000
  O   O2        1.0  0.67276  0.14834  0.99327  1.0000
  O   O3        1.0  0.52355  0.84467  0.85092  1.0000
  O   O4        1.0  0.32071  0.99313  0.84470  1.0000
  O   O5        1.0  0.32725  0.85166  0.00673  1.0000
  O   O6        1.0  0.47647  0.15534  0.14909  1.0000
  O   O7        1.0  0.87840  0.93222  0.09984  1.0000
  O   O8        1.0  0.94653  0.16791  0.06785  1.0000
  O   O9        1.0  0.77843  0.90013  0.83232  1.0000
  O   O10       1.0  0.12160  0.06778  0.90015  1.0000
  O   O11       1.0  0.05348  0.83210  0.93215  1.0000
  O   O12       1.0  0.22158  0.09987  0.16767  1.0000
  O   O13       1.0  0.84308  0.95100  0.29177  1.0000
  O   O14       1.0  0.89195  0.34102  0.04904  1.0000
  O   O15       1.0  0.55134  0.70816  0.65866  1.0000
  O   O16       1.0  0.15692  0.04898  0.70822  1.0000
  O   O17       1.0  0.10805  0.65898  0.95096  1.0000
  O   O18       1.0  0.44865  0.29184  0.34135  1.0000
  O   O19       1.0  0.49660  0.76000  0.11062  1.0000
  O   O20       1.0  0.73726  0.35131  0.24021  1.0000
  O   O21       1.0  0.38619  0.88912  0.64853  1.0000
  O   O22       1.0  0.50341  0.24000  0.88938  1.0000
  O   O23       1.0  0.26274  0.64869  0.75978  1.0000
  O   O24       1.0  0.61381  0.11087  0.35147  1.0000
