data_image0
_chemical_formula_structural       U2Ag4H36C68N8O20
_chemical_formula_sum              "U2 Ag4 H36 C68 N8 O20"
_cell_length_a       7.30147
_cell_length_b       11.7887
_cell_length_c       18.4186
_cell_angle_alpha    106.156
_cell_angle_beta     89.9986
_cell_angle_gamma    108.056

_space_group_name_H-M_alt    "P 1"
_space_group_IT_number       1

loop_
  _space_group_symop_operation_xyz
  'x, y, z'

loop_
  _atom_site_type_symbol
  _atom_site_label
  _atom_site_symmetry_multiplicity
  _atom_site_fract_x
  _atom_site_fract_y
  _atom_site_fract_z
  _atom_site_occupancy
  U   U1        1.0  0.51780  0.00003  0.74999  1.0000
  U   U2        1.0  0.48220  0.99997  0.25001  1.0000
  Ag  Ag1       1.0  0.22423  0.21255  0.84186  1.0000
  Ag  Ag2       1.0  0.01194  0.78739  0.65828  1.0000
  Ag  Ag3       1.0  0.77577  0.78745  0.15814  1.0000
  Ag  Ag4       1.0  0.98805  0.21261  0.34172  1.0000
  H   H1        1.0  0.05542  0.23075  0.01217  1.0000
  H   H2        1.0  0.82440  0.76907  0.48796  1.0000
  H   H3        1.0  0.94458  0.76926  0.98784  1.0000
  H   H4        1.0  0.17560  0.23093  0.51204  1.0000
  H   H5        1.0  0.05082  0.39199  0.13141  1.0000
  H   H6        1.0  0.65894  0.60775  0.36864  1.0000
  H   H7        1.0  0.94918  0.60802  0.86859  1.0000
  H   H8        1.0  0.34107  0.39225  0.63136  1.0000
  H   H9        1.0  0.19258  0.62039  0.13710  1.0000
  H   H10       1.0  0.57214  0.37938  0.36298  1.0000
  H   H11       1.0  0.80743  0.37961  0.86290  1.0000
  H   H12       1.0  0.42786  0.62062  0.63702  1.0000
  H   H13       1.0  0.59782  0.75460  0.82752  1.0000
  H   H14       1.0  0.84332  0.24526  0.67255  1.0000
  H   H15       1.0  0.40219  0.24539  0.17248  1.0000
  H   H16       1.0  0.15668  0.75473  0.32745  1.0000
  H   H17       1.0  0.63347  0.57884  0.72249  1.0000
  H   H18       1.0  0.05442  0.42110  0.77765  1.0000
  H   H19       1.0  0.36654  0.42115  0.27751  1.0000
  H   H20       1.0  0.94557  0.57890  0.22235  1.0000
  H   H21       1.0  0.48934  0.35845  0.73102  1.0000
  H   H22       1.0  0.13038  0.64149  0.76918  1.0000
  H   H23       1.0  0.51067  0.64155  0.26898  1.0000
  H   H24       1.0  0.86962  0.35851  0.23082  1.0000
  H   H25       1.0  0.35035  0.77701  0.07152  1.0000
  H   H26       1.0  0.57356  0.22277  0.42851  1.0000
  H   H27       1.0  0.64965  0.22300  0.92848  1.0000
  H   H28       1.0  0.42644  0.77723  0.57149  1.0000
  H   H29       1.0  0.49066  0.82680  0.95662  1.0000
  H   H30       1.0  0.66390  0.17302  0.54344  1.0000
  H   H31       1.0  0.50935  0.17319  0.04337  1.0000
  H   H32       1.0  0.33610  0.82698  0.45655  1.0000
  H   H33       1.0  0.31515  0.96565  0.97265  1.0000
  H   H34       1.0  0.34938  0.03386  0.52725  1.0000
  H   H35       1.0  0.68485  0.03435  0.02735  1.0000
  H   H36       1.0  0.65061  0.96613  0.47276  1.0000
  C   C1        1.0  0.11785  0.32933  0.01628  1.0000
  C   C2        1.0  0.78858  0.67048  0.48379  1.0000
  C   C3        1.0  0.88215  0.67068  0.98373  1.0000
  C   C4        1.0  0.21142  0.32952  0.51621  1.0000
  C   C5        1.0  0.11410  0.42107  0.08341  1.0000
  C   C6        1.0  0.69323  0.57870  0.41664  1.0000
  C   C7        1.0  0.88591  0.57894  0.91659  1.0000
  C   C8        1.0  0.30677  0.42130  0.58336  1.0000
  C   C9        1.0  0.19114  0.54527  0.08639  1.0000
  C   C10       1.0  0.64600  0.45452  0.41366  1.0000
  C   C11       1.0  0.80886  0.45474  0.91361  1.0000
  C   C12       1.0  0.35400  0.54549  0.58634  1.0000
  C   C13       1.0  0.27425  0.57652  0.02240  1.0000
  C   C14       1.0  0.69784  0.42328  0.47765  1.0000
  C   C15       1.0  0.72575  0.42349  0.97759  1.0000
  C   C16       1.0  0.30216  0.57672  0.52235  1.0000
  C   C17       1.0  0.27586  0.47729  0.95763  1.0000
  C   C18       1.0  0.79877  0.52255  0.54242  1.0000
  C   C19       1.0  0.72414  0.52271  0.04237  1.0000
  C   C20       1.0  0.20124  0.47745  0.45758  1.0000
  C   C21       1.0  0.36922  0.50695  0.89274  1.0000
  C   C22       1.0  0.86221  0.49290  0.60735  1.0000
  C   C23       1.0  0.63079  0.49305  0.10726  1.0000
  C   C24       1.0  0.13779  0.50710  0.39265  1.0000
  C   C25       1.0  0.44563  0.63399  0.89339  1.0000
  C   C26       1.0  0.81148  0.36585  0.60672  1.0000
  C   C27       1.0  0.55437  0.36601  0.10660  1.0000
  C   C28       1.0  0.18852  0.63415  0.39328  1.0000
  C   C29       1.0  0.53905  0.65888  0.82964  1.0000
  C   C30       1.0  0.88010  0.34100  0.67045  1.0000
  C   C31       1.0  0.46096  0.34112  0.17035  1.0000
  C   C32       1.0  0.11991  0.65900  0.32955  1.0000
  C   C33       1.0  0.55715  0.56128  0.77104  1.0000
  C   C34       1.0  0.99569  0.43863  0.72910  1.0000
  C   C35       1.0  0.44285  0.43872  0.22896  1.0000
  C   C36       1.0  0.00431  0.56136  0.27091  1.0000
  C   C37       1.0  0.47809  0.43877  0.77551  1.0000
  C   C38       1.0  0.03900  0.56113  0.72464  1.0000
  C   C39       1.0  0.52192  0.56123  0.22449  1.0000
  C   C40       1.0  0.96100  0.43887  0.27536  1.0000
  C   C41       1.0  0.35388  0.70311  0.02106  1.0000
  C   C42       1.0  0.65078  0.29669  0.47901  1.0000
  C   C43       1.0  0.64613  0.29689  0.97894  1.0000
  C   C44       1.0  0.34923  0.70331  0.52099  1.0000
  C   C45       1.0  0.43244  0.73071  0.95832  1.0000
  C   C46       1.0  0.70166  0.26912  0.54177  1.0000
  C   C47       1.0  0.56756  0.26929  0.04168  1.0000
  C   C48       1.0  0.29834  0.73088  0.45823  1.0000
  C   C49       1.0  0.05493  0.97759  0.92513  1.0000
  C   C50       1.0  0.07741  0.02241  0.57486  1.0000
  C   C51       1.0  0.94507  0.02241  0.07487  1.0000
  C   C52       1.0  0.92259  0.97759  0.42514  1.0000
  C   C53       1.0  0.87680  0.99732  0.94117  1.0000
  C   C54       1.0  0.87959  0.00289  0.55887  1.0000
  C   C55       1.0  0.12319  0.00268  0.05883  1.0000
  C   C56       1.0  0.12041  0.99710  0.44113  1.0000
  C   C57       1.0  0.17772  0.98190  0.98466  1.0000
  C   C58       1.0  0.19578  0.01790  0.51530  1.0000
  C   C59       1.0  0.82228  0.01810  0.01534  1.0000
  C   C60       1.0  0.80421  0.98210  0.48470  1.0000
  C   C61       1.0  0.10992  0.93905  0.84508  1.0000
  C   C62       1.0  0.17108  0.06089  0.65490  1.0000
  C   C63       1.0  0.89008  0.06095  0.15492  1.0000
  C   C64       1.0  0.82891  0.93911  0.34510  1.0000
  C   C65       1.0  0.75158  0.00466  0.88011  1.0000
  C   C66       1.0  0.74700  0.99563  0.61991  1.0000
  C   C67       1.0  0.24842  0.99534  0.11989  1.0000
  C   C68       1.0  0.25299  0.00437  0.38009  1.0000
  N   N1        1.0  0.19516  0.35569  0.95512  1.0000
  N   N2        1.0  0.83973  0.64412  0.54492  1.0000
  N   N3        1.0  0.80484  0.64431  0.04488  1.0000
  N   N4        1.0  0.16027  0.35588  0.45508  1.0000
  N   N5        1.0  0.38547  0.41268  0.83403  1.0000
  N   N6        1.0  0.97262  0.58717  0.66609  1.0000
  N   N7        1.0  0.61453  0.58732  0.16598  1.0000
  N   N8        1.0  0.02738  0.41283  0.33391  1.0000
  O   O1        1.0  0.25994  0.01891  0.82872  1.0000
  O   O2        1.0  0.24117  0.98094  0.67115  1.0000
  O   O3        1.0  0.74006  0.98110  0.17128  1.0000
  O   O4        1.0  0.75883  0.01907  0.32885  1.0000
  O   O5        1.0  0.01780  0.83367  0.80276  1.0000
  O   O6        1.0  0.18441  0.16619  0.69728  1.0000
  O   O7        1.0  0.98219  0.16633  0.19724  1.0000
  O   O8        1.0  0.81558  0.83381  0.30272  1.0000
  O   O9        1.0  0.82983  0.03870  0.82429  1.0000
  O   O10       1.0  0.79130  0.96185  0.67584  1.0000
  O   O11       1.0  0.17016  0.96130  0.17571  1.0000
  O   O12       1.0  0.20870  0.03815  0.32416  1.0000
  O   O13       1.0  0.56904  0.97846  0.88323  1.0000
  O   O14       1.0  0.59051  0.02155  0.61669  1.0000
  O   O15       1.0  0.43095  0.02154  0.11677  1.0000
  O   O16       1.0  0.40949  0.97845  0.38331  1.0000
  O   O17       1.0  0.60185  0.16937  0.77711  1.0000
  O   O18       1.0  0.43265  0.83065  0.72283  1.0000
  O   O19       1.0  0.39815  0.83064  0.22289  1.0000
  O   O20       1.0  0.56735  0.16935  0.27717  1.0000
