data_image0
_chemical_formula_structural       U2Ag2H28C44N4O16
_chemical_formula_sum              "U2 Ag2 H28 C44 N4 O16"
_cell_length_a       8.92448
_cell_length_b       10.1025
_cell_length_c       12.0672
_cell_angle_alpha    79.4388
_cell_angle_beta     86.0703
_cell_angle_gamma    79.0825

_space_group_name_H-M_alt    "P 1"
_space_group_IT_number       1

loop_
  _space_group_symop_operation_xyz
  'x, y, z'

loop_
  _atom_site_type_symbol
  _atom_site_label
  _atom_site_symmetry_multiplicity
  _atom_site_fract_x
  _atom_site_fract_y
  _atom_site_fract_z
  _atom_site_occupancy
  U   U1        1.0  0.33159  0.07214  0.30814  1.0000
  U   U2        1.0  0.66840  0.92786  0.69186  1.0000
  Ag  Ag1       1.0  0.60839  0.79238  0.15277  1.0000
  Ag  Ag2       1.0  0.39160  0.20762  0.84723  1.0000
  H   H1        1.0  0.53107  0.50863  0.08219  1.0000
  H   H2        1.0  0.46893  0.49137  0.91781  1.0000
  H   H3        1.0  0.60994  0.25366  0.13419  1.0000
  H   H4        1.0  0.39006  0.74635  0.86581  1.0000
  H   H5        1.0  0.81721  0.16289  0.27553  1.0000
  H   H6        1.0  0.18279  0.83711  0.72446  1.0000
  H   H7        1.0  0.93565  0.32558  0.35390  1.0000
  H   H8        1.0  0.06435  0.67442  0.64610  1.0000
  H   H9        1.0  0.06778  0.47454  0.36434  1.0000
  H   H10       1.0  0.93222  0.52547  0.63566  1.0000
  H   H11       1.0  0.15296  0.65033  0.45282  1.0000
  H   H12       1.0  0.84705  0.34968  0.54717  1.0000
  H   H13       1.0  0.98779  0.88385  0.44029  1.0000
  H   H14       1.0  0.01221  0.11615  0.55970  1.0000
  H   H15       1.0  0.74960  0.93226  0.32938  1.0000
  H   H16       1.0  0.25040  0.06775  0.67062  1.0000
  H   H17       1.0  0.02922  0.25244  0.99078  1.0000
  H   H18       1.0  0.97078  0.74755  0.00922  1.0000
  H   H19       1.0  0.15853  0.57508  0.13064  1.0000
  H   H20       1.0  0.84147  0.42492  0.86936  1.0000
  H   H21       1.0  0.61580  0.32250  0.65717  1.0000
  H   H22       1.0  0.38419  0.67749  0.34283  1.0000
  H   H23       1.0  0.37939  0.42944  0.34497  1.0000
  H   H24       1.0  0.62061  0.57055  0.65503  1.0000
  H   H25       1.0  0.01992  0.95226  0.20795  1.0000
  H   H26       1.0  0.98008  0.04774  0.79205  1.0000
  H   H27       1.0  0.23661  0.96186  0.87897  1.0000
  H   H28       1.0  0.76338  0.03815  0.12104  1.0000
  C   C1        1.0  0.62120  0.46341  0.14179  1.0000
  C   C2        1.0  0.37880  0.53660  0.85821  1.0000
  C   C3        1.0  0.66417  0.32209  0.17142  1.0000
  C   C4        1.0  0.33583  0.67791  0.82858  1.0000
  C   C5        1.0  0.77887  0.27245  0.24922  1.0000
  C   C6        1.0  0.22113  0.72756  0.75078  1.0000
  C   C7        1.0  0.84573  0.36427  0.29357  1.0000
  C   C8        1.0  0.15426  0.63573  0.70643  1.0000
  C   C9        1.0  0.79645  0.50519  0.25847  1.0000
  C   C10       1.0  0.20355  0.49481  0.74153  1.0000
  C   C11       1.0  0.85994  0.60924  0.30411  1.0000
  C   C12       1.0  0.14006  0.39077  0.69589  1.0000
  C   C13       1.0  0.99768  0.57592  0.36048  1.0000
  C   C14       1.0  0.00232  0.42408  0.63952  1.0000
  C   C15       1.0  0.04573  0.67480  0.40927  1.0000
  C   C16       1.0  0.95427  0.32521  0.59073  1.0000
  C   C17       1.0  0.95583  0.80452  0.40157  1.0000
  C   C18       1.0  0.04417  0.19548  0.59842  1.0000
  C   C19       1.0  0.82343  0.83189  0.34034  1.0000
  C   C20       1.0  0.17658  0.16812  0.65966  1.0000
  C   C21       1.0  0.10436  0.40400  0.06732  1.0000
  C   C22       1.0  0.89565  0.59599  0.93268  1.0000
  C   C23       1.0  0.01553  0.36113  0.99379  1.0000
  C   C24       1.0  0.98448  0.63886  0.00620  1.0000
  C   C25       1.0  0.08887  0.54320  0.07317  1.0000
  C   C26       1.0  0.91113  0.45680  0.92683  1.0000
  C   C27       1.0  0.20932  0.29868  0.14183  1.0000
  C   C28       1.0  0.79069  0.70131  0.85817  1.0000
  C   C29       1.0  0.49849  0.36182  0.50083  1.0000
  C   C30       1.0  0.50151  0.63817  0.49917  1.0000
  C   C31       1.0  0.56635  0.40105  0.58835  1.0000
  C   C32       1.0  0.43365  0.59894  0.41165  1.0000
  C   C33       1.0  0.43149  0.46129  0.41255  1.0000
  C   C34       1.0  0.56851  0.53870  0.58745  1.0000
  C   C35       1.0  0.49960  0.21377  0.50135  1.0000
  C   C36       1.0  0.50040  0.78622  0.49865  1.0000
  C   C37       1.0  0.14170  0.95023  0.04878  1.0000
  C   C38       1.0  0.85830  0.04977  0.95122  1.0000
  C   C39       1.0  0.00907  0.97296  0.11697  1.0000
  C   C40       1.0  0.99092  0.02705  0.88304  1.0000
  C   C41       1.0  0.13231  0.97810  0.93110  1.0000
  C   C42       1.0  0.86769  0.02191  0.06890  1.0000
  C   C43       1.0  0.29231  0.90067  0.10216  1.0000
  C   C44       1.0  0.70769  0.09933  0.89785  1.0000
  N   N1        1.0  0.68598  0.55220  0.18305  1.0000
  N   N2        1.0  0.31402  0.44781  0.81695  1.0000
  N   N3        1.0  0.77763  0.73809  0.29127  1.0000
  N   N4        1.0  0.22237  0.26192  0.70873  1.0000
  O   O1        1.0  0.25923  0.32416  0.23138  1.0000
  O   O2        1.0  0.74077  0.67584  0.76862  1.0000
  O   O3        1.0  0.24424  0.17718  0.11960  1.0000
  O   O4        1.0  0.75576  0.82281  0.88040  1.0000
  O   O5        1.0  0.40135  0.18177  0.44419  1.0000
  O   O6        1.0  0.59865  0.81822  0.55581  1.0000
  O   O7        1.0  0.59919  0.12567  0.55897  1.0000
  O   O8        1.0  0.40081  0.87433  0.44103  1.0000
  O   O9        1.0  0.29710  0.90156  0.20918  1.0000
  O   O10       1.0  0.70290  0.09844  0.79082  1.0000
  O   O11       1.0  0.40834  0.86006  0.04326  1.0000
  O   O12       1.0  0.59166  0.13994  0.95674  1.0000
  O   O13       1.0  0.52806  0.05864  0.25405  1.0000
  O   O14       1.0  0.47194  0.94136  0.74596  1.0000
  O   O15       1.0  0.13628  0.08558  0.36486  1.0000
  O   O16       1.0  0.86372  0.91442  0.63514  1.0000
