data_image0
_chemical_formula_structural       Cd4H32C40S8N24
_chemical_formula_sum              "Cd4 H32 C40 S8 N24"
_cell_length_a       7.79366
_cell_length_b       11.5818
_cell_length_c       14.8292
_cell_angle_alpha    89.9999
_cell_angle_beta     89.9999
_cell_angle_gamma    90.0004

_space_group_name_H-M_alt    "P 1"
_space_group_IT_number       1

loop_
  _space_group_symop_operation_xyz
  'x, y, z'

loop_
  _atom_site_type_symbol
  _atom_site_label
  _atom_site_symmetry_multiplicity
  _atom_site_fract_x
  _atom_site_fract_y
  _atom_site_fract_z
  _atom_site_occupancy
  Cd  Cd1       1.0  0.69568  0.22778  0.75000  1.0000
  Cd  Cd2       1.0  0.19568  0.27223  0.25000  1.0000
  Cd  Cd3       1.0  0.80432  0.72778  0.75000  1.0000
  Cd  Cd4       1.0  0.30432  0.77223  0.25000  1.0000
  H   H1        1.0  0.60517  0.06685  0.42184  1.0000
  H   H2        1.0  0.10517  0.43315  0.57816  1.0000
  H   H3        1.0  0.89483  0.56685  0.07816  1.0000
  H   H4        1.0  0.39484  0.93315  0.92184  1.0000
  H   H5        1.0  0.39483  0.93315  0.57816  1.0000
  H   H6        1.0  0.89483  0.56685  0.42184  1.0000
  H   H7        1.0  0.10517  0.43314  0.92184  1.0000
  H   H8        1.0  0.60517  0.06685  0.07816  1.0000
  H   H9        1.0  0.59323  0.25430  0.33606  1.0000
  H   H10       1.0  0.09324  0.24570  0.66394  1.0000
  H   H11       1.0  0.90677  0.75430  0.16394  1.0000
  H   H12       1.0  0.40677  0.74570  0.83607  1.0000
  H   H13       1.0  0.40677  0.74570  0.66393  1.0000
  H   H14       1.0  0.90677  0.75430  0.33606  1.0000
  H   H15       1.0  0.09323  0.24569  0.83607  1.0000
  H   H16       1.0  0.59323  0.25430  0.16394  1.0000
  H   H17       1.0  0.64579  0.43861  0.42338  1.0000
  H   H18       1.0  0.14579  0.06138  0.57661  1.0000
  H   H19       1.0  0.85421  0.93862  0.07662  1.0000
  H   H20       1.0  0.35421  0.56138  0.92339  1.0000
  H   H21       1.0  0.35421  0.56138  0.57661  1.0000
  H   H22       1.0  0.85421  0.93862  0.42338  1.0000
  H   H23       1.0  0.14579  0.06138  0.92339  1.0000
  H   H24       1.0  0.64579  0.43862  0.07661  1.0000
  H   H25       1.0  0.70328  0.41843  0.59130  1.0000
  H   H26       1.0  0.20328  0.08157  0.40870  1.0000
  H   H27       1.0  0.79672  0.91843  0.90870  1.0000
  H   H28       1.0  0.29672  0.58157  0.09130  1.0000
  H   H29       1.0  0.29672  0.58157  0.40870  1.0000
  H   H30       1.0  0.79672  0.91843  0.59130  1.0000
  H   H31       1.0  0.20328  0.08157  0.09130  1.0000
  H   H32       1.0  0.70328  0.41843  0.90870  1.0000
  C   C1        1.0  0.51774  0.50496  0.75000  1.0000
  C   C2        1.0  0.01774  0.99505  0.25000  1.0000
  C   C3        1.0  0.98225  0.00496  0.75000  1.0000
  C   C4        1.0  0.48226  0.49505  0.25000  1.0000
  C   C5        1.0  0.53422  0.96740  0.75000  1.0000
  C   C6        1.0  0.03422  0.53261  0.25000  1.0000
  C   C7        1.0  0.96578  0.46739  0.75000  1.0000
  C   C8        1.0  0.46578  0.03261  0.25000  1.0000
  C   C9        1.0  0.62705  0.14937  0.45556  1.0000
  C   C10       1.0  0.12704  0.35062  0.54443  1.0000
  C   C11       1.0  0.87296  0.64938  0.04444  1.0000
  C   C12       1.0  0.37296  0.85062  0.95557  1.0000
  C   C13       1.0  0.37296  0.85063  0.54444  1.0000
  C   C14       1.0  0.87296  0.64937  0.45556  1.0000
  C   C15       1.0  0.12703  0.35062  0.95557  1.0000
  C   C16       1.0  0.62704  0.14937  0.04444  1.0000
  C   C17       1.0  0.62110  0.25358  0.40789  1.0000
  C   C18       1.0  0.12110  0.24642  0.59211  1.0000
  C   C19       1.0  0.87891  0.75358  0.09211  1.0000
  C   C20       1.0  0.37890  0.74642  0.90790  1.0000
  C   C21       1.0  0.37890  0.74642  0.59210  1.0000
  C   C22       1.0  0.87890  0.75357  0.40790  1.0000
  C   C23       1.0  0.12110  0.24642  0.90790  1.0000
  C   C24       1.0  0.62110  0.25358  0.09210  1.0000
  C   C25       1.0  0.64841  0.35436  0.45592  1.0000
  C   C26       1.0  0.14841  0.14564  0.54408  1.0000
  C   C27       1.0  0.85159  0.85436  0.04408  1.0000
  C   C28       1.0  0.35159  0.64564  0.95592  1.0000
  C   C29       1.0  0.35159  0.64564  0.54408  1.0000
  C   C30       1.0  0.85159  0.85435  0.45592  1.0000
  C   C31       1.0  0.14841  0.14564  0.95592  1.0000
  C   C32       1.0  0.64841  0.35436  0.04408  1.0000
  C   C33       1.0  0.67925  0.34366  0.54831  1.0000
  C   C34       1.0  0.17924  0.15633  0.45168  1.0000
  C   C35       1.0  0.82075  0.84367  0.95168  1.0000
  C   C36       1.0  0.32076  0.65633  0.04832  1.0000
  C   C37       1.0  0.32076  0.65634  0.45168  1.0000
  C   C38       1.0  0.82075  0.84366  0.54832  1.0000
  C   C39       1.0  0.17925  0.15633  0.04832  1.0000
  C   C40       1.0  0.67924  0.34367  0.95168  1.0000
  S   S1        1.0  0.41650  0.38229  0.75000  1.0000
  S   S2        1.0  0.91649  0.11772  0.25000  1.0000
  S   S3        1.0  0.08351  0.88229  0.74999  1.0000
  S   S4        1.0  0.58351  0.61771  0.25000  1.0000
  S   S5        1.0  0.42321  0.08637  0.75000  1.0000
  S   S6        1.0  0.92321  0.41363  0.24999  1.0000
  S   S7        1.0  0.07678  0.58636  0.75000  1.0000
  S   S8        1.0  0.57678  0.91365  0.25000  1.0000
  N   N1        1.0  0.58895  0.59523  0.75000  1.0000
  N   N2        1.0  0.08895  0.90477  0.25000  1.0000
  N   N3        1.0  0.91105  0.09523  0.75000  1.0000
  N   N4        1.0  0.41106  0.40477  0.25000  1.0000
  N   N5        1.0  0.61270  0.88000  0.75000  1.0000
  N   N6        1.0  0.11270  0.62000  0.25000  1.0000
  N   N7        1.0  0.88731  0.38000  0.74999  1.0000
  N   N8        1.0  0.38731  0.12001  0.25000  1.0000
  N   N9        1.0  0.68246  0.24088  0.58963  1.0000
  N   N10       1.0  0.18246  0.25913  0.41037  1.0000
  N   N11       1.0  0.81754  0.74088  0.91038  1.0000
  N   N12       1.0  0.31755  0.75912  0.08963  1.0000
  N   N13       1.0  0.31754  0.75913  0.41037  1.0000
  N   N14       1.0  0.81754  0.74087  0.58963  1.0000
  N   N15       1.0  0.18246  0.25913  0.08963  1.0000
  N   N16       1.0  0.68246  0.24088  0.91037  1.0000
  N   N17       1.0  0.65718  0.14281  0.54420  1.0000
  N   N18       1.0  0.15718  0.35718  0.45580  1.0000
  N   N19       1.0  0.84282  0.64282  0.95580  1.0000
  N   N20       1.0  0.34282  0.85718  0.04421  1.0000
  N   N21       1.0  0.34281  0.85718  0.45580  1.0000
  N   N22       1.0  0.84281  0.64282  0.54420  1.0000
  N   N23       1.0  0.15718  0.35718  0.04421  1.0000
  N   N24       1.0  0.65719  0.14282  0.95580  1.0000
