data_image0
_chemical_formula_structural       Cd8H32C48S16N32
_chemical_formula_sum              "Cd8 H32 C48 S16 N32"
_cell_length_a       9.7168
_cell_length_b       13.2284
_cell_length_c       15.4279
_cell_angle_alpha    89.9997
_cell_angle_beta     90.0006
_cell_angle_gamma    102.327

_space_group_name_H-M_alt    "P 1"
_space_group_IT_number       1

loop_
  _space_group_symop_operation_xyz
  'x, y, z'

loop_
  _atom_site_type_symbol
  _atom_site_label
  _atom_site_symmetry_multiplicity
  _atom_site_fract_x
  _atom_site_fract_y
  _atom_site_fract_z
  _atom_site_occupancy
  Cd  Cd1       1.0  0.81997  0.38608  0.73135  1.0000
  Cd  Cd2       1.0  0.68003  0.11392  0.23135  1.0000
  Cd  Cd3       1.0  0.18003  0.61391  0.26865  1.0000
  Cd  Cd4       1.0  0.31997  0.88609  0.76865  1.0000
  Cd  Cd5       1.0  0.51111  0.51622  0.73343  1.0000
  Cd  Cd6       1.0  0.98890  0.98378  0.23344  1.0000
  Cd  Cd7       1.0  0.48889  0.48378  0.26656  1.0000
  Cd  Cd8       1.0  0.01111  0.01622  0.76656  1.0000
  H   H1        1.0  0.65315  0.72972  0.64066  1.0000
  H   H2        1.0  0.84685  0.77028  0.14066  1.0000
  H   H3        1.0  0.34685  0.27028  0.35934  1.0000
  H   H4        1.0  0.15315  0.22972  0.85934  1.0000
  H   H5        1.0  0.88498  0.83646  0.58562  1.0000
  H   H6        1.0  0.61502  0.66353  0.08562  1.0000
  H   H7        1.0  0.11501  0.16354  0.41438  1.0000
  H   H8        1.0  0.38498  0.33647  0.91438  1.0000
  H   H9        1.0  0.09295  0.74879  0.58191  1.0000
  H   H10       1.0  0.40705  0.75121  0.08191  1.0000
  H   H11       1.0  0.90704  0.25121  0.41809  1.0000
  H   H12       1.0  0.59296  0.24880  0.91809  1.0000
  H   H13       1.0  0.05329  0.56529  0.63834  1.0000
  H   H14       1.0  0.44670  0.93471  0.13834  1.0000
  H   H15       1.0  0.94670  0.43471  0.36166  1.0000
  H   H16       1.0  0.55330  0.06530  0.86166  1.0000
  H   H17       1.0  0.28959  0.34785  0.63060  1.0000
  H   H18       1.0  0.21041  0.15216  0.13060  1.0000
  H   H19       1.0  0.71041  0.65216  0.36941  1.0000
  H   H20       1.0  0.78959  0.84784  0.86941  1.0000
  H   H21       1.0  0.26127  0.17960  0.54586  1.0000
  H   H22       1.0  0.23873  0.32040  0.04586  1.0000
  H   H23       1.0  0.73873  0.82040  0.45414  1.0000
  H   H24       1.0  0.76128  0.67960  0.95414  1.0000
  H   H25       1.0  0.48217  0.11191  0.51813  1.0000
  H   H26       1.0  0.01783  0.38808  0.01813  1.0000
  H   H27       1.0  0.51783  0.88809  0.48187  1.0000
  H   H28       1.0  0.98218  0.61191  0.98187  1.0000
  H   H29       1.0  0.70760  0.20865  0.58804  1.0000
  H   H30       1.0  0.79240  0.29134  0.08804  1.0000
  H   H31       1.0  0.29240  0.79134  0.41196  1.0000
  H   H32       1.0  0.20761  0.70866  0.91196  1.0000
  C   C1        1.0  0.01833  0.23870  0.65288  1.0000
  C   C2        1.0  0.48167  0.26130  0.15288  1.0000
  C   C3        1.0  0.98167  0.76130  0.34712  1.0000
  C   C4        1.0  0.51833  0.73870  0.84712  1.0000
  C   C5        1.0  0.17662  0.45228  0.80665  1.0000
  C   C6        1.0  0.32339  0.04772  0.30665  1.0000
  C   C7        1.0  0.82338  0.54771  0.19335  1.0000
  C   C8        1.0  0.67662  0.95229  0.69335  1.0000
  C   C9        1.0  0.67077  0.45338  0.90104  1.0000
  C   C10       1.0  0.82923  0.04663  0.40104  1.0000
  C   C11       1.0  0.32922  0.54662  0.09895  1.0000
  C   C12       1.0  0.17077  0.95338  0.59895  1.0000
  C   C13       1.0  0.82662  0.17133  0.84503  1.0000
  C   C14       1.0  0.67339  0.32866  0.34503  1.0000
  C   C15       1.0  0.17338  0.82866  0.15497  1.0000
  C   C16       1.0  0.32661  0.67134  0.65497  1.0000
  C   C17       1.0  0.74823  0.69860  0.63728  1.0000
  C   C18       1.0  0.75177  0.80140  0.13728  1.0000
  C   C19       1.0  0.25177  0.30140  0.36272  1.0000
  C   C20       1.0  0.24823  0.19860  0.86272  1.0000
  C   C21       1.0  0.87624  0.75673  0.60672  1.0000
  C   C22       1.0  0.62376  0.74327  0.10672  1.0000
  C   C23       1.0  0.12375  0.24327  0.39328  1.0000
  C   C24       1.0  0.37625  0.25673  0.89327  1.0000
  C   C25       1.0  0.98991  0.70917  0.60497  1.0000
  C   C26       1.0  0.51009  0.79083  0.10497  1.0000
  C   C27       1.0  0.01009  0.29083  0.39503  1.0000
  C   C28       1.0  0.48992  0.20918  0.89503  1.0000
  C   C29       1.0  0.96850  0.60757  0.63573  1.0000
  C   C30       1.0  0.53149  0.89242  0.13573  1.0000
  C   C31       1.0  0.03149  0.39242  0.36427  1.0000
  C   C32       1.0  0.46851  0.10758  0.86427  1.0000
  C   C33       1.0  0.37785  0.31087  0.61806  1.0000
  C   C34       1.0  0.12215  0.18913  0.11806  1.0000
  C   C35       1.0  0.62215  0.68913  0.38194  1.0000
  C   C36       1.0  0.87785  0.81087  0.88194  1.0000
  C   C37       1.0  0.36364  0.21936  0.57033  1.0000
  C   C38       1.0  0.13636  0.28064  0.07033  1.0000
  C   C39       1.0  0.63636  0.78064  0.42967  1.0000
  C   C40       1.0  0.86364  0.71936  0.92967  1.0000
  C   C41       1.0  0.48366  0.18122  0.55654  1.0000
  C   C42       1.0  0.01634  0.31877  0.05654  1.0000
  C   C43       1.0  0.51633  0.81877  0.44346  1.0000
  C   C44       1.0  0.98367  0.68123  0.94346  1.0000
  C   C45       1.0  0.60894  0.23484  0.59452  1.0000
  C   C46       1.0  0.89106  0.26516  0.09452  1.0000
  C   C47       1.0  0.39106  0.76516  0.40548  1.0000
  C   C48       1.0  0.10894  0.73484  0.90548  1.0000
  S   S1        1.0  0.99033  0.34309  0.60582  1.0000
  S   S2        1.0  0.50967  0.15691  0.10582  1.0000
  S   S3        1.0  0.00967  0.65691  0.39418  1.0000
  S   S4        1.0  0.49033  0.84308  0.89418  1.0000
  S   S5        1.0  0.02521  0.46351  0.84621  1.0000
  S   S6        1.0  0.47479  0.03649  0.34621  1.0000
  S   S7        1.0  0.97479  0.53648  0.15379  1.0000
  S   S8        1.0  0.52521  0.96352  0.65379  1.0000
  S   S9        1.0  0.67832  0.45754  0.00433  1.0000
  S   S10       1.0  0.82169  0.04247  0.50433  1.0000
  S   S11       1.0  0.32169  0.54246  0.99567  1.0000
  S   S12       1.0  0.17831  0.95754  0.49567  1.0000
  S   S13       1.0  0.88342  0.08936  0.90726  1.0000
  S   S14       1.0  0.61659  0.41063  0.40726  1.0000
  S   S15       1.0  0.11659  0.91064  0.09274  1.0000
  S   S16       1.0  0.38340  0.58936  0.59274  1.0000
  N   N1        1.0  0.04210  0.16378  0.68590  1.0000
  N   N2        1.0  0.45791  0.33622  0.18590  1.0000
  N   N3        1.0  0.95791  0.83622  0.31410  1.0000
  N   N4        1.0  0.54209  0.66378  0.81410  1.0000
  N   N5        1.0  0.28920  0.44401  0.78218  1.0000
  N   N6        1.0  0.21080  0.05599  0.28219  1.0000
  N   N7        1.0  0.71080  0.55599  0.21782  1.0000
  N   N8        1.0  0.78920  0.94402  0.71781  1.0000
  N   N9        1.0  0.66357  0.44842  0.82329  1.0000
  N   N10       1.0  0.83643  0.05158  0.32329  1.0000
  N   N11       1.0  0.33642  0.55158  0.17671  1.0000
  N   N12       1.0  0.16357  0.94842  0.67671  1.0000
  N   N13       1.0  0.78207  0.22904  0.79961  1.0000
  N   N14       1.0  0.71794  0.27096  0.29962  1.0000
  N   N15       1.0  0.21793  0.77096  0.20038  1.0000
  N   N16       1.0  0.28206  0.72904  0.70038  1.0000
  N   N17       1.0  0.84352  0.55591  0.66423  1.0000
  N   N18       1.0  0.65647  0.94409  0.16423  1.0000
  N   N19       1.0  0.15647  0.44409  0.33577  1.0000
  N   N20       1.0  0.34353  0.05591  0.83577  1.0000
  N   N21       1.0  0.73324  0.60094  0.66445  1.0000
  N   N22       1.0  0.76676  0.89906  0.16445  1.0000
  N   N23       1.0  0.26675  0.39906  0.33555  1.0000
  N   N24       1.0  0.23325  0.10094  0.83555  1.0000
  N   N25       1.0  0.61550  0.32028  0.64164  1.0000
  N   N26       1.0  0.88450  0.17972  0.14164  1.0000
  N   N27       1.0  0.38450  0.67972  0.35836  1.0000
  N   N28       1.0  0.11550  0.82028  0.85836  1.0000
  N   N29       1.0  0.50062  0.35909  0.65212  1.0000
  N   N30       1.0  0.99938  0.14091  0.15212  1.0000
  N   N31       1.0  0.49937  0.64091  0.34789  1.0000
  N   N32       1.0  0.00062  0.85909  0.84788  1.0000
