data_image0
_chemical_formula_structural       Cd4H48C56Se8N32
_chemical_formula_sum              "Cd4 H48 C56 Se8 N32"
_cell_length_a       12.3617
_cell_length_b       12.7264
_cell_length_c       13.0271
_cell_angle_alpha    63.2577
_cell_angle_beta     87.5841
_cell_angle_gamma    86.0454

_space_group_name_H-M_alt    "P 1"
_space_group_IT_number       1

loop_
  _space_group_symop_operation_xyz
  'x, y, z'

loop_
  _atom_site_type_symbol
  _atom_site_label
  _atom_site_symmetry_multiplicity
  _atom_site_fract_x
  _atom_site_fract_y
  _atom_site_fract_z
  _atom_site_occupancy
  Cd  Cd1       1.0  1.00000  0.50000  0.50000  1.0000
  Cd  Cd2       1.0  0.25249  0.25423  0.25453  1.0000
  Cd  Cd3       1.0  0.74751  0.74577  0.74547  1.0000
  Cd  Cd4       1.0  0.50000  0.00000  1.00000  1.0000
  H   H1        1.0  0.90203  0.90626  0.13865  1.0000
  H   H2        1.0  0.09797  0.09373  0.86136  1.0000
  H   H3        1.0  0.09078  0.96816  0.06712  1.0000
  H   H4        1.0  0.90922  0.03184  0.93288  1.0000
  H   H5        1.0  0.24885  0.82957  0.17861  1.0000
  H   H6        1.0  0.75115  0.17043  0.82139  1.0000
  H   H7        1.0  0.19984  0.64135  0.35198  1.0000
  H   H8        1.0  0.80016  0.35865  0.64802  1.0000
  H   H9        1.0  0.16737  0.87284  0.62794  1.0000
  H   H10       1.0  0.83263  0.12715  0.37206  1.0000
  H   H11       1.0  0.00495  0.94570  0.70777  1.0000
  H   H12       1.0  0.99505  0.05430  0.29223  1.0000
  H   H13       1.0  0.93434  0.15753  0.58824  1.0000
  H   H14       1.0  0.06567  0.84247  0.41176  1.0000
  H   H15       1.0  0.03714  0.27879  0.40743  1.0000
  H   H16       1.0  0.96287  0.72121  0.59258  1.0000
  H   H17       1.0  0.32731  0.64258  0.88125  1.0000
  H   H18       1.0  0.67269  0.35742  0.11875  1.0000
  H   H19       1.0  0.46984  0.56718  0.78265  1.0000
  H   H20       1.0  0.53016  0.43281  0.21735  1.0000
  H   H21       1.0  0.53808  0.35148  0.89257  1.0000
  H   H22       1.0  0.46193  0.64852  0.10744  1.0000
  H   H23       1.0  0.44944  0.23128  0.08265  1.0000
  H   H24       1.0  0.55056  0.76872  0.91735  1.0000
  H   H25       1.0  0.31617  0.96526  0.35121  1.0000
  H   H26       1.0  0.68383  0.03474  0.64878  1.0000
  H   H27       1.0  0.48191  0.82499  0.41983  1.0000
  H   H28       1.0  0.51809  0.17501  0.58017  1.0000
  H   H29       1.0  0.66154  0.91417  0.40925  1.0000
  H   H30       1.0  0.33846  0.08583  0.59075  1.0000
  H   H31       1.0  0.65912  0.13639  0.33085  1.0000
  H   H32       1.0  0.34088  0.86361  0.66916  1.0000
  H   H33       1.0  0.85026  0.36759  0.14657  1.0000
  H   H34       1.0  0.14974  0.63241  0.85344  1.0000
  H   H35       1.0  0.84116  0.58927  0.07898  1.0000
  H   H36       1.0  0.15884  0.41073  0.92103  1.0000
  H   H37       1.0  0.01516  0.68028  0.08423  1.0000
  H   H38       1.0  0.98484  0.31971  0.91578  1.0000
  H   H39       1.0  0.18110  0.54163  0.16329  1.0000
  H   H40       1.0  0.81890  0.45837  0.83671  1.0000
  H   H41       1.0  0.41896  0.60464  0.36931  1.0000
  H   H42       1.0  0.58104  0.39537  0.63069  1.0000
  H   H43       1.0  0.61117  0.53010  0.43359  1.0000
  H   H44       1.0  0.38883  0.46991  0.56641  1.0000
  H   H45       1.0  0.76236  0.66470  0.32121  1.0000
  H   H46       1.0  0.23764  0.33531  0.67878  1.0000
  H   H47       1.0  0.70491  0.85605  0.15075  1.0000
  H   H48       1.0  0.29509  0.14396  0.84924  1.0000
  C   C1        1.0  0.81507  0.37964  0.41150  1.0000
  C   C2        1.0  0.18490  0.62037  0.58849  1.0000
  C   C3        1.0  0.24253  0.39391  0.42499  1.0000
  C   C4        1.0  0.75747  0.60609  0.57501  1.0000
  C   C5        1.0  0.26099  0.09166  0.09649  1.0000
  C   C6        1.0  0.73901  0.90834  0.90351  1.0000
  C   C7        1.0  0.68921  0.12936  0.07772  1.0000
  C   C8        1.0  0.31079  0.87064  0.92228  1.0000
  C   C9        1.0  0.97322  0.84946  0.18049  1.0000
  C   C10       1.0  0.02678  0.15054  0.81952  1.0000
  C   C11       1.0  0.07814  0.88442  0.14166  1.0000
  C   C12       1.0  0.92186  0.11558  0.85834  1.0000
  C   C13       1.0  0.16436  0.80941  0.20241  1.0000
  C   C14       1.0  0.83565  0.19059  0.79759  1.0000
  C   C15       1.0  0.13813  0.70526  0.29763  1.0000
  C   C16       1.0  0.86188  0.29474  0.70237  1.0000
  C   C17       1.0  0.13456  0.96390  0.58411  1.0000
  C   C18       1.0  0.86544  0.03610  0.41589  1.0000
  C   C19       1.0  0.04441  0.00421  0.62776  1.0000
  C   C20       1.0  0.95559  0.99579  0.37224  1.0000
  C   C21       1.0  0.00627  0.11957  0.56344  1.0000
  C   C22       1.0  0.99374  0.88043  0.43656  1.0000
  C   C23       1.0  0.06247  0.18727  0.46191  1.0000
  C   C24       1.0  0.93754  0.81273  0.53809  1.0000
  C   C25       1.0  0.35787  0.55044  0.92059  1.0000
  C   C26       1.0  0.64213  0.44956  0.07941  1.0000
  C   C27       1.0  0.43764  0.50846  0.86671  1.0000
  C   C28       1.0  0.56236  0.49154  0.13329  1.0000
  C   C29       1.0  0.47384  0.39142  0.92556  1.0000
  C   C30       1.0  0.52616  0.60858  0.07444  1.0000
  C   C31       1.0  0.42523  0.32404  0.03210  1.0000
  C   C32       1.0  0.57477  0.67596  0.96790  1.0000
  C   C33       1.0  0.39657  0.99645  0.34846  1.0000
  C   C34       1.0  0.60344  0.00355  0.65153  1.0000
  C   C35       1.0  0.48867  0.91964  0.38626  1.0000
  C   C36       1.0  0.51134  0.08036  0.61373  1.0000
  C   C37       1.0  0.58651  0.96841  0.38057  1.0000
  C   C38       1.0  0.41350  0.03159  0.61943  1.0000
  C   C39       1.0  0.58551  0.09098  0.33811  1.0000
  C   C40       1.0  0.41449  0.90902  0.66189  1.0000
  C   C41       1.0  0.92047  0.41387  0.14866  1.0000
  C   C42       1.0  0.07953  0.58613  0.85134  1.0000
  C   C43       1.0  0.91599  0.53573  0.11160  1.0000
  C   C44       1.0  0.08401  0.46427  0.88840  1.0000
  C   C45       1.0  0.01072  0.58569  0.11516  1.0000
  C   C46       1.0  0.98928  0.41431  0.88484  1.0000
  C   C47       1.0  0.10276  0.51009  0.15830  1.0000
  C   C48       1.0  0.89724  0.48991  0.84170  1.0000
  C   C49       1.0  0.48796  0.65626  0.32452  1.0000
  C   C50       1.0  0.51204  0.34374  0.67548  1.0000
  C   C51       1.0  0.59437  0.61590  0.36097  1.0000
  C   C52       1.0  0.40563  0.38410  0.63903  1.0000
  C   C53       1.0  0.67696  0.68768  0.29911  1.0000
  C   C54       1.0  0.32304  0.31233  0.70088  1.0000
  C   C55       1.0  0.64611  0.79374  0.20496  1.0000
  C   C56       1.0  0.35389  0.20626  0.79504  1.0000
  Se  Se1       1.0  0.69370  0.30638  0.42353  1.0000
  Se  Se2       1.0  0.30625  0.69367  0.57643  1.0000
  Se  Se3       1.0  0.36622  0.35117  0.37241  1.0000
  Se  Se4       1.0  0.63378  0.64883  0.62758  1.0000
  Se  Se5       1.0  0.14254  0.16561  0.12532  1.0000
  Se  Se6       1.0  0.85746  0.83439  0.87469  1.0000
  Se  Se7       1.0  0.82068  0.16132  0.10439  1.0000
  Se  Se8       1.0  0.17931  0.83868  0.89561  1.0000
  N   N1        1.0  0.89624  0.42766  0.40313  1.0000
  N   N2        1.0  0.10375  0.57232  0.59689  1.0000
  N   N3        1.0  0.16143  0.41922  0.46148  1.0000
  N   N4        1.0  0.83857  0.58078  0.53852  1.0000
  N   N5        1.0  0.33829  0.04274  0.07815  1.0000
  N   N6        1.0  0.66171  0.95726  0.92185  1.0000
  N   N7        1.0  0.60155  0.10814  0.06119  1.0000
  N   N8        1.0  0.39845  0.89186  0.93881  1.0000
  N   N9        1.0  0.03554  0.67602  0.32915  1.0000
  N   N10       1.0  0.96446  0.32398  0.67085  1.0000
  N   N11       1.0  0.95206  0.74731  0.27116  1.0000
  N   N12       1.0  0.04794  0.25269  0.72884  1.0000
  N   N13       1.0  0.14925  0.14345  0.42612  1.0000
  N   N14       1.0  0.85075  0.85655  0.57388  1.0000
  N   N15       1.0  0.18569  0.03117  0.48626  1.0000
  N   N16       1.0  0.81431  0.96883  0.51375  1.0000
  N   N17       1.0  0.34777  0.36956  0.07768  1.0000
  N   N18       1.0  0.65223  0.63044  0.92232  1.0000
  N   N19       1.0  0.31409  0.48318  0.02319  1.0000
  N   N20       1.0  0.68591  0.51682  0.97681  1.0000
  N   N21       1.0  0.40161  0.11268  0.30963  1.0000
  N   N22       1.0  0.59839  0.88733  0.69036  1.0000
  N   N23       1.0  0.49549  0.16115  0.30443  1.0000
  N   N24       1.0  0.50451  0.83885  0.69557  1.0000
  N   N25       1.0  0.10091  0.39410  0.19330  1.0000
  N   N26       1.0  0.89909  0.60590  0.80671  1.0000
  N   N27       1.0  0.01065  0.34508  0.18763  1.0000
  N   N28       1.0  0.98935  0.65492  0.81238  1.0000
  N   N29       1.0  0.54265  0.82614  0.17347  1.0000
  N   N30       1.0  0.45735  0.17387  0.82653  1.0000
  N   N31       1.0  0.46234  0.75843  0.23300  1.0000
  N   N32       1.0  0.53766  0.24158  0.76700  1.0000
