data_image0
_chemical_formula_structural       NiH32C20N6O8
_chemical_formula_sum              "Ni1 H32 C20 N6 O8"
_cell_length_a       7.97737
_cell_length_b       8.1562
_cell_length_c       10.4896
_cell_angle_alpha    73.2472
_cell_angle_beta     64.3439
_cell_angle_gamma    77.1972

_space_group_name_H-M_alt    "P 1"
_space_group_IT_number       1

loop_
  _space_group_symop_operation_xyz
  'x, y, z'

loop_
  _atom_site_type_symbol
  _atom_site_label
  _atom_site_symmetry_multiplicity
  _atom_site_fract_x
  _atom_site_fract_y
  _atom_site_fract_z
  _atom_site_occupancy
  Ni  Ni1       1.0  0.01023  0.49939  0.52333  1.0000
  H   H1        1.0  0.82230  0.62378  0.06916  1.0000
  H   H2        1.0  0.16181  0.38239  0.90972  1.0000
  H   H3        1.0  0.61585  0.86669  0.51769  1.0000
  H   H4        1.0  0.40045  0.12691  0.49423  1.0000
  H   H5        1.0  0.67989  0.71234  0.40871  1.0000
  H   H6        1.0  0.33491  0.28013  0.60359  1.0000
  H   H7        1.0  0.60665  0.41908  0.52420  1.0000
  H   H8        1.0  0.41012  0.57352  0.48869  1.0000
  H   H9        1.0  0.51826  0.35633  0.71739  1.0000
  H   H10       1.0  0.50073  0.63691  0.29577  1.0000
  H   H11       1.0  0.62877  0.62554  0.80374  1.0000
  H   H12       1.0  0.36083  0.37166  0.22104  1.0000
  H   H13       1.0  0.40968  0.55287  0.85379  1.0000
  H   H14       1.0  0.58294  0.44696  0.15531  1.0000
  H   H15       1.0  0.51063  0.92461  0.72779  1.0000
  H   H16       1.0  0.49170  0.07250  0.28243  1.0000
  H   H17       1.0  0.30208  0.86093  0.74380  1.0000
  H   H18       1.0  0.70672  0.13862  0.25132  1.0000
  H   H19       1.0  0.19286  0.77967  0.00844  1.0000
  H   H20       1.0  0.78817  0.22548  0.99109  1.0000
  H   H21       1.0  0.41820  0.78461  0.00013  1.0000
  H   H22       1.0  0.55498  0.22370  0.01363  1.0000
  H   H23       1.0  0.90863  0.97366  0.41812  1.0000
  H   H24       1.0  0.11217  0.02280  0.56577  1.0000
  H   H25       1.0  0.97276  0.85756  0.28248  1.0000
  H   H26       1.0  0.03739  0.12099  0.71414  1.0000
  H   H27       1.0  0.85100  0.18090  0.50090  1.0000
  H   H28       1.0  0.18699  0.84503  0.46672  1.0000
  H   H29       1.0  0.74451  0.11719  0.69490  1.0000
  H   H30       1.0  0.27510  0.86858  0.27621  1.0000
  H   H31       1.0  0.10128  0.17167  0.11766  1.0000
  H   H32       1.0  0.86167  0.84673  0.88068  1.0000
  C   C1        1.0  0.93941  0.52176  0.05535  1.0000
  C   C2        1.0  0.04565  0.48541  0.92481  1.0000
  C   C3        1.0  0.97330  0.43776  0.19072  1.0000
  C   C4        1.0  0.00166  0.57068  0.79474  1.0000
  C   C5        1.0  0.67479  0.73239  0.51049  1.0000
  C   C6        1.0  0.34092  0.26129  0.50110  1.0000
  C   C7        1.0  0.61438  0.43901  0.62208  1.0000
  C   C8        1.0  0.40280  0.55531  0.39036  1.0000
  C   C9        1.0  0.50570  0.64778  0.77576  1.0000
  C   C10       1.0  0.49291  0.34970  0.23740  1.0000
  C   C11       1.0  0.27493  0.03009  0.96614  1.0000
  C   C12       1.0  0.70038  0.97833  0.03415  1.0000
  C   C13       1.0  0.40944  0.82934  0.78940  1.0000
  C   C14       1.0  0.58952  0.16991  0.21625  1.0000
  C   C15       1.0  0.31954  0.84579  0.94717  1.0000
  C   C16       1.0  0.66207  0.15952  0.05772  1.0000
  C   C17       1.0  0.97397  0.84802  0.38951  1.0000
  C   C18       1.0  0.04461  0.14374  0.60277  1.0000
  C   C19       1.0  0.85055  0.19395  0.60343  1.0000
  C   C20       1.0  0.17256  0.80459  0.37989  1.0000
  N   N1        1.0  0.86801  0.71114  0.49356  1.0000
  N   N2        1.0  0.15172  0.28427  0.51007  1.0000
  N   N3        1.0  0.80387  0.37428  0.60745  1.0000
  N   N4        1.0  0.21441  0.61989  0.40002  1.0000
  N   N5        1.0  0.55666  0.61637  0.63148  1.0000
  N   N6        1.0  0.46020  0.37748  0.37965  1.0000
  O   O1        1.0  0.90977  0.52685  0.28502  1.0000
  O   O2        1.0  0.06407  0.47292  0.70264  1.0000
  O   O3        1.0  0.12005  0.05427  0.07981  1.0000
  O   O4        1.0  0.84743  0.95961  0.91204  1.0000
  O   O5        1.0  0.37920  0.14320  0.88497  1.0000
  O   O6        1.0  0.60201  0.86223  0.11584  1.0000
  O   O7        1.0  0.06315  0.28590  0.20403  1.0000
  O   O8        1.0  0.91009  0.71748  0.78157  1.0000
