data_image0
_chemical_formula_structural       Cd2Mo4H28C12S8N4O16
_chemical_formula_sum              "Cd2 Mo4 H28 C12 S8 N4 O16"
_cell_length_a       8.61327
_cell_length_b       9.9948
_cell_length_c       10.1726
_cell_angle_alpha    90.0001
_cell_angle_beta     90
_cell_angle_gamma    104.998

_space_group_name_H-M_alt    "P 1"
_space_group_IT_number       1

loop_
  _space_group_symop_operation_xyz
  'x, y, z'

loop_
  _atom_site_type_symbol
  _atom_site_label
  _atom_site_symmetry_multiplicity
  _atom_site_fract_x
  _atom_site_fract_y
  _atom_site_fract_z
  _atom_site_occupancy
  Cd  Cd1       1.0  0.01538  0.82560  0.86487  1.0000
  Cd  Cd2       1.0  0.98462  0.17439  0.36486  1.0000
  Mo  Mo1       1.0  0.44182  0.81363  0.87318  1.0000
  Mo  Mo2       1.0  0.55819  0.18637  0.37318  1.0000
  Mo  Mo3       1.0  0.60910  0.61012  0.92954  1.0000
  Mo  Mo4       1.0  0.39090  0.38988  0.42954  1.0000
  H   H1        1.0  0.50873  0.22930  0.79984  1.0000
  H   H2        1.0  0.49126  0.77070  0.29984  1.0000
  H   H3        1.0  0.54915  0.03225  0.68755  1.0000
  H   H4        1.0  0.45085  0.96776  0.18754  1.0000
  H   H5        1.0  0.59676  0.49089  0.17982  1.0000
  H   H6        1.0  0.40324  0.50911  0.67982  1.0000
  H   H7        1.0  0.65294  0.38817  0.07026  1.0000
  H   H8        1.0  0.34705  0.61183  0.57026  1.0000
  H   H9        1.0  0.82433  0.00287  0.90962  1.0000
  H   H10       1.0  0.17567  0.99713  0.40962  1.0000
  H   H11       1.0  0.22781  0.12339  0.86085  1.0000
  H   H12       1.0  0.77219  0.87661  0.36085  1.0000
  H   H13       1.0  0.33833  0.18867  0.00466  1.0000
  H   H14       1.0  0.66167  0.81134  0.50466  1.0000
  H   H15       1.0  0.86828  0.50215  0.22853  1.0000
  H   H16       1.0  0.13172  0.49785  0.72852  1.0000
  H   H17       1.0  0.93175  0.40597  0.01861  1.0000
  H   H18       1.0  0.06825  0.59402  0.51860  1.0000
  H   H19       1.0  0.07220  0.56966  0.04310  1.0000
  H   H20       1.0  0.92780  0.43034  0.54309  1.0000
  H   H21       1.0  0.97370  0.10022  0.82812  1.0000
  H   H22       1.0  0.02630  0.89978  0.32812  1.0000
  H   H23       1.0  0.35235  0.00363  0.70150  1.0000
  H   H24       1.0  0.64765  0.99636  0.20149  1.0000
  H   H25       1.0  0.05205  0.92922  0.58589  1.0000
  H   H26       1.0  0.94795  0.07078  0.08588  1.0000
  H   H27       1.0  0.17039  0.83529  0.60811  1.0000
  H   H28       1.0  0.82961  0.16471  0.10811  1.0000
  C   C1        1.0  0.47816  0.12783  0.84906  1.0000
  C   C2        1.0  0.52183  0.87217  0.34906  1.0000
  C   C3        1.0  0.61246  0.11727  0.94180  1.0000
  C   C4        1.0  0.38754  0.88274  0.44181  1.0000
  C   C5        1.0  0.32317  0.11032  0.92686  1.0000
  C   C6        1.0  0.67683  0.88968  0.42686  1.0000
  C   C7        1.0  0.83900  0.54795  0.13675  1.0000
  C   C8        1.0  0.16100  0.45205  0.63675  1.0000
  C   C9        1.0  0.86725  0.70436  0.15241  1.0000
  C   C10       1.0  0.13276  0.29564  0.65241  1.0000
  C   C11       1.0  0.94507  0.51779  0.02580  1.0000
  C   C12       1.0  0.05493  0.48220  0.52579  1.0000
  S   S1        1.0  0.42312  0.68004  0.06148  1.0000
  S   S2        1.0  0.57688  0.31996  0.56148  1.0000
  S   S3        1.0  0.66235  0.77299  0.75979  1.0000
  S   S4        1.0  0.33765  0.22701  0.25979  1.0000
  S   S5        1.0  0.26731  0.93870  0.00567  1.0000
  S   S6        1.0  0.73269  0.06130  0.50567  1.0000
  S   S7        1.0  0.88120  0.57195  0.86645  1.0000
  S   S8        1.0  0.11880  0.42805  0.36644  1.0000
  N   N1        1.0  0.45616  0.01219  0.75469  1.0000
  N   N2        1.0  0.54384  0.98782  0.25469  1.0000
  N   N3        1.0  0.66899  0.48978  0.09967  1.0000
  N   N4        1.0  0.33101  0.51022  0.59967  1.0000
  O   O1        1.0  0.28380  0.72699  0.77964  1.0000
  O   O2        1.0  0.71620  0.27301  0.27964  1.0000
  O   O3        1.0  0.49427  0.46378  0.85783  1.0000
  O   O4        1.0  0.50573  0.53622  0.35783  1.0000
  O   O5        1.0  0.69732  0.21982  0.00097  1.0000
  O   O6        1.0  0.30269  0.78019  0.50097  1.0000
  O   O7        1.0  0.62794  0.99225  0.95684  1.0000
  O   O8        1.0  0.37206  0.00775  0.45683  1.0000
  O   O9        1.0  0.96495  0.76665  0.23688  1.0000
  O   O10       1.0  0.03505  0.23335  0.73688  1.0000
  O   O11       1.0  0.78998  0.76010  0.06851  1.0000
  O   O12       1.0  0.21002  0.23990  0.56851  1.0000
  O   O13       1.0  0.94294  0.02676  0.89873  1.0000
  O   O14       1.0  0.05706  0.97324  0.39873  1.0000
  O   O15       1.0  0.10518  0.88943  0.65579  1.0000
  O   O16       1.0  0.89482  0.11056  0.15578  1.0000
