data_image0
_chemical_formula_structural       Nd2H8C24O16F12
_chemical_formula_sum              "Nd2 H8 C24 O16 F12"
_cell_length_a       8.96473
_cell_length_b       8.96679
_cell_length_c       11.1073
_cell_angle_alpha    109.026
_cell_angle_beta     108.897
_cell_angle_gamma    101.218

_space_group_name_H-M_alt    "P 1"
_space_group_IT_number       1

loop_
  _space_group_symop_operation_xyz
  'x, y, z'

loop_
  _atom_site_type_symbol
  _atom_site_label
  _atom_site_symmetry_multiplicity
  _atom_site_fract_x
  _atom_site_fract_y
  _atom_site_fract_z
  _atom_site_occupancy
  Nd  Nd1       1.0  0.12780  0.83227  0.95999  1.0000
  Nd  Nd2       1.0  0.87220  0.16773  0.04001  1.0000
  H   H1        1.0  0.31678  0.71500  0.75966  1.0000
  H   H2        1.0  0.95513  0.55697  0.24033  1.0000
  H   H3        1.0  0.68322  0.28500  0.24034  1.0000
  H   H4        1.0  0.04487  0.44303  0.75967  1.0000
  H   H5        1.0  0.39801  0.90724  0.84799  1.0000
  H   H6        1.0  0.05908  0.54987  0.15198  1.0000
  H   H7        1.0  0.60199  0.09276  0.15201  1.0000
  H   H8        1.0  0.94092  0.45013  0.84802  1.0000
  C   C1        1.0  0.75763  0.75766  0.00023  1.0000
  C   C2        1.0  0.24236  0.24235  0.99977  1.0000
  C   C3        1.0  0.62483  0.62481  0.00021  1.0000
  C   C4        1.0  0.37517  0.37519  0.99980  1.0000
  C   C5        1.0  0.13481  0.14065  0.27545  1.0000
  C   C6        1.0  0.86519  0.85935  0.72455  1.0000
  C   C7        1.0  0.26407  0.13715  0.40138  1.0000
  C   C8        1.0  0.73593  0.86285  0.59862  1.0000
  C   C9        1.0  0.22178  0.03402  0.46383  1.0000
  C   C10       1.0  0.57048  0.75789  0.53607  1.0000
  C   C11       1.0  0.77822  0.96598  0.53617  1.0000
  C   C12       1.0  0.42952  0.24211  0.46393  1.0000
  C   C13       1.0  0.33697  0.04024  0.58644  1.0000
  C   C14       1.0  0.45409  0.75030  0.41341  1.0000
  C   C15       1.0  0.66304  0.95976  0.41356  1.0000
  C   C16       1.0  0.54591  0.24969  0.58659  1.0000
  C   C17       1.0  0.50344  0.15062  0.65413  1.0000
  C   C18       1.0  0.49657  0.84937  0.34587  1.0000
  C   C19       1.0  0.64024  0.60227  0.12093  1.0000
  C   C20       1.0  0.48183  0.51977  0.87933  1.0000
  C   C21       1.0  0.35976  0.39773  0.87907  1.0000
  C   C22       1.0  0.51817  0.48023  0.12067  1.0000
  C   C23       1.0  0.62713  0.16166  0.78879  1.0000
  C   C24       1.0  0.37287  0.83834  0.21121  1.0000
  O   O1        1.0  0.86570  0.70941  0.96387  1.0000
  O   O2        1.0  0.74551  0.90197  0.03646  1.0000
  O   O3        1.0  0.13430  0.29060  0.03613  1.0000
  O   O4        1.0  0.25449  0.09803  0.96355  1.0000
  O   O5        1.0  0.58158  0.06857  0.84537  1.0000
  O   O6        1.0  0.22318  0.73639  0.15481  1.0000
  O   O7        1.0  0.41842  0.93143  0.15463  1.0000
  O   O8        1.0  0.77683  0.26362  0.84520  1.0000
  O   O9        1.0  0.32541  0.80475  0.84234  1.0000
  O   O10       1.0  0.96222  0.48296  0.15762  1.0000
  O   O11       1.0  0.67459  0.19525  0.15766  1.0000
  O   O12       1.0  0.03778  0.51704  0.84238  1.0000
  O   O13       1.0  0.11055  0.04241  0.15276  1.0000
  O   O14       1.0  0.88945  0.95759  0.84724  1.0000
  O   O15       1.0  0.05646  0.24096  0.29734  1.0000
  O   O16       1.0  0.94354  0.75904  0.70266  1.0000
  F   F1        1.0  0.27987  0.93383  0.63631  1.0000
  F   F2        1.0  0.29798  0.64290  0.36337  1.0000
  F   F3        1.0  0.72013  0.06617  0.36368  1.0000
  F   F4        1.0  0.70203  0.35710  0.63663  1.0000
  F   F5        1.0  0.06498  0.92359  0.40437  1.0000
  F   F6        1.0  0.51957  0.66048  0.59552  1.0000
  F   F7        1.0  0.93502  0.07641  0.59563  1.0000
  F   F8        1.0  0.48043  0.33952  0.40448  1.0000
  F   F9        1.0  0.77798  0.69945  0.24283  1.0000
  F   F10       1.0  0.45762  0.53608  0.75768  1.0000
  F   F11       1.0  0.22202  0.30054  0.75717  1.0000
  F   F12       1.0  0.54238  0.46392  0.24233  1.0000
