data_image0
_chemical_formula_structural       Sm2H8C24O16F12
_chemical_formula_sum              "Sm2 H8 C24 O16 F12"
_cell_length_a       8.80748
_cell_length_b       8.80723
_cell_length_c       11.5117
_cell_angle_alpha    105.929
_cell_angle_beta     111.787
_cell_angle_gamma    98.9662

_space_group_name_H-M_alt    "P 1"
_space_group_IT_number       1

loop_
  _space_group_symop_operation_xyz
  'x, y, z'

loop_
  _atom_site_type_symbol
  _atom_site_label
  _atom_site_symmetry_multiplicity
  _atom_site_fract_x
  _atom_site_fract_y
  _atom_site_fract_z
  _atom_site_occupancy
  Sm  Sm1       1.0  0.64506  0.83800  0.48331  1.0000
  Sm  Sm2       1.0  0.35494  0.16200  0.51669  1.0000
  H   H1        1.0  0.84113  0.85444  0.31074  1.0000
  H   H2        1.0  0.54326  0.53062  0.68923  1.0000
  H   H3        1.0  0.15887  0.14556  0.68927  1.0000
  H   H4        1.0  0.45675  0.46939  0.31078  1.0000
  H   H5        1.0  0.97732  0.85206  0.44165  1.0000
  H   H6        1.0  0.41036  0.53597  0.55813  1.0000
  H   H7        1.0  0.02268  0.14794  0.55836  1.0000
  H   H8        1.0  0.58964  0.46403  0.44187  1.0000
  C   C1        1.0  0.25372  0.75388  0.49994  1.0000
  C   C2        1.0  0.74627  0.24612  0.50005  1.0000
  C   C3        1.0  0.12230  0.62253  0.49996  1.0000
  C   C4        1.0  0.87769  0.37746  0.50003  1.0000
  C   C5        1.0  0.13132  0.60965  0.61978  1.0000
  C   C6        1.0  0.98964  0.51164  0.38015  1.0000
  C   C7        1.0  0.86867  0.39034  0.38021  1.0000
  C   C8        1.0  0.01035  0.48836  0.61984  1.0000
  C   C9        1.0  0.61670  0.14112  0.75730  1.0000
  C   C10       1.0  0.38331  0.85889  0.24271  1.0000
  C   C11       1.0  0.74739  0.13975  0.88659  1.0000
  C   C12       1.0  0.25262  0.86025  0.11342  1.0000
  C   C13       1.0  0.70569  0.03653  0.94930  1.0000
  C   C14       1.0  0.08672  0.75582  0.05072  1.0000
  C   C15       1.0  0.29431  0.96348  0.05070  1.0000
  C   C16       1.0  0.91329  0.24417  0.94928  1.0000
  C   C17       1.0  0.82327  0.03995  0.07161  1.0000
  C   C18       1.0  0.96795  0.75097  0.92834  1.0000
  C   C19       1.0  0.17672  0.96005  0.92839  1.0000
  C   C20       1.0  0.03206  0.24903  0.07167  1.0000
  C   C21       1.0  0.99002  0.14847  0.13799  1.0000
  C   C22       1.0  0.00998  0.85153  0.86201  1.0000
  C   C23       1.0  0.11331  0.16075  0.27358  1.0000
  C   C24       1.0  0.88668  0.83924  0.72642  1.0000
  O   O1        1.0  0.38301  0.71432  0.49293  1.0000
  O   O2        1.0  0.22134  0.89024  0.50694  1.0000
  O   O3        1.0  0.61698  0.28568  0.50706  1.0000
  O   O4        1.0  0.77865  0.10976  0.49306  1.0000
  O   O5        1.0  0.85288  0.81507  0.38426  1.0000
  O   O6        1.0  0.43062  0.46875  0.61541  1.0000
  O   O7        1.0  0.14712  0.18494  0.61574  1.0000
  O   O8        1.0  0.56938  0.53125  0.38459  1.0000
  O   O9        1.0  0.60130  0.04420  0.64553  1.0000
  O   O10       1.0  0.39870  0.95580  0.35448  1.0000
  O   O11       1.0  0.52658  0.23811  0.76367  1.0000
  O   O12       1.0  0.47344  0.76191  0.23634  1.0000
  O   O13       1.0  0.06795  0.06958  0.33124  1.0000
  O   O14       1.0  0.73752  0.73699  0.66921  1.0000
  O   O15       1.0  0.93205  0.93040  0.66876  1.0000
  O   O16       1.0  0.26246  0.26301  0.33080  1.0000
  F   F1        1.0  0.54811  0.92967  0.89025  1.0000
  F   F2        1.0  0.03871  0.65734  0.10979  1.0000
  F   F3        1.0  0.45189  0.07034  0.10975  1.0000
  F   F4        1.0  0.96131  0.34264  0.89021  1.0000
  F   F5        1.0  0.76859  0.93406  0.12287  1.0000
  F   F6        1.0  0.81097  0.64485  0.87710  1.0000
  F   F7        1.0  0.23141  0.06593  0.87713  1.0000
  F   F8        1.0  0.18904  0.35514  0.12291  1.0000
  F   F9        1.0  0.25966  0.71479  0.73748  1.0000
  F   F10       1.0  0.97691  0.52232  0.26238  1.0000
  F   F11       1.0  0.74033  0.28520  0.26252  1.0000
  F   F12       1.0  0.02308  0.47767  0.73761  1.0000
