data_image0
_chemical_formula_structural       Pr2H8C24O16F12
_chemical_formula_sum              "Pr2 H8 C24 O16 F12"
_cell_length_a       8.99402
_cell_length_b       8.99545
_cell_length_c       11.117
_cell_angle_alpha    109.256
_cell_angle_beta     108.712
_cell_angle_gamma    101.277

_space_group_name_H-M_alt    "P 1"
_space_group_IT_number       1

loop_
  _space_group_symop_operation_xyz
  'x, y, z'

loop_
  _atom_site_type_symbol
  _atom_site_label
  _atom_site_symmetry_multiplicity
  _atom_site_fract_x
  _atom_site_fract_y
  _atom_site_fract_z
  _atom_site_occupancy
  Pr  Pr1       1.0  0.37176  0.16935  0.54103  1.0000
  Pr  Pr2       1.0  0.62823  0.83064  0.45897  1.0000
  H   H1        1.0  0.10081  0.09184  0.65415  1.0000
  H   H2        1.0  0.43770  0.44648  0.34578  1.0000
  H   H3        1.0  0.89919  0.90816  0.34585  1.0000
  H   H4        1.0  0.56230  0.55352  0.65422  1.0000
  H   H5        1.0  0.17174  0.28541  0.73547  1.0000
  H   H6        1.0  0.55001  0.43634  0.26449  1.0000
  H   H7        1.0  0.82826  0.71460  0.26453  1.0000
  H   H8        1.0  0.44999  0.56366  0.73551  1.0000
  C   C1        1.0  0.36514  0.85896  0.22383  1.0000
  C   C2        1.0  0.63485  0.14104  0.77617  1.0000
  C   C3        1.0  0.23629  0.86298  0.09878  1.0000
  C   C4        1.0  0.76371  0.13703  0.90122  1.0000
  C   C5        1.0  0.07122  0.75853  0.03665  1.0000
  C   C6        1.0  0.72165  0.03401  0.96337  1.0000
  C   C7        1.0  0.92878  0.24148  0.96335  1.0000
  C   C8        1.0  0.27835  0.96600  0.03663  1.0000
  C   C9        1.0  0.95509  0.75110  0.91460  1.0000
  C   C10       1.0  0.83650  0.04006  0.08539  1.0000
  C   C11       1.0  0.04491  0.24890  0.08540  1.0000
  C   C12       1.0  0.16351  0.95994  0.91461  1.0000
  C   C13       1.0  0.99747  0.84995  0.84726  1.0000
  C   C14       1.0  0.00254  0.15006  0.15274  1.0000
  C   C15       1.0  0.74309  0.24288  0.49974  1.0000
  C   C16       1.0  0.25691  0.75712  0.50026  1.0000
  C   C17       1.0  0.87562  0.37548  0.49979  1.0000
  C   C18       1.0  0.12438  0.62451  0.50021  1.0000
  C   C19       1.0  0.01815  0.48061  0.62063  1.0000
  C   C20       1.0  0.86020  0.39763  0.37915  1.0000
  C   C21       1.0  0.98185  0.51938  0.37937  1.0000
  C   C22       1.0  0.13980  0.60237  0.62085  1.0000
  C   C23       1.0  0.87401  0.83906  0.71311  1.0000
  C   C24       1.0  0.12600  0.16094  0.28689  1.0000
  O   O1        1.0  0.38978  0.95708  0.34686  1.0000
  O   O2        1.0  0.61022  0.04292  0.65314  1.0000
  O   O3        1.0  0.72482  0.73730  0.65702  1.0000
  O   O4        1.0  0.08041  0.06805  0.34318  1.0000
  O   O5        1.0  0.27518  0.26271  0.34298  1.0000
  O   O6        1.0  0.91959  0.93195  0.65682  1.0000
  O   O7        1.0  0.17160  0.19398  0.65833  1.0000
  O   O8        1.0  0.53565  0.51322  0.34165  1.0000
  O   O9        1.0  0.82840  0.80602  0.34167  1.0000
  O   O10       1.0  0.46435  0.48678  0.65835  1.0000
  O   O11       1.0  0.63558  0.29123  0.53636  1.0000
  O   O12       1.0  0.75489  0.09880  0.46315  1.0000
  O   O13       1.0  0.36442  0.70876  0.46364  1.0000
  O   O14       1.0  0.24511  0.90120  0.53685  1.0000
  O   O15       1.0  0.44241  0.75842  0.20067  1.0000
  O   O16       1.0  0.55759  0.24159  0.79933  1.0000
  F   F1        1.0  0.02077  0.66130  0.09605  1.0000
  F   F2        1.0  0.56513  0.92397  0.90413  1.0000
  F   F3        1.0  0.97923  0.33870  0.90395  1.0000
  F   F4        1.0  0.43487  0.07603  0.09588  1.0000
  F   F5        1.0  0.79944  0.64416  0.86488  1.0000
  F   F6        1.0  0.77965  0.93388  0.13508  1.0000
  F   F7        1.0  0.20056  0.35585  0.13512  1.0000
  F   F8        1.0  0.22036  0.06612  0.86492  1.0000
  F   F9        1.0  0.04228  0.46419  0.74209  1.0000
  F   F10       1.0  0.72262  0.30056  0.25742  1.0000
  F   F11       1.0  0.95772  0.53580  0.25791  1.0000
  F   F12       1.0  0.27738  0.69944  0.74258  1.0000
