data_image0
_chemical_formula_structural       Tb2H8C24O16F12
_chemical_formula_sum              "Tb2 H8 C24 O16 F12"
_cell_length_a       8.74397
_cell_length_b       8.74914
_cell_length_c       11.5024
_cell_angle_alpha    105.409
_cell_angle_beta     112.009
_cell_angle_gamma    99.0829

_space_group_name_H-M_alt    "P 1"
_space_group_IT_number       1

loop_
  _space_group_symop_operation_xyz
  'x, y, z'

loop_
  _atom_site_type_symbol
  _atom_site_label
  _atom_site_symmetry_multiplicity
  _atom_site_fract_x
  _atom_site_fract_y
  _atom_site_fract_z
  _atom_site_occupancy
  Tb  Tb1       1.0  0.64581  0.83974  0.48543  1.0000
  Tb  Tb2       1.0  0.35418  0.16026  0.51457  1.0000
  H   H1        1.0  0.97395  0.85362  0.44346  1.0000
  H   H2        1.0  0.40999  0.53009  0.55649  1.0000
  H   H3        1.0  0.02605  0.14638  0.55654  1.0000
  H   H4        1.0  0.59000  0.46992  0.44351  1.0000
  H   H5        1.0  0.83300  0.85016  0.31094  1.0000
  H   H6        1.0  0.53873  0.52178  0.68918  1.0000
  H   H7        1.0  0.16700  0.14983  0.68906  1.0000
  H   H8        1.0  0.46126  0.47821  0.31082  1.0000
  C   C1        1.0  0.38304  0.86280  0.24606  1.0000
  C   C2        1.0  0.61697  0.13721  0.75395  1.0000
  C   C3        1.0  0.25238  0.86186  0.11460  1.0000
  C   C4        1.0  0.74762  0.13814  0.88540  1.0000
  C   C5        1.0  0.08542  0.75608  0.05103  1.0000
  C   C6        1.0  0.70533  0.03474  0.94888  1.0000
  C   C7        1.0  0.91459  0.24392  0.94897  1.0000
  C   C8        1.0  0.29467  0.96526  0.05112  1.0000
  C   C9        1.0  0.96646  0.75026  0.92752  1.0000
  C   C10       1.0  0.82307  0.03917  0.07231  1.0000
  C   C11       1.0  0.03355  0.24973  0.07248  1.0000
  C   C12       1.0  0.17694  0.96083  0.92768  1.0000
  C   C13       1.0  0.00922  0.85099  0.86058  1.0000
  C   C14       1.0  0.99077  0.14901  0.13942  1.0000
  C   C15       1.0  0.88573  0.83839  0.72438  1.0000
  C   C16       1.0  0.11427  0.16161  0.27562  1.0000
  C   C17       1.0  0.74375  0.24373  0.50002  1.0000
  C   C18       1.0  0.25625  0.75626  0.49998  1.0000
  C   C19       1.0  0.87633  0.37631  0.50008  1.0000
  C   C20       1.0  0.12367  0.62369  0.49992  1.0000
  C   C21       1.0  0.86892  0.38923  0.38042  1.0000
  C   C22       1.0  0.00895  0.48859  0.61965  1.0000
  C   C23       1.0  0.13107  0.61077  0.61958  1.0000
  C   C24       1.0  0.99104  0.51141  0.38035  1.0000
  O   O1        1.0  0.73551  0.73525  0.66633  1.0000
  O   O2        1.0  0.06894  0.06939  0.33351  1.0000
  O   O3        1.0  0.26449  0.26474  0.33367  1.0000
  O   O4        1.0  0.93105  0.93061  0.66649  1.0000
  O   O5        1.0  0.47654  0.76734  0.24371  1.0000
  O   O6        1.0  0.52348  0.23267  0.75629  1.0000
  O   O7        1.0  0.39502  0.96012  0.35560  1.0000
  O   O8        1.0  0.60499  0.03988  0.64440  1.0000
  O   O9        1.0  0.77464  0.10549  0.49003  1.0000
  O   O10       1.0  0.61532  0.28447  0.50993  1.0000
  O   O11       1.0  0.22535  0.89451  0.50996  1.0000
  O   O12       1.0  0.38468  0.71554  0.49008  1.0000
  O   O13       1.0  0.84847  0.81330  0.38657  1.0000
  O   O14       1.0  0.42633  0.46161  0.61340  1.0000
  O   O15       1.0  0.15153  0.18670  0.61344  1.0000
  O   O16       1.0  0.57366  0.53839  0.38660  1.0000
  F   F1        1.0  0.80841  0.64307  0.87587  1.0000
  F   F2        1.0  0.76751  0.93249  0.12376  1.0000
  F   F3        1.0  0.19160  0.35693  0.12413  1.0000
  F   F4        1.0  0.23248  0.06750  0.87623  1.0000
  F   F5        1.0  0.03629  0.65683  0.11013  1.0000
  F   F6        1.0  0.54691  0.92666  0.88970  1.0000
  F   F7        1.0  0.96372  0.34317  0.88987  1.0000
  F   F8        1.0  0.45309  0.07334  0.11028  1.0000
  F   F9        1.0  0.74025  0.28380  0.26256  1.0000
  F   F10       1.0  0.02171  0.47787  0.73760  1.0000
  F   F11       1.0  0.25974  0.71620  0.73744  1.0000
  F   F12       1.0  0.97828  0.52214  0.26240  1.0000
