data_image0
_chemical_formula_structural       Gd2H8C24O16F12
_chemical_formula_sum              "Gd2 H8 C24 O16 F12"
_cell_length_a       8.76449
_cell_length_b       8.76629
_cell_length_c       11.4813
_cell_angle_alpha    105.704
_cell_angle_beta     111.878
_cell_angle_gamma    99.0835

_space_group_name_H-M_alt    "P 1"
_space_group_IT_number       1

loop_
  _space_group_symop_operation_xyz
  'x, y, z'

loop_
  _atom_site_type_symbol
  _atom_site_label
  _atom_site_symmetry_multiplicity
  _atom_site_fract_x
  _atom_site_fract_y
  _atom_site_fract_z
  _atom_site_occupancy
  Gd  Gd1       1.0  0.85615  0.16113  0.01715  1.0000
  Gd  Gd2       1.0  0.14385  0.83887  0.98285  1.0000
  H   H1        1.0  0.66190  0.14733  0.18884  1.0000
  H   H2        1.0  0.95847  0.47285  0.81103  1.0000
  H   H3        1.0  0.33810  0.85266  0.81115  1.0000
  H   H4        1.0  0.04153  0.52715  0.18897  1.0000
  H   H5        1.0  0.52579  0.14770  0.05628  1.0000
  H   H6        1.0  0.09129  0.46942  0.94365  1.0000
  H   H7        1.0  0.47420  0.85229  0.94372  1.0000
  H   H8        1.0  0.90871  0.53057  0.05635  1.0000
  C   C1        1.0  0.37655  0.37651  0.99982  1.0000
  C   C2        1.0  0.62346  0.62349  0.00018  1.0000
  C   C3        1.0  0.36871  0.38934  0.87982  1.0000
  C   C4        1.0  0.50928  0.48860  0.11999  1.0000
  C   C5        1.0  0.63130  0.61067  0.12018  1.0000
  C   C6        1.0  0.49073  0.51140  0.88001  1.0000
  C   C7        1.0  0.24431  0.24422  0.99979  1.0000
  C   C8        1.0  0.75569  0.75577  0.00021  1.0000
  C   C9        1.0  0.11830  0.13837  0.25613  1.0000
  C   C10       1.0  0.88170  0.86163  0.74387  1.0000
  C   C11       1.0  0.61593  0.16103  0.77649  1.0000
  C   C12       1.0  0.38406  0.83897  0.22351  1.0000
  C   C13       1.0  0.24934  0.13817  0.38679  1.0000
  C   C14       1.0  0.75066  0.86184  0.61321  1.0000
  C   C15       1.0  0.49246  0.14837  0.64022  1.0000
  C   C16       1.0  0.50754  0.85164  0.35979  1.0000
  C   C17       1.0  0.20713  0.03491  0.45015  1.0000
  C   C18       1.0  0.58393  0.75637  0.54978  1.0000
  C   C19       1.0  0.79286  0.96508  0.54985  1.0000
  C   C20       1.0  0.41606  0.24363  0.45022  1.0000
  C   C21       1.0  0.32493  0.03901  0.57329  1.0000
  C   C22       1.0  0.46498  0.75107  0.42664  1.0000
  C   C23       1.0  0.67507  0.96099  0.42670  1.0000
  C   C24       1.0  0.53502  0.24893  0.57336  1.0000
  O   O1        1.0  0.10419  0.04126  0.14495  1.0000
  O   O2        1.0  0.89581  0.95874  0.85506  1.0000
  O   O3        1.0  0.65042  0.18705  0.11515  1.0000
  O   O4        1.0  0.07184  0.53523  0.88487  1.0000
  O   O5        1.0  0.34958  0.81294  0.88485  1.0000
  O   O6        1.0  0.92816  0.46476  0.11512  1.0000
  O   O7        1.0  0.11712  0.28558  0.01112  1.0000
  O   O8        1.0  0.27441  0.10578  0.98854  1.0000
  O   O9        1.0  0.88289  0.71441  0.98888  1.0000
  O   O10       1.0  0.72560  0.89422  0.01145  1.0000
  O   O11       1.0  0.02652  0.23476  0.26086  1.0000
  O   O12       1.0  0.97347  0.76524  0.73914  1.0000
  O   O13       1.0  0.76585  0.26397  0.83435  1.0000
  O   O14       1.0  0.42941  0.93079  0.16562  1.0000
  O   O15       1.0  0.23415  0.73603  0.16565  1.0000
  O   O16       1.0  0.57059  0.06921  0.83438  1.0000
  F   F1        1.0  0.23995  0.28391  0.76156  1.0000
  F   F2        1.0  0.52179  0.47782  0.23806  1.0000
  F   F3        1.0  0.76005  0.71609  0.23844  1.0000
  F   F4        1.0  0.47820  0.52218  0.76194  1.0000
  F   F5        1.0  0.04871  0.92749  0.39106  1.0000
  F   F6        1.0  0.53523  0.65709  0.60870  1.0000
  F   F7        1.0  0.95129  0.07251  0.60894  1.0000
  F   F8        1.0  0.46477  0.34292  0.39131  1.0000
  F   F9        1.0  0.26936  0.93285  0.62484  1.0000
  F   F10       1.0  0.30710  0.64406  0.37499  1.0000
  F   F11       1.0  0.73064  0.06715  0.37515  1.0000
  F   F12       1.0  0.69290  0.35594  0.62502  1.0000
