data_image0
_chemical_formula_structural       Er2H8C24O16F12
_chemical_formula_sum              "Er2 H8 C24 O16 F12"
_cell_length_a       8.70205
_cell_length_b       8.71588
_cell_length_c       11.5116
_cell_angle_alpha    104.754
_cell_angle_beta     112.242
_cell_angle_gamma    99.3639

_space_group_name_H-M_alt    "P 1"
_space_group_IT_number       1

loop_
  _space_group_symop_operation_xyz
  'x, y, z'

loop_
  _atom_site_type_symbol
  _atom_site_label
  _atom_site_symmetry_multiplicity
  _atom_site_fract_x
  _atom_site_fract_y
  _atom_site_fract_z
  _atom_site_occupancy
  Er  Er1       1.0  0.64672  0.34014  0.98678  1.0000
  Er  Er2       1.0  0.35329  0.65986  0.01322  1.0000
  H   H1        1.0  0.46251  0.98389  0.81260  1.0000
  H   H2        1.0  0.17117  0.64941  0.18751  1.0000
  H   H3        1.0  0.53749  0.01612  0.18740  1.0000
  H   H4        1.0  0.82884  0.35059  0.81249  1.0000
  H   H5        1.0  0.59154  0.97467  0.94550  1.0000
  H   H6        1.0  0.02873  0.64570  0.05479  1.0000
  H   H7        1.0  0.40846  0.02534  0.05450  1.0000
  H   H8        1.0  0.97127  0.35431  0.94522  1.0000
  C   C1        1.0  0.61874  0.63236  0.25089  1.0000
  C   C2        1.0  0.38125  0.36763  0.74910  1.0000
  C   C3        1.0  0.74843  0.63676  0.38473  1.0000
  C   C4        1.0  0.25156  0.36323  0.61526  1.0000
  C   C5        1.0  0.70556  0.53346  0.44901  1.0000
  C   C6        1.0  0.08399  0.25575  0.55075  1.0000
  C   C7        1.0  0.29443  0.46654  0.55099  1.0000
  C   C8        1.0  0.91601  0.74424  0.44925  1.0000
  C   C9        1.0  0.82322  0.53887  0.57336  1.0000
  C   C10       1.0  0.96503  0.24907  0.42642  1.0000
  C   C11       1.0  0.17677  0.46114  0.42665  1.0000
  C   C12       1.0  0.03497  0.75092  0.57358  1.0000
  C   C13       1.0  0.99164  0.64977  0.64089  1.0000
  C   C14       1.0  0.00836  0.35022  0.35911  1.0000
  C   C15       1.0  0.11486  0.66348  0.77790  1.0000
  C   C16       1.0  0.88515  0.33652  0.22210  1.0000
  C   C17       1.0  0.86940  0.88832  0.88090  1.0000
  C   C18       1.0  0.00789  0.98860  0.11931  1.0000
  C   C19       1.0  0.13060  0.11169  0.11910  1.0000
  C   C20       1.0  0.99212  0.01141  0.88069  1.0000
  C   C21       1.0  0.87553  0.87511  0.00017  1.0000
  C   C22       1.0  0.12447  0.12490  0.99983  1.0000
  C   C23       1.0  0.74206  0.74158  0.00026  1.0000
  C   C24       1.0  0.25795  0.25843  0.99974  1.0000
  O   O1        1.0  0.06904  0.57117  0.83632  1.0000
  O   O2        1.0  0.73415  0.23261  0.16362  1.0000
  O   O3        1.0  0.93098  0.42884  0.16368  1.0000
  O   O4        1.0  0.26586  0.76740  0.83637  1.0000
  O   O5        1.0  0.61032  0.53390  0.14451  1.0000
  O   O6        1.0  0.38968  0.46609  0.85549  1.0000
  O   O7        1.0  0.77121  0.60212  0.98783  1.0000
  O   O8        1.0  0.61484  0.78303  0.01278  1.0000
  O   O9        1.0  0.22879  0.39789  0.01218  1.0000
  O   O10       1.0  0.38516  0.21697  0.98723  1.0000
  O   O11       1.0  0.52264  0.72649  0.24872  1.0000
  O   O12       1.0  0.47736  0.27350  0.75128  1.0000
  O   O13       1.0  0.57615  0.04310  0.88805  1.0000
  O   O14       1.0  0.15484  0.68760  0.11209  1.0000
  O   O15       1.0  0.42385  0.95690  0.11195  1.0000
  O   O16       1.0  0.84517  0.31240  0.88791  1.0000
  F   F1        1.0  0.54661  0.42396  0.38950  1.0000
  F   F2        1.0  0.03397  0.15610  0.61004  1.0000
  F   F3        1.0  0.45338  0.57604  0.61051  1.0000
  F   F4        1.0  0.96602  0.84388  0.38994  1.0000
  F   F5        1.0  0.76681  0.43194  0.62525  1.0000
  F   F6        1.0  0.80621  0.14053  0.37427  1.0000
  F   F7        1.0  0.23318  0.56808  0.37477  1.0000
  F   F8        1.0  0.19378  0.85944  0.62572  1.0000
  F   F9        1.0  0.74107  0.78217  0.76320  1.0000
  F   F10       1.0  0.01986  0.97812  0.23713  1.0000
  F   F11       1.0  0.25893  0.21784  0.23680  1.0000
  F   F12       1.0  0.98015  0.02188  0.76287  1.0000
