data_image0
_chemical_formula_structural       Dy2H8C24O16F12
_chemical_formula_sum              "Dy2 H8 C24 O16 F12"
_cell_length_a       8.81752
_cell_length_b       8.8201
_cell_length_c       11.1127
_cell_angle_alpha    107.695
_cell_angle_beta     109.786
_cell_angle_gamma    100.944

_space_group_name_H-M_alt    "P 1"
_space_group_IT_number       1

loop_
  _space_group_symop_operation_xyz
  'x, y, z'

loop_
  _atom_site_type_symbol
  _atom_site_label
  _atom_site_symmetry_multiplicity
  _atom_site_fract_x
  _atom_site_fract_y
  _atom_site_fract_z
  _atom_site_occupancy
  Dy  Dy1       1.0  0.87101  0.66300  0.53424  1.0000
  Dy  Dy2       1.0  0.12899  0.33700  0.46576  1.0000
  H   H1        1.0  0.60506  0.59406  0.64093  1.0000
  H   H2        1.0  0.95329  0.96469  0.35915  1.0000
  H   H3        1.0  0.39494  0.40594  0.35907  1.0000
  H   H4        1.0  0.04671  0.03531  0.64085  1.0000
  H   H5        1.0  0.71681  0.77648  0.74465  1.0000
  H   H6        1.0  0.03201  0.97220  0.25528  1.0000
  H   H7        1.0  0.28319  0.22352  0.25535  1.0000
  H   H8        1.0  0.96799  0.02780  0.74472  1.0000
  C   C1        1.0  0.51722  0.98013  0.62103  1.0000
  C   C2        1.0  0.35906  0.89642  0.37892  1.0000
  C   C3        1.0  0.48278  0.01987  0.37897  1.0000
  C   C4        1.0  0.64094  0.10358  0.62107  1.0000
  C   C5        1.0  0.37345  0.87359  0.49995  1.0000
  C   C6        1.0  0.62655  0.12641  0.50005  1.0000
  C   C7        1.0  0.23900  0.73920  0.50006  1.0000
  C   C8        1.0  0.76100  0.26080  0.49994  1.0000
  C   C9        1.0  0.62899  0.66483  0.29430  1.0000
  C   C10       1.0  0.37102  0.33517  0.70570  1.0000
  C   C11       1.0  0.50435  0.65233  0.15714  1.0000
  C   C12       1.0  0.49566  0.34767  0.84286  1.0000
  C   C13       1.0  0.54740  0.75217  0.08834  1.0000
  C   C14       1.0  0.66422  0.45955  0.91162  1.0000
  C   C15       1.0  0.45261  0.24783  0.91166  1.0000
  C   C16       1.0  0.33578  0.54044  0.08837  1.0000
  C   C17       1.0  0.42973  0.74378  0.96351  1.0000
  C   C18       1.0  0.78068  0.46682  0.03649  1.0000
  C   C19       1.0  0.57026  0.25622  0.03649  1.0000
  C   C20       1.0  0.21932  0.53318  0.96351  1.0000
  C   C21       1.0  0.26214  0.63652  0.89918  1.0000
  C   C22       1.0  0.73786  0.36348  0.10082  1.0000
  C   C23       1.0  0.13217  0.63560  0.76821  1.0000
  C   C24       1.0  0.86783  0.36440  0.23179  1.0000
  O   O1        1.0  0.12843  0.78660  0.53541  1.0000
  O   O2        1.0  0.25114  0.59336  0.46478  1.0000
  O   O3        1.0  0.87157  0.21340  0.46459  1.0000
  O   O4        1.0  0.74886  0.40664  0.53522  1.0000
  O   O5        1.0  0.68200  0.69788  0.64965  1.0000
  O   O6        1.0  0.04833  0.03267  0.35022  1.0000
  O   O7        1.0  0.31800  0.30213  0.35035  1.0000
  O   O8        1.0  0.95166  0.96733  0.64978  1.0000
  O   O9        1.0  0.58343  0.57061  0.35192  1.0000
  O   O10       1.0  0.21927  0.23191  0.64806  1.0000
  O   O11       1.0  0.41657  0.42939  0.64807  1.0000
  O   O12       1.0  0.78073  0.76809  0.35194  1.0000
  O   O13       1.0  0.04714  0.73404  0.78149  1.0000
  O   O14       1.0  0.95285  0.26596  0.21851  1.0000
  O   O15       1.0  0.11320  0.53631  0.64983  1.0000
  O   O16       1.0  0.88680  0.46370  0.35017  1.0000
  F   F1        1.0  0.54098  0.96403  0.74300  1.0000
  F   F2        1.0  0.22096  0.79867  0.25696  1.0000
  F   F3        1.0  0.45902  0.03597  0.25700  1.0000
  F   F4        1.0  0.77903  0.20134  0.74304  1.0000
  F   F5        1.0  0.70587  0.86120  0.13921  1.0000
  F   F6        1.0  0.72237  0.56711  0.86070  1.0000
  F   F7        1.0  0.29414  0.13880  0.86079  1.0000
  F   F8        1.0  0.27764  0.43288  0.13930  1.0000
  F   F9        1.0  0.48170  0.84202  0.90327  1.0000
  F   F10       1.0  0.93905  0.57917  0.09682  1.0000
  F   F11       1.0  0.51830  0.15798  0.09673  1.0000
  F   F12       1.0  0.06095  0.42083  0.90318  1.0000
