data_image0
_chemical_formula_structural       Ho2H8C24O16F12
_chemical_formula_sum              "Ho2 H8 C24 O16 F12"
_cell_length_a       8.77755
_cell_length_b       8.77777
_cell_length_c       11.1655
_cell_angle_alpha    107.223
_cell_angle_beta     110.235
_cell_angle_gamma    100.537

_space_group_name_H-M_alt    "P 1"
_space_group_IT_number       1

loop_
  _space_group_symop_operation_xyz
  'x, y, z'

loop_
  _atom_site_type_symbol
  _atom_site_label
  _atom_site_symmetry_multiplicity
  _atom_site_fract_x
  _atom_site_fract_y
  _atom_site_fract_z
  _atom_site_occupancy
  Ho  Ho1       1.0  0.36875  0.16113  0.53004  1.0000
  Ho  Ho2       1.0  0.63125  0.83887  0.46995  1.0000
  H   H1        1.0  0.53358  0.53557  0.63601  1.0000
  H   H2        1.0  0.89966  0.89721  0.36385  1.0000
  H   H3        1.0  0.46642  0.46443  0.36399  1.0000
  H   H4        1.0  0.10034  0.10279  0.63615  1.0000
  H   H5        1.0  0.49644  0.50087  0.75212  1.0000
  H   H6        1.0  0.74862  0.74425  0.24782  1.0000
  H   H7        1.0  0.50356  0.49912  0.24788  1.0000
  H   H8        1.0  0.25138  0.25575  0.75218  1.0000
  C   C1        1.0  0.37005  0.86351  0.23301  1.0000
  C   C2        1.0  0.62995  0.13650  0.76699  1.0000
  C   C3        1.0  0.23944  0.86351  0.10219  1.0000
  C   C4        1.0  0.76056  0.13650  0.89781  1.0000
  C   C5        1.0  0.07129  0.75693  0.03832  1.0000
  C   C6        1.0  0.71793  0.03225  0.96176  1.0000
  C   C7        1.0  0.92871  0.24306  0.96168  1.0000
  C   C8        1.0  0.28207  0.96776  0.03824  1.0000
  C   C9        1.0  0.95307  0.74984  0.91391  1.0000
  C   C10       1.0  0.83526  0.03846  0.08617  1.0000
  C   C11       1.0  0.04693  0.25016  0.08609  1.0000
  C   C12       1.0  0.16474  0.96154  0.91384  1.0000
  C   C13       1.0  0.99612  0.84964  0.84501  1.0000
  C   C14       1.0  0.00388  0.15036  0.15499  1.0000
  C   C15       1.0  0.87190  0.83583  0.70700  1.0000
  C   C16       1.0  0.12811  0.16417  0.29300  1.0000
  C   C17       1.0  0.73913  0.23931  0.50010  1.0000
  C   C18       1.0  0.26087  0.76069  0.49990  1.0000
  C   C19       1.0  0.87354  0.37365  0.49999  1.0000
  C   C20       1.0  0.12646  0.62635  0.50001  1.0000
  C   C21       1.0  0.86312  0.39141  0.37815  1.0000
  C   C22       1.0  0.01305  0.48494  0.62183  1.0000
  C   C23       1.0  0.13688  0.60859  0.62185  1.0000
  C   C24       1.0  0.98695  0.51506  0.37817  1.0000
  O   O1        1.0  0.38838  0.96212  0.35006  1.0000
  O   O2        1.0  0.61163  0.03788  0.64994  1.0000
  O   O3        1.0  0.45684  0.76496  0.22150  1.0000
  O   O4        1.0  0.54316  0.23505  0.77850  1.0000
  O   O5        1.0  0.91738  0.92933  0.64864  1.0000
  O   O6        1.0  0.27984  0.26821  0.35132  1.0000
  O   O7        1.0  0.08262  0.07067  0.35136  1.0000
  O   O8        1.0  0.72017  0.73179  0.64868  1.0000
  O   O9        1.0  0.62497  0.28555  0.53138  1.0000
  O   O10       1.0  0.75416  0.09393  0.46891  1.0000
  O   O11       1.0  0.37502  0.71445  0.46862  1.0000
  O   O12       1.0  0.24583  0.90607  0.53110  1.0000
  O   O13       1.0  0.44847  0.46375  0.65173  1.0000
  O   O14       1.0  0.81195  0.79656  0.34821  1.0000
  O   O15       1.0  0.55153  0.53625  0.34827  1.0000
  O   O16       1.0  0.18804  0.20344  0.65180  1.0000
  F   F1        1.0  0.01966  0.65799  0.09816  1.0000
  F   F2        1.0  0.55925  0.92077  0.90194  1.0000
  F   F3        1.0  0.98034  0.34200  0.90183  1.0000
  F   F4        1.0  0.44075  0.07925  0.09806  1.0000
  F   F5        1.0  0.79405  0.64139  0.86298  1.0000
  F   F6        1.0  0.77780  0.93038  0.13717  1.0000
  F   F7        1.0  0.20595  0.35860  0.13702  1.0000
  F   F8        1.0  0.22220  0.06963  0.86283  1.0000
  F   F9        1.0  0.72911  0.28841  0.25607  1.0000
  F   F10       1.0  0.03187  0.47298  0.74394  1.0000
  F   F11       1.0  0.27089  0.71158  0.74393  1.0000
  F   F12       1.0  0.96813  0.52702  0.25606  1.0000
