data_image0
_chemical_formula_structural       Ni2H44C60N12O8
_chemical_formula_sum              "Ni2 H44 C60 N12 O8"
_cell_length_a       11.1096
_cell_length_b       11.1095
_cell_length_c       12.9166
_cell_angle_alpha    109.314
_cell_angle_beta     109.314
_cell_angle_gamma    99.8935

_space_group_name_H-M_alt    "P 1"
_space_group_IT_number       1

loop_
  _space_group_symop_operation_xyz
  'x, y, z'

loop_
  _atom_site_type_symbol
  _atom_site_label
  _atom_site_symmetry_multiplicity
  _atom_site_fract_x
  _atom_site_fract_y
  _atom_site_fract_z
  _atom_site_occupancy
  Ni  Ni1       1.0  0.91986  0.07956  0.74917  1.0000
  Ni  Ni2       1.0  0.07957  0.91986  0.24917  1.0000
  H   H1        1.0  0.89642  0.53419  0.50421  1.0000
  H   H2        1.0  0.53418  0.89642  0.00421  1.0000
  H   H3        1.0  0.82291  0.56542  0.31485  1.0000
  H   H4        1.0  0.56541  0.82291  0.81485  1.0000
  H   H5        1.0  0.69212  0.36876  0.11766  1.0000
  H   H6        1.0  0.36875  0.69213  0.61766  1.0000
  H   H7        1.0  0.63330  0.13735  0.11215  1.0000
  H   H8        1.0  0.13734  0.63331  0.61215  1.0000
  H   H9        1.0  0.70397  0.10618  0.30059  1.0000
  H   H10       1.0  0.10618  0.70396  0.80059  1.0000
  H   H11       1.0  0.93969  0.50554  0.68136  1.0000
  H   H12       1.0  0.50554  0.93970  0.18135  1.0000
  H   H13       1.0  0.51588  0.76491  0.31508  1.0000
  H   H14       1.0  0.76489  0.51588  0.81508  1.0000
  H   H15       1.0  0.32977  0.61421  0.11547  1.0000
  H   H16       1.0  0.61419  0.32977  0.61546  1.0000
  H   H17       1.0  0.25215  0.36976  0.05539  1.0000
  H   H18       1.0  0.36974  0.25215  0.55538  1.0000
  H   H19       1.0  0.36070  0.27255  0.19817  1.0000
  H   H20       1.0  0.27252  0.36071  0.69817  1.0000
  H   H21       1.0  0.54662  0.42102  0.39685  1.0000
  H   H22       1.0  0.42101  0.54663  0.89685  1.0000
  H   H23       1.0  0.66933  0.59034  0.61310  1.0000
  H   H24       1.0  0.59035  0.66934  0.11310  1.0000
  H   H25       1.0  0.18483  0.12269  0.93689  1.0000
  H   H26       1.0  0.12269  0.18481  0.43688  1.0000
  H   H27       1.0  0.41494  0.13294  0.95177  1.0000
  H   H28       1.0  0.13294  0.41493  0.45176  1.0000
  H   H29       1.0  0.25891  0.04044  0.56888  1.0000
  H   H30       1.0  0.04045  0.25890  0.06888  1.0000
  H   H31       1.0  0.03710  0.02714  0.57004  1.0000
  H   H32       1.0  0.02714  0.03709  0.07004  1.0000
  H   H33       1.0  0.82145  0.16306  0.94433  1.0000
  H   H34       1.0  0.16308  0.82144  0.44434  1.0000
  H   H35       1.0  0.60498  0.17295  0.95622  1.0000
  H   H36       1.0  0.17297  0.60497  0.45622  1.0000
  H   H37       1.0  0.42308  0.01296  0.56573  1.0000
  H   H38       1.0  0.01296  0.42307  0.06573  1.0000
  H   H39       1.0  0.64386  0.01808  0.57089  1.0000
  H   H40       1.0  0.01808  0.64386  0.07090  1.0000
  H   H41       1.0  0.81208  0.08375  0.46407  1.0000
  H   H42       1.0  0.08375  0.81207  0.96408  1.0000
  H   H43       1.0  0.73608  0.85390  0.44795  1.0000
  H   H44       1.0  0.85389  0.73608  0.94794  1.0000
  C   C1        1.0  0.80746  0.31764  0.41616  1.0000
  C   C2        1.0  0.31763  0.80746  0.91616  1.0000
  C   C3        1.0  0.83933  0.44686  0.41815  1.0000
  C   C4        1.0  0.44685  0.83934  0.91815  1.0000
  C   C5        1.0  0.79776  0.46460  0.31157  1.0000
  C   C6        1.0  0.46460  0.79777  0.81157  1.0000
  C   C7        1.0  0.72419  0.35375  0.20063  1.0000
  C   C8        1.0  0.35375  0.72420  0.70063  1.0000
  C   C9        1.0  0.69161  0.22520  0.19779  1.0000
  C   C10       1.0  0.22519  0.69161  0.69779  1.0000
  C   C11       1.0  0.73203  0.20686  0.30420  1.0000
  C   C12       1.0  0.20686  0.73203  0.80420  1.0000
  C   C13       1.0  0.85458  0.30130  0.52896  1.0000
  C   C14       1.0  0.30130  0.85459  0.02897  1.0000
  C   C15       1.0  0.91800  0.39767  0.64861  1.0000
  C   C16       1.0  0.39767  0.91800  0.14861  1.0000
  C   C17       1.0  0.94515  0.32527  0.71962  1.0000
  C   C18       1.0  0.32528  0.94515  0.21962  1.0000
  C   C19       1.0  0.01340  0.37022  0.85266  1.0000
  C   C20       1.0  0.37022  0.01340  0.35266  1.0000
  C   C21       1.0  0.54534  0.60319  0.36992  1.0000
  C   C22       1.0  0.60318  0.54534  0.86992  1.0000
  C   C23       1.0  0.48363  0.65680  0.28931  1.0000
  C   C24       1.0  0.65678  0.48363  0.78931  1.0000
  C   C25       1.0  0.37949  0.57244  0.17681  1.0000
  C   C26       1.0  0.57241  0.37949  0.67681  1.0000
  C   C27       1.0  0.33521  0.43388  0.14298  1.0000
  C   C28       1.0  0.43386  0.33522  0.64297  1.0000
  C   C29       1.0  0.39500  0.38033  0.22308  1.0000
  C   C30       1.0  0.38030  0.39501  0.72308  1.0000
  C   C31       1.0  0.49907  0.46396  0.33578  1.0000
  C   C32       1.0  0.46395  0.49907  0.83577  1.0000
  C   C33       1.0  0.65585  0.69037  0.48737  1.0000
  C   C34       1.0  0.69036  0.65585  0.98737  1.0000
  C   C35       1.0  0.70631  0.67470  0.59522  1.0000
  C   C36       1.0  0.67471  0.70631  0.09522  1.0000
  C   C37       1.0  0.81086  0.79515  0.67776  1.0000
  C   C38       1.0  0.79516  0.81085  0.17777  1.0000
  C   C39       1.0  0.89933  0.84749  0.80816  1.0000
  C   C40       1.0  0.84751  0.89933  0.30817  1.0000
  C   C41       1.0  0.20691  0.10482  0.85803  1.0000
  C   C42       1.0  0.10482  0.20690  0.35803  1.0000
  C   C43       1.0  0.33519  0.11045  0.86499  1.0000
  C   C44       1.0  0.11045  0.33518  0.36498  1.0000
  C   C45       1.0  0.35863  0.08616  0.76081  1.0000
  C   C46       1.0  0.08616  0.35862  0.26081  1.0000
  C   C47       1.0  0.24855  0.05667  0.65313  1.0000
  C   C48       1.0  0.05668  0.24854  0.15312  1.0000
  C   C49       1.0  0.12334  0.05134  0.65342  1.0000
  C   C50       1.0  0.05134  0.12334  0.15342  1.0000
  C   C51       1.0  0.72993  0.13046  0.86294  1.0000
  C   C52       1.0  0.13048  0.72993  0.36294  1.0000
  C   C53       1.0  0.60807  0.13440  0.86840  1.0000
  C   C54       1.0  0.13442  0.60806  0.36840  1.0000
  C   C55       1.0  0.49163  0.08910  0.76151  1.0000
  C   C56       1.0  0.08911  0.49163  0.26151  1.0000
  C   C57       1.0  0.50630  0.04528  0.65294  1.0000
  C   C58       1.0  0.04528  0.50630  0.15294  1.0000
  C   C59       1.0  0.63191  0.04724  0.65502  1.0000
  C   C60       1.0  0.04725  0.63190  0.15502  1.0000
  N   N1        1.0  0.84628  0.17925  0.53421  1.0000
  N   N2        1.0  0.17925  0.84627  0.03421  1.0000
  N   N3        1.0  0.90076  0.19255  0.64864  1.0000
  N   N4        1.0  0.19255  0.90076  0.14865  1.0000
  N   N5        1.0  0.73195  0.81451  0.51008  1.0000
  N   N6        1.0  0.81451  0.73195  0.01008  1.0000
  N   N7        1.0  0.82557  0.87919  0.62428  1.0000
  N   N8        1.0  0.87920  0.82555  0.12428  1.0000
  N   N9        1.0  0.10249  0.07568  0.75410  1.0000
  N   N10       1.0  0.07568  0.10248  0.25410  1.0000
  N   N11       1.0  0.74204  0.08666  0.75757  1.0000
  N   N12       1.0  0.08667  0.74204  0.25757  1.0000
  O   O1        1.0  0.06639  0.49284  0.91928  1.0000
  O   O2        1.0  0.49285  0.06640  0.41928  1.0000
  O   O3        1.0  0.01228  0.27351  0.88859  1.0000
  O   O4        1.0  0.27352  0.01228  0.38859  1.0000
  O   O5        1.0  0.95157  0.97478  0.86508  1.0000
  O   O6        1.0  0.97480  0.95156  0.36508  1.0000
  O   O7        1.0  0.92029  0.76388  0.85497  1.0000
  O   O8        1.0  0.76389  0.92028  0.35497  1.0000
