data_image0
_chemical_formula_structural       Ca2H34C30N6O22
_chemical_formula_sum              "Ca2 H34 C30 N6 O22"
_cell_length_a       8.603
_cell_length_b       8.79397
_cell_length_c       13.1205
_cell_angle_alpha    108.461
_cell_angle_beta     95.2904
_cell_angle_gamma    100.538

_space_group_name_H-M_alt    "P 1"
_space_group_IT_number       1

loop_
  _space_group_symop_operation_xyz
  'x, y, z'

loop_
  _atom_site_type_symbol
  _atom_site_label
  _atom_site_symmetry_multiplicity
  _atom_site_fract_x
  _atom_site_fract_y
  _atom_site_fract_z
  _atom_site_occupancy
  Ca  Ca1       1.0  0.49839  0.85413  0.34472  1.0000
  Ca  Ca2       1.0  0.50161  0.14587  0.65528  1.0000
  H   H1        1.0  0.19272  0.86637  0.12482  1.0000
  H   H2        1.0  0.80729  0.13363  0.87518  1.0000
  H   H3        1.0  0.81521  0.61057  0.85359  1.0000
  H   H4        1.0  0.18479  0.38943  0.14641  1.0000
  H   H5        1.0  0.20110  0.98923  0.83542  1.0000
  H   H6        1.0  0.79890  0.01076  0.16458  1.0000
  H   H7        1.0  0.46965  0.37577  0.22645  1.0000
  H   H8        1.0  0.53035  0.62423  0.77355  1.0000
  H   H9        1.0  0.61024  0.28540  0.15303  1.0000
  H   H10       1.0  0.38976  0.71460  0.84697  1.0000
  H   H11       1.0  0.97959  0.61448  0.30608  1.0000
  H   H12       1.0  0.02041  0.38552  0.69392  1.0000
  H   H13       1.0  0.82954  0.48513  0.19451  1.0000
  H   H14       1.0  0.17046  0.51487  0.80549  1.0000
  H   H15       1.0  0.81044  0.73867  0.52214  1.0000
  H   H16       1.0  0.18956  0.26133  0.47786  1.0000
  H   H17       1.0  0.95205  0.91053  0.51985  1.0000
  H   H18       1.0  0.04795  0.08947  0.48015  1.0000
  H   H19       1.0  0.34657  0.05307  0.18779  1.0000
  H   H20       1.0  0.65343  0.94693  0.81221  1.0000
  H   H21       1.0  0.06856  0.77802  0.20329  1.0000
  H   H22       1.0  0.93145  0.22198  0.79671  1.0000
  H   H23       1.0  0.07202  0.95851  0.69935  1.0000
  H   H24       1.0  0.92798  0.04149  0.30065  1.0000
  H   H25       1.0  0.68035  0.49405  0.35737  1.0000
  H   H26       1.0  0.31965  0.50595  0.64263  1.0000
  H   H27       1.0  0.31437  0.68551  0.47572  1.0000
  H   H28       1.0  0.68563  0.31449  0.52428  1.0000
  H   H29       1.0  0.27963  0.54280  0.36400  1.0000
  H   H30       1.0  0.72037  0.45720  0.63600  1.0000
  H   H31       1.0  0.34837  0.61355  0.09966  1.0000
  H   H32       1.0  0.65163  0.38645  0.90034  1.0000
  H   H33       1.0  0.49814  0.74802  0.10644  1.0000
  H   H34       1.0  0.50186  0.25197  0.89356  1.0000
  C   C1        1.0  0.21003  0.94025  0.98458  1.0000
  C   C2        1.0  0.78997  0.05975  0.01542  1.0000
  C   C3        1.0  0.13784  0.84617  0.04243  1.0000
  C   C4        1.0  0.86216  0.15383  0.95756  1.0000
  C   C5        1.0  0.99542  0.72778  0.99647  1.0000
  C   C6        1.0  0.00458  0.27221  0.00353  1.0000
  C   C7        1.0  0.92800  0.69989  0.88964  1.0000
  C   C8        1.0  0.07200  0.30011  0.11036  1.0000
  C   C9        1.0  0.00141  0.79029  0.82939  1.0000
  C   C10       1.0  0.99859  0.20971  0.17061  1.0000
  C   C11       1.0  0.14249  0.91121  0.87726  1.0000
  C   C12       1.0  0.85751  0.08879  0.12273  1.0000
  C   C13       1.0  0.34959  0.08275  0.03696  1.0000
  C   C14       1.0  0.65041  0.91725  0.96304  1.0000
  C   C15       1.0  0.52019  0.26546  0.20474  1.0000
  C   C16       1.0  0.47981  0.73454  0.79526  1.0000
  C   C17       1.0  0.60139  0.25084  0.30767  1.0000
  C   C18       1.0  0.39861  0.74916  0.69233  1.0000
  C   C19       1.0  0.90869  0.63724  0.06105  1.0000
  C   C20       1.0  0.09131  0.36276  0.93895  1.0000
  C   C21       1.0  0.89132  0.61336  0.23929  1.0000
  C   C22       1.0  0.10868  0.38665  0.76071  1.0000
  C   C23       1.0  0.76810  0.70799  0.28830  1.0000
  C   C24       1.0  0.23190  0.29202  0.71170  1.0000
  C   C25       1.0  0.91365  0.76485  0.71983  1.0000
  C   C26       1.0  0.08635  0.23515  0.28017  1.0000
  C   C27       1.0  0.87628  0.86374  0.57099  1.0000
  C   C28       1.0  0.12372  0.13626  0.42901  1.0000
  C   C29       1.0  0.75197  0.96842  0.60027  1.0000
  C   C30       1.0  0.24803  0.03158  0.39973  1.0000
  N   N1        1.0  0.39940  0.11995  0.14441  1.0000
  N   N2        1.0  0.60060  0.88005  0.85559  1.0000
  N   N3        1.0  0.97345  0.68011  0.16712  1.0000
  N   N4        1.0  0.02655  0.31990  0.83289  1.0000
  N   N5        1.0  0.97487  0.86179  0.66508  1.0000
  N   N6        1.0  0.02513  0.13821  0.33491  1.0000
  O   O1        1.0  0.41225  0.16727  0.98484  1.0000
  O   O2        1.0  0.58775  0.83273  0.01516  1.0000
  O   O3        1.0  0.68884  0.38835  0.37985  1.0000
  O   O4        1.0  0.31116  0.61165  0.62016  1.0000
  O   O5        1.0  0.58853  0.11893  0.32457  1.0000
  O   O6        1.0  0.41147  0.88107  0.67543  1.0000
  O   O7        1.0  0.78357  0.52810  0.01987  1.0000
  O   O8        1.0  0.21643  0.47190  0.98013  1.0000
  O   O9        1.0  0.66523  0.63838  0.33441  1.0000
  O   O10       1.0  0.33477  0.36162  0.66559  1.0000
  O   O11       1.0  0.76782  0.84896  0.28395  1.0000
  O   O12       1.0  0.23218  0.15104  0.71606  1.0000
  O   O13       1.0  0.78259  0.66158  0.68177  1.0000
  O   O14       1.0  0.21742  0.33842  0.31823  1.0000
  O   O15       1.0  0.75508  0.05532  0.69895  1.0000
  O   O16       1.0  0.24492  0.94468  0.30105  1.0000
  O   O17       1.0  0.64779  0.96345  0.52367  1.0000
  O   O18       1.0  0.35221  0.03655  0.47634  1.0000
  O   O19       1.0  0.31268  0.66466  0.39782  1.0000
  O   O20       1.0  0.68732  0.33534  0.60218  1.0000
  O   O21       1.0  0.43079  0.70487  0.15254  1.0000
  O   O22       1.0  0.56921  0.29513  0.84746  1.0000
