data_image0
_chemical_formula_structural       Cu4H44C52I4N4
_chemical_formula_sum              "Cu4 H44 C52 I4 N4"
_cell_length_a       4.006
_cell_length_b       15.7572
_cell_length_c       18.9971
_cell_angle_alpha    104.098
_cell_angle_beta     89.9987
_cell_angle_gamma    90.0005

_space_group_name_H-M_alt    "P 1"
_space_group_IT_number       1

loop_
  _space_group_symop_operation_xyz
  'x, y, z'

loop_
  _atom_site_type_symbol
  _atom_site_label
  _atom_site_symmetry_multiplicity
  _atom_site_fract_x
  _atom_site_fract_y
  _atom_site_fract_z
  _atom_site_occupancy
  Cu  Cu1       1.0  0.93805  0.98524  0.79252  1.0000
  Cu  Cu2       1.0  0.43805  0.01477  0.70748  1.0000
  Cu  Cu3       1.0  0.06194  0.01476  0.20748  1.0000
  Cu  Cu4       1.0  0.56194  0.98523  0.29252  1.0000
  H   H1        1.0  0.70359  0.80129  0.76867  1.0000
  H   H2        1.0  0.20352  0.19872  0.73134  1.0000
  H   H3        1.0  0.29646  0.19871  0.23133  1.0000
  H   H4        1.0  0.79642  0.80128  0.26867  1.0000
  H   H5        1.0  0.65834  0.68905  0.84041  1.0000
  H   H6        1.0  0.15827  0.31095  0.65958  1.0000
  H   H7        1.0  0.34176  0.31094  0.15958  1.0000
  H   H8        1.0  0.84168  0.68905  0.34042  1.0000
  H   H9        1.0  0.15939  0.87147  0.01622  1.0000
  H   H10       1.0  0.65935  0.12853  0.48378  1.0000
  H   H11       1.0  0.84065  0.12853  0.98378  1.0000
  H   H12       1.0  0.34062  0.87147  0.51622  1.0000
  H   H13       1.0  0.18751  0.97399  0.93679  1.0000
  H   H14       1.0  0.68745  0.02601  0.56321  1.0000
  H   H15       1.0  0.81251  0.02601  0.06320  1.0000
  H   H16       1.0  0.31251  0.97399  0.43680  1.0000
  H   H17       1.0  0.73426  0.64517  0.95189  1.0000
  H   H18       1.0  0.23421  0.35483  0.54811  1.0000
  H   H19       1.0  0.26580  0.35483  0.04811  1.0000
  H   H20       1.0  0.76573  0.64517  0.45189  1.0000
  H   H21       1.0  0.13401  0.77326  0.07050  1.0000
  H   H22       1.0  0.63399  0.22673  0.42949  1.0000
  H   H23       1.0  0.86603  0.22673  0.92949  1.0000
  H   H24       1.0  0.36597  0.77327  0.57051  1.0000
  H   H25       1.0  0.98859  0.48688  0.21493  1.0000
  H   H26       1.0  0.48861  0.51311  0.28506  1.0000
  H   H27       1.0  0.01141  0.51312  0.78506  1.0000
  H   H28       1.0  0.51141  0.48689  0.71494  1.0000
  H   H29       1.0  0.26234  0.63301  0.25607  1.0000
  H   H30       1.0  0.76238  0.36698  0.24393  1.0000
  H   H31       1.0  0.73764  0.36698  0.74393  1.0000
  H   H32       1.0  0.23765  0.63302  0.75608  1.0000
  H   H33       1.0  0.25786  0.73661  0.17669  1.0000
  H   H34       1.0  0.75791  0.26338  0.32331  1.0000
  H   H35       1.0  0.74211  0.26339  0.82332  1.0000
  H   H36       1.0  0.24209  0.73662  0.67669  1.0000
  H   H37       1.0  0.69363  0.55105  0.01642  1.0000
  H   H38       1.0  0.19362  0.44895  0.48358  1.0000
  H   H39       1.0  0.30637  0.44895  0.98358  1.0000
  H   H40       1.0  0.80634  0.55106  0.51642  1.0000
  H   H41       1.0  0.70004  0.44749  0.09521  1.0000
  H   H42       1.0  0.20005  0.55251  0.40479  1.0000
  H   H43       1.0  0.29997  0.55251  0.90479  1.0000
  H   H44       1.0  0.79996  0.44750  0.59521  1.0000
  C   C1        1.0  0.80068  0.81386  0.82394  1.0000
  C   C2        1.0  0.30064  0.18615  0.67606  1.0000
  C   C3        1.0  0.19936  0.18614  0.17606  1.0000
  C   C4        1.0  0.69932  0.81386  0.32394  1.0000
  C   C5        1.0  0.77704  0.75166  0.86436  1.0000
  C   C6        1.0  0.27699  0.24834  0.63564  1.0000
  C   C7        1.0  0.22303  0.24833  0.13563  1.0000
  C   C8        1.0  0.72296  0.75166  0.36436  1.0000
  C   C9        1.0  0.90160  0.76939  0.93580  1.0000
  C   C10       1.0  0.40155  0.23061  0.56421  1.0000
  C   C11       1.0  0.09845  0.23060  0.06420  1.0000
  C   C12       1.0  0.59841  0.76940  0.43580  1.0000
  C   C13       1.0  0.05244  0.85203  0.96188  1.0000
  C   C14       1.0  0.55239  0.14796  0.53813  1.0000
  C   C15       1.0  0.94760  0.14796  0.03812  1.0000
  C   C16       1.0  0.44757  0.85204  0.46188  1.0000
  C   C17       1.0  0.06820  0.91022  0.91793  1.0000
  C   C18       1.0  0.56817  0.08979  0.58207  1.0000
  C   C19       1.0  0.93180  0.08978  0.08207  1.0000
  C   C20       1.0  0.43180  0.91022  0.41793  1.0000
  C   C21       1.0  0.87039  0.70454  0.97817  1.0000
  C   C22       1.0  0.37035  0.29546  0.52183  1.0000
  C   C23       1.0  0.12966  0.29546  0.02182  1.0000
  C   C24       1.0  0.62960  0.70455  0.47817  1.0000
  C   C25       1.0  0.99641  0.71357  0.04574  1.0000
  C   C26       1.0  0.49637  0.28642  0.45425  1.0000
  C   C27       1.0  0.00364  0.28643  0.95426  1.0000
  C   C28       1.0  0.50358  0.71358  0.54575  1.0000
  C   C29       1.0  0.98147  0.53319  0.18070  1.0000
  C   C30       1.0  0.48149  0.46680  0.31929  1.0000
  C   C31       1.0  0.01852  0.46680  0.81930  1.0000
  C   C32       1.0  0.51854  0.53320  0.68071  1.0000
  C   C33       1.0  0.13445  0.61492  0.20384  1.0000
  C   C34       1.0  0.63448  0.38506  0.29615  1.0000
  C   C35       1.0  0.86553  0.38507  0.79616  1.0000
  C   C36       1.0  0.36554  0.61494  0.70385  1.0000
  C   C37       1.0  0.13277  0.67334  0.15945  1.0000
  C   C38       1.0  0.63278  0.32665  0.34055  1.0000
  C   C39       1.0  0.86723  0.32666  0.84055  1.0000
  C   C40       1.0  0.36721  0.67335  0.65946  1.0000
  C   C41       1.0  0.97760  0.65123  0.09077  1.0000
  C   C42       1.0  0.47758  0.34876  0.40922  1.0000
  C   C43       1.0  0.02242  0.34877  0.90923  1.0000
  C   C44       1.0  0.52239  0.65124  0.59078  1.0000
  C   C45       1.0  0.81807  0.56933  0.06889  1.0000
  C   C46       1.0  0.31805  0.43066  0.43110  1.0000
  C   C47       1.0  0.18196  0.43067  0.93110  1.0000
  C   C48       1.0  0.68191  0.56935  0.56890  1.0000
  C   C49       1.0  0.82156  0.51098  0.11324  1.0000
  C   C50       1.0  0.32159  0.48901  0.38676  1.0000
  C   C51       1.0  0.17843  0.48902  0.88676  1.0000
  C   C52       1.0  0.67844  0.51100  0.61325  1.0000
  I   I1        1.0  0.93214  0.90614  0.65511  1.0000
  I   I2        1.0  0.43214  0.09388  0.84489  1.0000
  I   I3        1.0  0.06784  0.09387  0.34489  1.0000
  I   I4        1.0  0.56786  0.90612  0.15511  1.0000
  N   N1        1.0  0.94299  0.89295  0.84977  1.0000
  N   N2        1.0  0.44296  0.10705  0.65024  1.0000
  N   N3        1.0  0.05701  0.10704  0.15023  1.0000
  N   N4        1.0  0.55701  0.89295  0.34976  1.0000
