data_image0
_chemical_formula_structural       Cd8H20C28N48O8
_chemical_formula_sum              "Cd8 H20 C28 N48 O8"
_cell_length_a       9.64592
_cell_length_b       13.9343
_cell_length_c       13.9344
_cell_angle_alpha    83.1172
_cell_angle_beta     69.7489
_cell_angle_gamma    69.7489

_space_group_name_H-M_alt    "P 1"
_space_group_IT_number       1

loop_
  _space_group_symop_operation_xyz
  'x, y, z'

loop_
  _atom_site_type_symbol
  _atom_site_label
  _atom_site_symmetry_multiplicity
  _atom_site_fract_x
  _atom_site_fract_y
  _atom_site_fract_z
  _atom_site_occupancy
  Cd  Cd1       1.0  0.05063  0.40927  0.84525  1.0000
  Cd  Cd2       1.0  0.30528  0.59066  0.15472  1.0000
  Cd  Cd3       1.0  0.53996  0.15475  0.40935  1.0000
  Cd  Cd4       1.0  0.10395  0.84526  0.59069  1.0000
  Cd  Cd5       1.0  0.55063  0.84525  0.40927  1.0000
  Cd  Cd6       1.0  0.80528  0.15472  0.59066  1.0000
  Cd  Cd7       1.0  0.03996  0.40935  0.15475  1.0000
  Cd  Cd8       1.0  0.60394  0.59069  0.84526  1.0000
  H   H1        1.0  0.21226  0.58917  0.67945  1.0000
  H   H2        1.0  0.48105  0.41072  0.32044  1.0000
  H   H3        1.0  0.19880  0.32050  0.58909  1.0000
  H   H4        1.0  0.10799  0.67962  0.41074  1.0000
  H   H5        1.0  0.71225  0.67945  0.58917  1.0000
  H   H6        1.0  0.98104  0.32044  0.41072  1.0000
  H   H7        1.0  0.69880  0.58909  0.32050  1.0000
  H   H8        1.0  0.60798  0.41074  0.67962  1.0000
  H   H9        1.0  0.36482  0.49994  0.77022  1.0000
  H   H10       1.0  0.63502  0.50012  0.22978  1.0000
  H   H11       1.0  0.13502  0.22978  0.50012  1.0000
  H   H12       1.0  0.86482  0.77022  0.49994  1.0000
  H   H13       1.0  0.12609  0.09622  0.16428  1.0000
  H   H14       1.0  0.38666  0.90373  0.83583  1.0000
  H   H15       1.0  0.77816  0.83575  0.09614  1.0000
  H   H16       1.0  0.70970  0.16437  0.90382  1.0000
  H   H17       1.0  0.62609  0.16428  0.09623  1.0000
  H   H18       1.0  0.88666  0.83583  0.90373  1.0000
  H   H19       1.0  0.27815  0.09614  0.83576  1.0000
  H   H20       1.0  0.20970  0.90382  0.16437  1.0000
  C   C1        1.0  0.08661  0.61656  0.69714  1.0000
  C   C2        1.0  0.40042  0.38337  0.30278  1.0000
  C   C3        1.0  0.29703  0.30279  0.61651  1.0000
  C   C4        1.0  0.21597  0.69726  0.38340  1.0000
  C   C5        1.0  0.58660  0.69715  0.61657  1.0000
  C   C6        1.0  0.90041  0.30278  0.38337  1.0000
  C   C7        1.0  0.79703  0.61651  0.30279  1.0000
  C   C8        1.0  0.71597  0.38340  0.69726  1.0000
  C   C9        1.0  0.32356  0.49994  0.85276  1.0000
  C   C10       1.0  0.67631  0.50009  0.14725  1.0000
  C   C11       1.0  0.17631  0.14725  0.50009  1.0000
  C   C12       1.0  0.82356  0.85276  0.49994  1.0000
  C   C13       1.0  0.14000  0.22013  0.00004  1.0000
  C   C14       1.0  0.35996  0.77983  0.00007  1.0000
  C   C15       1.0  0.64000  0.00004  0.22013  1.0000
  C   C16       1.0  0.85995  0.00007  0.77983  1.0000
  C   C17       1.0  0.19710  0.10615  0.00002  1.0000
  C   C18       1.0  0.30312  0.89384  0.00008  1.0000
  C   C19       1.0  0.69710  0.00002  0.10615  1.0000
  C   C20       1.0  0.80312  0.00009  0.89384  1.0000
  C   C21       1.0  0.17955  0.05307  0.09304  1.0000
  C   C22       1.0  0.32573  0.94691  0.90706  1.0000
  C   C23       1.0  0.76779  0.90703  0.05304  1.0000
  C   C24       1.0  0.72758  0.09309  0.94694  1.0000
  C   C25       1.0  0.67956  0.09304  0.05307  1.0000
  C   C26       1.0  0.82572  0.90706  0.94691  1.0000
  C   C27       1.0  0.26779  0.05304  0.90703  1.0000
  C   C28       1.0  0.22758  0.94694  0.09309  1.0000
  N   N1        1.0  0.98937  0.56825  0.75652  1.0000
  N   N2        1.0  0.31424  0.43168  0.24341  1.0000
  N   N3        1.0  0.44256  0.24341  0.56826  1.0000
  N   N4        1.0  0.25386  0.75662  0.43171  1.0000
  N   N5        1.0  0.48937  0.75652  0.56825  1.0000
  N   N6        1.0  0.81424  0.24341  0.43168  1.0000
  N   N7        1.0  0.94257  0.56826  0.24341  1.0000
  N   N8        1.0  0.75385  0.43171  0.75662  1.0000
  N   N9        1.0  0.84510  0.63076  0.75896  1.0000
  N   N10       1.0  0.23485  0.36919  0.24104  1.0000
  N   N11       1.0  0.52424  0.24101  0.63082  1.0000
  N   N12       1.0  0.39578  0.75895  0.36925  1.0000
  N   N13       1.0  0.34510  0.75896  0.63076  1.0000
  N   N14       1.0  0.73485  0.24104  0.36918  1.0000
  N   N15       1.0  0.02424  0.63082  0.24101  1.0000
  N   N16       1.0  0.89578  0.36925  0.75895  1.0000
  N   N17       1.0  0.85502  0.71281  0.70344  1.0000
  N   N18       1.0  0.27128  0.28715  0.29659  1.0000
  N   N19       1.0  0.43219  0.29653  0.71285  1.0000
  N   N20       1.0  0.44140  0.70339  0.28723  1.0000
  N   N21       1.0  0.35502  0.70344  0.71282  1.0000
  N   N22       1.0  0.77128  0.29659  0.28715  1.0000
  N   N23       1.0  0.93219  0.71285  0.29653  1.0000
  N   N24       1.0  0.94140  0.28723  0.70339  1.0000
  N   N25       1.0  0.00734  0.70550  0.66331  1.0000
  N   N26       1.0  0.37617  0.29447  0.33668  1.0000
  N   N27       1.0  0.28724  0.33664  0.70547  1.0000
  N   N28       1.0  0.32916  0.66333  0.29452  1.0000
  N   N29       1.0  0.50733  0.66331  0.70550  1.0000
  N   N30       1.0  0.87617  0.33668  0.29447  1.0000
  N   N31       1.0  0.78724  0.70547  0.33664  1.0000
  N   N32       1.0  0.82916  0.29452  0.66333  1.0000
  N   N33       1.0  0.20226  0.47087  0.91054  1.0000
  N   N34       1.0  0.58372  0.52916  0.08947  1.0000
  N   N35       1.0  0.32670  0.08947  0.47094  1.0000
  N   N36       1.0  0.88706  0.91052  0.52907  1.0000
  N   N37       1.0  0.70225  0.91054  0.47087  1.0000
  N   N38       1.0  0.08372  0.08946  0.52916  1.0000
  N   N39       1.0  0.82670  0.47094  0.08947  1.0000
  N   N40       1.0  0.38706  0.52907  0.91052  1.0000
  N   N41       1.0  0.19095  0.48274  0.00725  1.0000
  N   N42       1.0  0.68097  0.51726  0.99275  1.0000
  N   N43       1.0  0.32617  0.99276  0.48274  1.0000
  N   N44       1.0  0.80165  0.00724  0.51725  1.0000
  N   N45       1.0  0.69095  0.00725  0.48274  1.0000
  N   N46       1.0  0.18097  0.99275  0.51726  1.0000
  N   N47       1.0  0.82617  0.48274  0.99276  1.0000
  N   N48       1.0  0.30165  0.51725  0.00724  1.0000
  O   O1        1.0  0.08596  0.26312  0.92859  1.0000
  O   O2        1.0  0.27742  0.73686  0.07154  1.0000
  O   O3        1.0  0.65094  0.07149  0.26316  1.0000
  O   O4        1.0  0.98538  0.92859  0.73680  1.0000
  O   O5        1.0  0.58596  0.92859  0.26312  1.0000
  O   O6        1.0  0.77742  0.07154  0.73686  1.0000
  O   O7        1.0  0.15094  0.26317  0.07149  1.0000
  O   O8        1.0  0.48538  0.73680  0.92858  1.0000
