data_image0
_chemical_formula_structural       Zn4H20C6S4N4
_chemical_formula_sum              "Zn4 H20 C6 S4 N4"
_cell_length_a       6.13319
_cell_length_b       6.28331
_cell_length_c       10.4141
_cell_angle_alpha    107.568
_cell_angle_beta     90.0001
_cell_angle_gamma    90.0001

_space_group_name_H-M_alt    "P 1"
_space_group_IT_number       1

loop_
  _space_group_symop_operation_xyz
  'x, y, z'

loop_
  _atom_site_type_symbol
  _atom_site_label
  _atom_site_symmetry_multiplicity
  _atom_site_fract_x
  _atom_site_fract_y
  _atom_site_fract_z
  _atom_site_occupancy
  Zn  Zn1       1.0  0.11525  0.55917  0.42125  1.0000
  Zn  Zn2       1.0  0.61525  0.44083  0.57875  1.0000
  Zn  Zn3       1.0  0.61526  0.86217  0.42122  1.0000
  Zn  Zn4       1.0  0.11526  0.13783  0.57879  1.0000
  H   H1        1.0  0.19433  0.51705  0.12978  1.0000
  H   H2        1.0  0.69434  0.48296  0.87022  1.0000
  H   H3        1.0  0.69427  0.61289  0.12978  1.0000
  H   H4        1.0  0.19427  0.38711  0.87022  1.0000
  H   H5        1.0  0.00171  0.30599  0.12309  1.0000
  H   H6        1.0  0.50171  0.69400  0.87690  1.0000
  H   H7        1.0  0.50172  0.81734  0.12315  1.0000
  H   H8        1.0  0.00172  0.18265  0.87685  1.0000
  H   H9        1.0  0.28006  0.01517  0.00002  1.0000
  H   H10       1.0  0.78005  0.98483  0.99998  1.0000
  H   H11       1.0  0.46238  0.23400  0.99999  1.0000
  H   H12       1.0  0.96238  0.76602  0.00001  1.0000
  H   H13       1.0  0.42540  0.35960  0.26665  1.0000
  H   H14       1.0  0.92540  0.64039  0.73335  1.0000
  H   H15       1.0  0.92545  0.90713  0.26669  1.0000
  H   H16       1.0  0.42546  0.09287  0.73331  1.0000
  H   H17       1.0  0.24173  0.16481  0.26424  1.0000
  H   H18       1.0  0.74173  0.83519  0.73576  1.0000
  H   H19       1.0  0.74181  0.09962  0.26439  1.0000
  H   H20       1.0  0.24181  0.90038  0.73562  1.0000
  C   C1        1.0  0.17794  0.34071  0.12634  1.0000
  C   C2        1.0  0.67794  0.65928  0.87366  1.0000
  C   C3        1.0  0.67795  0.78582  0.12641  1.0000
  C   C4        1.0  0.17796  0.21417  0.87360  1.0000
  C   C5        1.0  0.28814  0.19038  0.99998  1.0000
  C   C6        1.0  0.78813  0.80963  0.00002  1.0000
  S   S1        1.0  0.74309  0.49740  0.38238  1.0000
  S   S2        1.0  0.24309  0.50259  0.61762  1.0000
  S   S3        1.0  0.24309  0.88499  0.38235  1.0000
  S   S4        1.0  0.74309  0.11501  0.61765  1.0000
  N   N1        1.0  0.26105  0.32247  0.25480  1.0000
  N   N2        1.0  0.76105  0.67753  0.74520  1.0000
  N   N3        1.0  0.76112  0.93249  0.25487  1.0000
  N   N4        1.0  0.26112  0.06750  0.74513  1.0000
