data_image0
_chemical_formula_structural       Cu2H40C32N20
_chemical_formula_sum              "Cu2 H40 C32 N20"
_cell_length_a       9.73304
_cell_length_b       9.81053
_cell_length_c       11.3989
_cell_angle_alpha    72.8624
_cell_angle_beta     67.0076
_cell_angle_gamma    78.1238

_space_group_name_H-M_alt    "P 1"
_space_group_IT_number       1

loop_
  _space_group_symop_operation_xyz
  'x, y, z'

loop_
  _atom_site_type_symbol
  _atom_site_label
  _atom_site_symmetry_multiplicity
  _atom_site_fract_x
  _atom_site_fract_y
  _atom_site_fract_z
  _atom_site_occupancy
  Cu  Cu1       1.0  0.50000  1.00000  1.00000  1.0000
  Cu  Cu2       1.0  1.00000  0.50000  0.50000  1.0000
  H   H1        1.0  0.36495  0.78481  0.14416  1.0000
  H   H2        1.0  0.63505  0.21519  0.85584  1.0000
  H   H3        1.0  0.34109  0.82446  0.99954  1.0000
  H   H4        1.0  0.65891  0.17554  0.00046  1.0000
  H   H5        1.0  0.35727  0.16963  0.85385  1.0000
  H   H6        1.0  0.64273  0.83037  0.14615  1.0000
  H   H7        1.0  0.40418  0.26415  0.92543  1.0000
  H   H8        1.0  0.59582  0.73585  0.07457  1.0000
  H   H9        1.0  0.16831  0.93526  0.23535  1.0000
  H   H10       1.0  0.83168  0.06474  0.76465  1.0000
  H   H11       1.0  0.10169  0.83602  0.16493  1.0000
  H   H12       1.0  0.89831  0.16398  0.83506  1.0000
  H   H13       1.0  0.00158  0.08073  0.11250  1.0000
  H   H14       1.0  0.99842  0.91927  0.88749  1.0000
  H   H15       1.0  0.13026  0.03787  0.96653  1.0000
  H   H16       1.0  0.86974  0.96213  0.03347  1.0000
  H   H17       1.0  0.13848  0.28215  0.99193  1.0000
  H   H18       1.0  0.86152  0.71785  0.00807  1.0000
  H   H19       1.0  0.20163  0.19856  0.12595  1.0000
  H   H20       1.0  0.79837  0.80143  0.87405  1.0000
  H   H21       1.0  0.24842  0.53584  0.50606  1.0000
  H   H22       1.0  0.75158  0.46416  0.49394  1.0000
  H   H23       1.0  0.19324  0.38331  0.60884  1.0000
  H   H24       1.0  0.80676  0.61668  0.39116  1.0000
  H   H25       1.0  0.08639  0.67038  0.66100  1.0000
  H   H26       1.0  0.91361  0.32962  0.33901  1.0000
  H   H27       1.0  0.21494  0.54242  0.72271  1.0000
  H   H28       1.0  0.78507  0.45757  0.27730  1.0000
  H   H29       1.0  0.97520  0.52267  0.89583  1.0000
  H   H30       1.0  0.02481  0.47732  0.10418  1.0000
  H   H31       1.0  0.01550  0.36889  0.83381  1.0000
  H   H32       1.0  0.98449  0.63111  0.16619  1.0000
  H   H33       1.0  0.74855  0.47923  0.88151  1.0000
  H   H34       1.0  0.25145  0.52077  0.11850  1.0000
  H   H35       1.0  0.81072  0.63832  0.76176  1.0000
  H   H36       1.0  0.18929  0.36168  0.23824  1.0000
  H   H37       1.0  0.84280  0.35524  0.70869  1.0000
  H   H38       1.0  0.15720  0.64476  0.29131  1.0000
  H   H39       1.0  0.73410  0.50154  0.67111  1.0000
  H   H40       1.0  0.26590  0.49846  0.32889  1.0000
  C   C1        1.0  0.26763  0.82560  0.79010  1.0000
  C   C2        1.0  0.73238  0.17441  0.20990  1.0000
  C   C3        1.0  0.35469  0.05951  0.31972  1.0000
  C   C4        1.0  0.64531  0.94049  0.68028  1.0000
  C   C5        1.0  0.15047  0.14186  0.49257  1.0000
  C   C6        1.0  0.84953  0.85814  0.50743  1.0000
  C   C7        1.0  0.25742  0.07745  0.70272  1.0000
  C   C8        1.0  0.74259  0.92255  0.29729  1.0000
  C   C9        1.0  0.48596  0.70144  0.58232  1.0000
  C   C10       1.0  0.51404  0.29856  0.41768  1.0000
  C   C11       1.0  0.39416  0.75500  0.40641  1.0000
  C   C12       1.0  0.60584  0.24500  0.59359  1.0000
  C   C13       1.0  0.31677  0.92452  0.54927  1.0000
  C   C14       1.0  0.68323  0.07548  0.45073  1.0000
  C   C15       1.0  0.27371  0.03991  0.45496  1.0000
  C   C16       1.0  0.72629  0.96009  0.54504  1.0000
  C   C17       1.0  0.27967  0.94071  0.67911  1.0000
  C   C18       1.0  0.72034  0.05930  0.32089  1.0000
  C   C19       1.0  0.39760  0.79525  0.51344  1.0000
  C   C20       1.0  0.60240  0.20476  0.48656  1.0000
  C   C21       1.0  0.17622  0.91861  0.14165  1.0000
  C   C22       1.0  0.82378  0.08138  0.85835  1.0000
  C   C23       1.0  0.12143  0.05543  0.06017  1.0000
  C   C24       1.0  0.87857  0.94457  0.93983  1.0000
  C   C25       1.0  0.20039  0.18547  0.03394  1.0000
  C   C26       1.0  0.79961  0.81453  0.96606  1.0000
  C   C27       1.0  0.11688  0.55484  0.69337  1.0000
  C   C28       1.0  0.88312  0.44515  0.30664  1.0000
  C   C29       1.0  0.98748  0.48598  0.80962  1.0000
  C   C30       1.0  0.01252  0.51401  0.19039  1.0000
  C   C31       1.0  0.83783  0.52151  0.78882  1.0000
  C   C32       1.0  0.16217  0.47849  0.21119  1.0000
  N   N1        1.0  0.42364  0.08031  0.20655  1.0000
  N   N2        1.0  0.57636  0.91969  0.79344  1.0000
  N   N3        1.0  0.04576  0.22600  0.52214  1.0000
  N   N4        1.0  0.95424  0.77400  0.47787  1.0000
  N   N5        1.0  0.24170  0.19042  0.72514  1.0000
  N   N6        1.0  0.75830  0.80958  0.27486  1.0000
  N   N7        1.0  0.56203  0.62282  0.63703  1.0000
  N   N8        1.0  0.43796  0.37718  0.36297  1.0000
  N   N9        1.0  0.38906  0.71699  0.31975  1.0000
  N   N10       1.0  0.61093  0.28301  0.68025  1.0000
  N   N11       1.0  0.25029  0.73607  0.88809  1.0000
  N   N12       1.0  0.74971  0.26393  0.11191  1.0000
  N   N13       1.0  0.33350  0.86566  0.07534  1.0000
  N   N14       1.0  0.66650  0.13434  0.92466  1.0000
  N   N15       1.0  0.35759  0.17235  0.94338  1.0000
  N   N16       1.0  0.64241  0.82764  0.05662  1.0000
  N   N17       1.0  0.15816  0.49030  0.58054  1.0000
  N   N18       1.0  0.84184  0.50970  0.41946  1.0000
  N   N19       1.0  0.83640  0.46479  0.68279  1.0000
  N   N20       1.0  0.16360  0.53521  0.31721  1.0000
