data_image0
_chemical_formula_structural       Bi2H34C26N4O20
_chemical_formula_sum              "Bi2 H34 C26 N4 O20"
_cell_length_a       9.69072
_cell_length_b       9.93793
_cell_length_c       11.5876
_cell_angle_alpha    65.4978
_cell_angle_beta     66.9626
_cell_angle_gamma    63.8636

_space_group_name_H-M_alt    "P 1"
_space_group_IT_number       1

loop_
  _space_group_symop_operation_xyz
  'x, y, z'

loop_
  _atom_site_type_symbol
  _atom_site_label
  _atom_site_symmetry_multiplicity
  _atom_site_fract_x
  _atom_site_fract_y
  _atom_site_fract_z
  _atom_site_occupancy
  Bi  Bi1       1.0  0.27786  0.38038  0.27132  1.0000
  Bi  Bi2       1.0  0.72214  0.61962  0.72868  1.0000
  H   H1        1.0  0.76567  0.16979  0.84123  1.0000
  H   H2        1.0  0.23433  0.83020  0.15876  1.0000
  H   H3        1.0  0.96270  0.10950  0.73855  1.0000
  H   H4        1.0  0.03730  0.89050  0.26145  1.0000
  H   H5        1.0  0.93382  0.11511  0.89935  1.0000
  H   H6        1.0  0.06618  0.88488  0.10065  1.0000
  H   H7        1.0  0.58816  0.10737  0.42953  1.0000
  H   H8        1.0  0.41184  0.89263  0.57047  1.0000
  H   H9        1.0  0.59461  0.48293  0.39070  1.0000
  H   H10       1.0  0.40539  0.51707  0.60930  1.0000
  H   H11       1.0  0.80850  0.40898  0.34989  1.0000
  H   H12       1.0  0.19150  0.59102  0.65011  1.0000
  H   H13       1.0  0.69872  0.39501  0.51627  1.0000
  H   H14       1.0  0.30128  0.60499  0.48373  1.0000
  H   H15       1.0  0.82251  0.99872  0.46789  1.0000
  H   H16       1.0  0.17749  0.00129  0.53211  1.0000
  H   H17       1.0  0.85176  0.09055  0.55641  1.0000
  H   H18       1.0  0.14824  0.90945  0.44359  1.0000
  H   H19       1.0  0.94190  0.12489  0.38487  1.0000
  H   H20       1.0  0.05810  0.87511  0.61513  1.0000
  H   H21       1.0  0.34696  0.04809  0.20217  1.0000
  H   H22       1.0  0.65304  0.95191  0.79783  1.0000
  H   H23       1.0  0.46397  0.87115  0.10254  1.0000
  H   H24       1.0  0.53603  0.12885  0.89745  1.0000
  H   H25       1.0  0.57880  0.69043  0.19262  1.0000
  H   H26       1.0  0.42119  0.30958  0.80738  1.0000
  H   H27       1.0  0.67565  0.81312  0.05153  1.0000
  H   H28       1.0  0.32435  0.18688  0.94847  1.0000
  H   H29       1.0  0.69988  0.91892  0.31058  1.0000
  H   H30       1.0  0.30012  0.08108  0.68942  1.0000
  H   H31       1.0  0.81600  0.83488  0.17867  1.0000
  H   H32       1.0  0.18399  0.16512  0.82133  1.0000
  H   H33       1.0  0.72706  0.72031  0.33309  1.0000
  H   H34       1.0  0.27293  0.27969  0.66691  1.0000
  C   C1        1.0  0.06465  0.55143  0.06022  1.0000
  C   C2        1.0  0.93535  0.44857  0.93978  1.0000
  C   C3        1.0  0.00832  0.65910  0.94938  1.0000
  C   C4        1.0  0.99169  0.34090  0.05061  1.0000
  C   C5        1.0  0.94037  0.61589  0.88835  1.0000
  C   C6        1.0  0.05965  0.38410  0.11164  1.0000
  C   C7        1.0  0.02537  0.81731  0.89606  1.0000
  C   C8        1.0  0.97463  0.18269  0.10395  1.0000
  C   C9        1.0  0.88814  0.09187  0.83933  1.0000
  C   C10       1.0  0.11187  0.90812  0.16067  1.0000
  C   C11       1.0  0.01556  0.58023  0.46845  1.0000
  C   C12       1.0  0.98443  0.41978  0.53155  1.0000
  C   C13       1.0  0.50239  0.43718  0.97459  1.0000
  C   C14       1.0  0.49761  0.56282  0.02541  1.0000
  C   C15       1.0  0.57323  0.22637  0.42313  1.0000
  C   C16       1.0  0.42677  0.77364  0.57687  1.0000
  C   C17       1.0  0.69918  0.39125  0.42267  1.0000
  C   C18       1.0  0.30083  0.60876  0.57733  1.0000
  C   C19       1.0  0.83612  0.10513  0.46241  1.0000
  C   C20       1.0  0.16389  0.89487  0.53758  1.0000
  C   C21       1.0  0.44374  0.01463  0.24674  1.0000
  C   C22       1.0  0.55625  0.98537  0.75326  1.0000
  C   C23       1.0  0.57250  0.81236  0.13678  1.0000
  C   C24       1.0  0.42750  0.18765  0.86322  1.0000
  C   C25       1.0  0.71167  0.83831  0.26306  1.0000
  C   C26       1.0  0.28833  0.16169  0.73693  1.0000
  N   N1        1.0  0.69672  0.24015  0.43588  1.0000
  N   N2        1.0  0.30329  0.75985  0.56412  1.0000
  N   N3        1.0  0.57002  0.89343  0.21777  1.0000
  N   N4        1.0  0.42998  0.10657  0.78223  1.0000
  O   O1        1.0  0.11587  0.58787  0.12469  1.0000
  O   O2        1.0  0.88413  0.41213  0.87532  1.0000
  O   O3        1.0  0.88663  0.70617  0.78862  1.0000
  O   O4        1.0  0.11339  0.29382  0.21137  1.0000
  O   O5        1.0  0.15207  0.84062  0.85821  1.0000
  O   O6        1.0  0.84793  0.15938  0.14181  1.0000
  O   O7        1.0  0.88277  0.93301  0.89473  1.0000
  O   O8        1.0  0.11723  0.06698  0.10527  1.0000
  O   O9        1.0  0.92459  0.68882  0.52119  1.0000
  O   O10       1.0  0.07540  0.31118  0.47881  1.0000
  O   O11       1.0  0.13117  0.59221  0.36798  1.0000
  O   O12       1.0  0.86883  0.40779  0.63202  1.0000
  O   O13       1.0  0.43080  0.34056  0.05364  1.0000
  O   O14       1.0  0.56920  0.65944  0.94636  1.0000
  O   O15       1.0  0.57674  0.43925  0.85659  1.0000
  O   O16       1.0  0.42326  0.56075  0.14342  1.0000
  O   O17       1.0  0.44701  0.33937  0.40627  1.0000
  O   O18       1.0  0.55298  0.66063  0.59373  1.0000
  O   O19       1.0  0.43094  0.08701  0.31968  1.0000
  O   O20       1.0  0.56905  0.91299  0.68033  1.0000
