data_image0
_chemical_formula_structural       Zn2H24C32N4O10
_chemical_formula_sum              "Zn2 H24 C32 N4 O10"
_cell_length_a       7.35176
_cell_length_b       9.74123
_cell_length_c       10.2883
_cell_angle_alpha    92.0652
_cell_angle_beta     89.9989
_cell_angle_gamma    90.0016

_space_group_name_H-M_alt    "P 1"
_space_group_IT_number       1

loop_
  _space_group_symop_operation_xyz
  'x, y, z'

loop_
  _atom_site_type_symbol
  _atom_site_label
  _atom_site_symmetry_multiplicity
  _atom_site_fract_x
  _atom_site_fract_y
  _atom_site_fract_z
  _atom_site_occupancy
  Zn  Zn1       1.0  0.48824  0.29965  0.26265  1.0000
  Zn  Zn2       1.0  0.98825  0.70035  0.73735  1.0000
  H   H1        1.0  0.43266  0.97285  0.28296  1.0000
  H   H2        1.0  0.93267  0.02715  0.71704  1.0000
  H   H3        1.0  0.38816  0.77216  0.12614  1.0000
  H   H4        1.0  0.88816  0.22784  0.87386  1.0000
  H   H5        1.0  0.38144  0.81547  0.88458  1.0000
  H   H6        1.0  0.88145  0.18453  0.11542  1.0000
  H   H7        1.0  0.41188  0.98437  0.70789  1.0000
  H   H8        1.0  0.91190  0.01563  0.29211  1.0000
  H   H9        1.0  0.46578  0.22237  0.64145  1.0000
  H   H10       1.0  0.96579  0.77763  0.35855  1.0000
  H   H11       1.0  0.53634  0.47443  0.70844  1.0000
  H   H12       1.0  0.03634  0.52557  0.29156  1.0000
  H   H13       1.0  0.58934  0.64688  0.88561  1.0000
  H   H14       1.0  0.08933  0.35313  0.11438  1.0000
  H   H15       1.0  0.56616  0.57512  0.12096  1.0000
  H   H16       1.0  0.06616  0.42489  0.87903  1.0000
  H   H17       1.0  0.82377  0.14090  0.56216  1.0000
  H   H18       1.0  0.32380  0.85910  0.43785  1.0000
  H   H19       1.0  0.14473  0.07835  0.56201  1.0000
  H   H20       1.0  0.64477  0.92166  0.43800  1.0000
  H   H21       1.0  0.43330  0.52997  0.41121  1.0000
  H   H22       1.0  0.93329  0.47002  0.58879  1.0000
  H   H23       1.0  0.63985  0.48891  0.38623  1.0000
  H   H24       1.0  0.13985  0.51108  0.61376  1.0000
  C   C1        1.0  0.43062  0.98614  0.17832  1.0000
  C   C2        1.0  0.93063  0.01386  0.82168  1.0000
  C   C3        1.0  0.40640  0.87469  0.08940  1.0000
  C   C4        1.0  0.90641  0.12531  0.91061  1.0000
  C   C5        1.0  0.40345  0.89793  0.95745  1.0000
  C   C6        1.0  0.90345  0.10207  0.04256  1.0000
  C   C7        1.0  0.42791  0.03311  0.91491  1.0000
  C   C8        1.0  0.92792  0.96689  0.08509  1.0000
  C   C9        1.0  0.43251  0.06707  0.78061  1.0000
  C   C10       1.0  0.93252  0.93294  0.21939  1.0000
  C   C11       1.0  0.46291  0.19899  0.74453  1.0000
  C   C12       1.0  0.96292  0.80101  0.25547  1.0000
  C   C13       1.0  0.49038  0.30756  0.84038  1.0000
  C   C14       1.0  0.99038  0.69245  0.15962  1.0000
  C   C15       1.0  0.52823  0.44483  0.80950  1.0000
  C   C16       1.0  0.02822  0.55517  0.19049  1.0000
  C   C17       1.0  0.55654  0.54185  0.90908  1.0000
  C   C18       1.0  0.05654  0.45815  0.09091  1.0000
  C   C19       1.0  0.54513  0.50288  0.03887  1.0000
  C   C20       1.0  0.04512  0.49712  0.96113  1.0000
  C   C21       1.0  0.48300  0.27752  0.97434  1.0000
  C   C22       1.0  0.98300  0.72248  0.02566  1.0000
  C   C23       1.0  0.45191  0.13853  0.01198  1.0000
  C   C24       1.0  0.95192  0.86148  0.98802  1.0000
  C   C25       1.0  0.82877  0.29477  0.41512  1.0000
  C   C26       1.0  0.32879  0.70523  0.58489  1.0000
  C   C27       1.0  0.91928  0.19175  0.49797  1.0000
  C   C28       1.0  0.41932  0.80825  0.50204  1.0000
  C   C29       1.0  0.09545  0.15664  0.49757  1.0000
  C   C30       1.0  0.59548  0.84336  0.50243  1.0000
  C   C31       1.0  0.23354  0.21712  0.41163  1.0000
  C   C32       1.0  0.73357  0.78287  0.58836  1.0000
  N   N1        1.0  0.45179  0.11422  0.14065  1.0000
  N   N2        1.0  0.95180  0.88579  0.85935  1.0000
  N   N3        1.0  0.50873  0.37430  0.07048  1.0000
  N   N4        1.0  0.00873  0.62571  0.92952  1.0000
  O   O1        1.0  0.18662  0.29385  0.31963  1.0000
  O   O2        1.0  0.68663  0.70614  0.68036  1.0000
  O   O3        1.0  0.40123  0.18726  0.43147  1.0000
  O   O4        1.0  0.90126  0.81274  0.56854  1.0000
  O   O5        1.0  0.52041  0.50004  0.34035  1.0000
  O   O6        1.0  0.02041  0.49995  0.65964  1.0000
  O   O7        1.0  0.75479  0.24723  0.31105  1.0000
  O   O8        1.0  0.25480  0.75277  0.68895  1.0000
  O   O9        1.0  0.81660  0.41828  0.45880  1.0000
  O   O10       1.0  0.31661  0.58171  0.54120  1.0000
