data_image0
_chemical_formula_structural       Hg2H16C20S4N4Cl4
_chemical_formula_sum              "Hg2 H16 C20 S4 N4 Cl4"
_cell_length_a       8.03074
_cell_length_b       8.0307
_cell_length_c       11.2978
_cell_angle_alpha    87.5723
_cell_angle_beta     87.572
_cell_angle_gamma    73.5999

_space_group_name_H-M_alt    "P 1"
_space_group_IT_number       1

loop_
  _space_group_symop_operation_xyz
  'x, y, z'

loop_
  _atom_site_type_symbol
  _atom_site_label
  _atom_site_symmetry_multiplicity
  _atom_site_fract_x
  _atom_site_fract_y
  _atom_site_fract_z
  _atom_site_occupancy
  Hg  Hg1       1.0  0.99609  0.00391  0.25000  1.0000
  Hg  Hg2       1.0  0.00391  0.99609  0.75000  1.0000
  H   H1        1.0  0.73891  0.00593  0.48451  1.0000
  H   H2        1.0  0.99407  0.26108  0.01549  1.0000
  H   H3        1.0  0.26109  0.99407  0.51549  1.0000
  H   H4        1.0  0.00593  0.73891  0.98451  1.0000
  H   H5        1.0  0.57772  0.19245  0.64761  1.0000
  H   H6        1.0  0.80755  0.42227  0.85239  1.0000
  H   H7        1.0  0.42228  0.80755  0.35239  1.0000
  H   H8        1.0  0.19245  0.57772  0.14761  1.0000
  H   H9        1.0  0.79250  0.59937  0.50184  1.0000
  H   H10       1.0  0.40062  0.20749  0.99816  1.0000
  H   H11       1.0  0.20750  0.40063  0.49816  1.0000
  H   H12       1.0  0.59938  0.79250  0.00184  1.0000
  H   H13       1.0  0.94718  0.39375  0.34859  1.0000
  H   H14       1.0  0.60625  0.05282  0.15141  1.0000
  H   H15       1.0  0.05282  0.60625  0.65141  1.0000
  H   H16       1.0  0.39375  0.94718  0.84859  1.0000
  C   C1        1.0  0.74766  0.13824  0.49264  1.0000
  C   C2        1.0  0.86176  0.25234  0.00735  1.0000
  C   C3        1.0  0.25234  0.86176  0.50736  1.0000
  C   C4        1.0  0.13825  0.74766  0.99265  1.0000
  C   C5        1.0  0.65741  0.24267  0.58293  1.0000
  C   C6        1.0  0.75733  0.34259  0.91706  1.0000
  C   C7        1.0  0.34259  0.75733  0.41706  1.0000
  C   C8        1.0  0.24268  0.65741  0.08294  1.0000
  C   C9        1.0  0.67245  0.41154  0.58818  1.0000
  C   C10       1.0  0.58846  0.32754  0.91182  1.0000
  C   C11       1.0  0.32754  0.58847  0.41182  1.0000
  C   C12       1.0  0.41154  0.67246  0.08818  1.0000
  C   C13       1.0  0.77741  0.46865  0.50257  1.0000
  C   C14       1.0  0.53134  0.22258  0.99743  1.0000
  C   C15       1.0  0.22259  0.53135  0.49743  1.0000
  C   C16       1.0  0.46866  0.77741  0.00257  1.0000
  C   C17       1.0  0.86361  0.35445  0.41641  1.0000
  C   C18       1.0  0.64555  0.13639  0.08359  1.0000
  C   C19       1.0  0.13639  0.64555  0.58359  1.0000
  C   C20       1.0  0.35445  0.86361  0.91641  1.0000
  S   S1        1.0  0.56712  0.56308  0.69531  1.0000
  S   S2        1.0  0.43691  0.43288  0.80469  1.0000
  S   S3        1.0  0.43288  0.43692  0.30469  1.0000
  S   S4        1.0  0.56309  0.56712  0.19531  1.0000
  N   N1        1.0  0.84944  0.19208  0.41130  1.0000
  N   N2        1.0  0.80792  0.15056  0.08870  1.0000
  N   N3        1.0  0.15056  0.80792  0.58870  1.0000
  N   N4        1.0  0.19208  0.84944  0.91130  1.0000
  Cl  Cl1       1.0  0.22774  0.13575  0.21112  1.0000
  Cl  Cl2       1.0  0.86425  0.77226  0.28888  1.0000
  Cl  Cl3       1.0  0.77227  0.86425  0.78888  1.0000
  Cl  Cl4       1.0  0.13575  0.22774  0.71112  1.0000
