data_image0
_chemical_formula_structural       Hg2H16C20S4Br4N4
_chemical_formula_sum              "Hg2 H16 C20 S4 Br4 N4"
_cell_length_a       8.27864
_cell_length_b       8.27857
_cell_length_c       11.0864
_cell_angle_alpha    91.8222
_cell_angle_beta     91.8221
_cell_angle_gamma    73.08

_space_group_name_H-M_alt    "P 1"
_space_group_IT_number       1

loop_
  _space_group_symop_operation_xyz
  'x, y, z'

loop_
  _atom_site_type_symbol
  _atom_site_label
  _atom_site_symmetry_multiplicity
  _atom_site_fract_x
  _atom_site_fract_y
  _atom_site_fract_z
  _atom_site_occupancy
  Hg  Hg1       1.0  0.01091  0.98910  0.25000  1.0000
  Hg  Hg2       1.0  0.98909  0.01090  0.75000  1.0000
  H   H1        1.0  0.39663  0.93677  0.36263  1.0000
  H   H2        1.0  0.06324  0.60337  0.13737  1.0000
  H   H3        1.0  0.60337  0.06324  0.63737  1.0000
  H   H4        1.0  0.93676  0.39662  0.86263  1.0000
  H   H5        1.0  0.20470  0.58244  0.64018  1.0000
  H   H6        1.0  0.41756  0.79530  0.85982  1.0000
  H   H7        1.0  0.79531  0.41756  0.35982  1.0000
  H   H8        1.0  0.58244  0.20469  0.14018  1.0000
  H   H9        1.0  0.01986  0.74249  0.47544  1.0000
  H   H10       1.0  0.25751  0.98014  0.02457  1.0000
  H   H11       1.0  0.98014  0.25752  0.52456  1.0000
  H   H12       1.0  0.74249  0.01985  0.97544  1.0000
  H   H13       1.0  0.60096  0.78118  0.51908  1.0000
  H   H14       1.0  0.21881  0.39904  0.98092  1.0000
  H   H15       1.0  0.39904  0.21883  0.48092  1.0000
  H   H16       1.0  0.78118  0.60095  0.01907  1.0000
  C   C1        1.0  0.35960  0.85617  0.42592  1.0000
  C   C2        1.0  0.14383  0.64040  0.07408  1.0000
  C   C3        1.0  0.64040  0.14384  0.57408  1.0000
  C   C4        1.0  0.85617  0.35959  0.92592  1.0000
  C   C5        1.0  0.25300  0.65846  0.58031  1.0000
  C   C6        1.0  0.34154  0.74700  0.91970  1.0000
  C   C7        1.0  0.74701  0.34155  0.41969  1.0000
  C   C8        1.0  0.65846  0.25299  0.08031  1.0000
  C   C9        1.0  0.14936  0.74835  0.48912  1.0000
  C   C10       1.0  0.25165  0.85064  0.01089  1.0000
  C   C11       1.0  0.85064  0.25166  0.51088  1.0000
  C   C12       1.0  0.74835  0.14935  0.98912  1.0000
  C   C13       1.0  0.41842  0.66853  0.59286  1.0000
  C   C14       1.0  0.33147  0.58158  0.90714  1.0000
  C   C15       1.0  0.58158  0.33148  0.40713  1.0000
  C   C16       1.0  0.66853  0.41842  0.09286  1.0000
  C   C17       1.0  0.47303  0.76956  0.51344  1.0000
  C   C18       1.0  0.23044  0.52697  0.98656  1.0000
  C   C19       1.0  0.52697  0.23046  0.48656  1.0000
  C   C20       1.0  0.76955  0.47302  0.01343  1.0000
  S   S1        1.0  0.56666  0.56082  0.70270  1.0000
  S   S2        1.0  0.43918  0.43334  0.79731  1.0000
  S   S3        1.0  0.43334  0.43919  0.29731  1.0000
  S   S4        1.0  0.56082  0.56666  0.20269  1.0000
  Br  Br1       1.0  0.76942  0.86178  0.27266  1.0000
  Br  Br2       1.0  0.13821  0.23059  0.22733  1.0000
  Br  Br3       1.0  0.23058  0.13822  0.72734  1.0000
  Br  Br4       1.0  0.86179  0.76941  0.77267  1.0000
  N   N1        1.0  0.20081  0.84582  0.41352  1.0000
  N   N2        1.0  0.15418  0.79918  0.08649  1.0000
  N   N3        1.0  0.79919  0.15419  0.58648  1.0000
  N   N4        1.0  0.84582  0.20080  0.91352  1.0000
