data_image0
_chemical_formula_structural       Hg2H16C20S4I4N4
_chemical_formula_sum              "Hg2 H16 C20 S4 I4 N4"
_cell_length_a       8.61537
_cell_length_b       8.61544
_cell_length_c       10.9953
_cell_angle_alpha    85.4839
_cell_angle_beta     85.4841
_cell_angle_gamma    72.1309

_space_group_name_H-M_alt    "P 1"
_space_group_IT_number       1

loop_
  _space_group_symop_operation_xyz
  'x, y, z'

loop_
  _atom_site_type_symbol
  _atom_site_label
  _atom_site_symmetry_multiplicity
  _atom_site_fract_x
  _atom_site_fract_y
  _atom_site_fract_z
  _atom_site_occupancy
  Hg  Hg1       1.0  0.01850  0.98150  0.75000  1.0000
  Hg  Hg2       1.0  0.98150  0.01850  0.25000  1.0000
  H   H1        1.0  0.03423  0.74177  0.53203  1.0000
  H   H2        1.0  0.25822  0.96578  0.96798  1.0000
  H   H3        1.0  0.96578  0.25822  0.46797  1.0000
  H   H4        1.0  0.74176  0.03424  0.03202  1.0000
  H   H5        1.0  0.21406  0.58490  0.36635  1.0000
  H   H6        1.0  0.41509  0.78595  0.13366  1.0000
  H   H7        1.0  0.78596  0.41509  0.63366  1.0000
  H   H8        1.0  0.58489  0.21407  0.86634  1.0000
  H   H9        1.0  0.39669  0.92546  0.62743  1.0000
  H   H10       1.0  0.07453  0.60331  0.87258  1.0000
  H   H11       1.0  0.60331  0.07453  0.37258  1.0000
  H   H12       1.0  0.92547  0.39668  0.12742  1.0000
  H   H13       1.0  0.59648  0.77175  0.46909  1.0000
  H   H14       1.0  0.22826  0.40352  0.03091  1.0000
  H   H15       1.0  0.40352  0.22827  0.53091  1.0000
  H   H16       1.0  0.77175  0.59648  0.96909  1.0000
  C   C1        1.0  0.15968  0.74553  0.51453  1.0000
  C   C2        1.0  0.25446  0.84033  0.98548  1.0000
  C   C3        1.0  0.84034  0.25447  0.48548  1.0000
  C   C4        1.0  0.74552  0.15968  0.01452  1.0000
  C   C5        1.0  0.26070  0.65726  0.42272  1.0000
  C   C6        1.0  0.34274  0.73930  0.07728  1.0000
  C   C7        1.0  0.73930  0.34274  0.57728  1.0000
  C   C8        1.0  0.65726  0.26071  0.92271  1.0000
  C   C9        1.0  0.42075  0.66466  0.40498  1.0000
  C   C10       1.0  0.33534  0.57926  0.09502  1.0000
  C   C11       1.0  0.57926  0.33534  0.59502  1.0000
  C   C12       1.0  0.66466  0.42075  0.90498  1.0000
  C   C13       1.0  0.36191  0.84731  0.56800  1.0000
  C   C14       1.0  0.15268  0.63809  0.93200  1.0000
  C   C15       1.0  0.63809  0.15268  0.43200  1.0000
  C   C16       1.0  0.84732  0.36191  0.06800  1.0000
  C   C17       1.0  0.47277  0.76186  0.47972  1.0000
  C   C18       1.0  0.23814  0.52724  0.02028  1.0000
  C   C19       1.0  0.52724  0.23814  0.52028  1.0000
  C   C20       1.0  0.76186  0.47277  0.97971  1.0000
  S   S1        1.0  0.56423  0.55851  0.29288  1.0000
  S   S2        1.0  0.44150  0.43577  0.20712  1.0000
  S   S3        1.0  0.43577  0.44150  0.70711  1.0000
  S   S4        1.0  0.55851  0.56424  0.79288  1.0000
  I   I1        1.0  0.76445  0.86222  0.73687  1.0000
  I   I2        1.0  0.13778  0.23556  0.76313  1.0000
  I   I3        1.0  0.23556  0.13778  0.26313  1.0000
  I   I4        1.0  0.86222  0.76445  0.23687  1.0000
  N   N1        1.0  0.20840  0.83905  0.58584  1.0000
  N   N2        1.0  0.16094  0.79161  0.91417  1.0000
  N   N3        1.0  0.79161  0.16094  0.41417  1.0000
  N   N4        1.0  0.83905  0.20840  0.08583  1.0000
