data_image0
_chemical_formula_structural       Pr2H10C20O18
_chemical_formula_sum              "Pr2 H10 C20 O18"
_cell_length_a       6.34365
_cell_length_b       9.42914
_cell_length_c       9.67588
_cell_angle_alpha    87.93
_cell_angle_beta     74.1658
_cell_angle_gamma    76.8438

_space_group_name_H-M_alt    "P 1"
_space_group_IT_number       1

loop_
  _space_group_symop_operation_xyz
  'x, y, z'

loop_
  _atom_site_type_symbol
  _atom_site_label
  _atom_site_symmetry_multiplicity
  _atom_site_fract_x
  _atom_site_fract_y
  _atom_site_fract_z
  _atom_site_occupancy
  Pr  Pr1       1.0  0.15257  0.55947  0.27957  1.0000
  Pr  Pr2       1.0  0.84743  0.44054  0.72043  1.0000
  H   H1        1.0  0.01266  0.92252  0.26395  1.0000
  H   H2        1.0  0.98733  0.07748  0.73605  1.0000
  H   H3        1.0  0.69809  0.44011  0.34349  1.0000
  H   H4        1.0  0.30191  0.55990  0.65651  1.0000
  H   H5        1.0  0.85992  0.39098  0.19006  1.0000
  H   H6        1.0  0.14008  0.60902  0.80994  1.0000
  H   H7        1.0  0.20852  0.06631  0.36830  1.0000
  H   H8        1.0  0.79148  0.93369  0.63171  1.0000
  H   H9        1.0  0.67538  0.15708  0.11118  1.0000
  H   H10       1.0  0.32462  0.84292  0.88882  1.0000
  C   C1        1.0  0.82916  0.87531  0.15151  1.0000
  C   C2        1.0  0.17084  0.12469  0.84849  1.0000
  C   C3        1.0  0.34645  0.29681  0.42028  1.0000
  C   C4        1.0  0.65355  0.70319  0.57971  1.0000
  C   C5        1.0  0.42710  0.14575  0.46669  1.0000
  C   C6        1.0  0.57290  0.85424  0.53332  1.0000
  C   C7        1.0  0.39232  0.31929  0.98157  1.0000
  C   C8        1.0  0.60768  0.68071  0.01842  1.0000
  C   C9        1.0  0.33606  0.03757  0.42664  1.0000
  C   C10       1.0  0.66393  0.96243  0.57336  1.0000
  C   C11       1.0  0.40755  0.89182  0.45874  1.0000
  C   C12       1.0  0.59246  0.10818  0.54127  1.0000
  C   C13       1.0  0.30956  0.77882  0.41148  1.0000
  C   C14       1.0  0.69044  0.22118  0.58852  1.0000
  C   C15       1.0  0.59943  0.08871  0.06040  1.0000
  C   C16       1.0  0.40057  0.91130  0.93960  1.0000
  C   C17       1.0  0.44015  0.15418  0.98890  1.0000
  C   C18       1.0  0.55986  0.84581  0.01110  1.0000
  C   C19       1.0  0.66044  0.93701  0.07229  1.0000
  C   C20       1.0  0.33956  0.06299  0.92771  1.0000
  O   O1        1.0  0.89121  0.74162  0.16548  1.0000
  O   O2        1.0  0.10878  0.25838  0.83452  1.0000
  O   O3        1.0  0.15697  0.37408  0.49152  1.0000
  O   O4        1.0  0.84303  0.62592  0.50847  1.0000
  O   O5        1.0  0.45588  0.33949  0.30245  1.0000
  O   O6        1.0  0.54413  0.66051  0.69755  1.0000
  O   O7        1.0  0.53598  0.37202  0.89000  1.0000
  O   O8        1.0  0.46403  0.62799  0.10999  1.0000
  O   O9        1.0  0.38482  0.64501  0.42984  1.0000
  O   O10       1.0  0.61519  0.35498  0.57016  1.0000
  O   O11       1.0  0.22227  0.39248  0.07261  1.0000
  O   O12       1.0  0.77774  0.60752  0.92739  1.0000
  O   O13       1.0  0.90622  0.97360  0.20577  1.0000
  O   O14       1.0  0.09378  0.02640  0.79424  1.0000
  O   O15       1.0  0.85138  0.43230  0.28262  1.0000
  O   O16       1.0  0.14862  0.56770  0.71738  1.0000
  O   O17       1.0  0.14912  0.81876  0.35110  1.0000
  O   O18       1.0  0.85088  0.18124  0.64890  1.0000
