data_image0
_chemical_formula_structural       Gd2H10C20O18
_chemical_formula_sum              "Gd2 H10 C20 O18"
_cell_length_a       6.25297
_cell_length_b       9.25069
_cell_length_c       9.61201
_cell_angle_alpha    87.8755
_cell_angle_beta     73.7737
_cell_angle_gamma    77.0117

_space_group_name_H-M_alt    "P 1"
_space_group_IT_number       1

loop_
  _space_group_symop_operation_xyz
  'x, y, z'

loop_
  _atom_site_type_symbol
  _atom_site_label
  _atom_site_symmetry_multiplicity
  _atom_site_fract_x
  _atom_site_fract_y
  _atom_site_fract_z
  _atom_site_occupancy
  Gd  Gd1       1.0  0.34935  0.94145  0.21905  1.0000
  Gd  Gd2       1.0  0.65065  0.05856  0.78095  1.0000
  H   H1        1.0  0.23491  0.98581  0.72088  1.0000
  H   H2        1.0  0.76509  0.01419  0.27912  1.0000
  H   H3        1.0  0.23069  0.93368  0.87916  1.0000
  H   H4        1.0  0.76931  0.06632  0.12084  1.0000
  H   H5        1.0  0.81532  0.34031  0.39295  1.0000
  H   H6        1.0  0.18468  0.65969  0.60705  1.0000
  H   H7        1.0  0.29835  0.43615  0.12904  1.0000
  H   H8        1.0  0.70165  0.56385  0.87096  1.0000
  H   H9        1.0  0.47994  0.57733  0.23827  1.0000
  H   H10       1.0  0.52006  0.42267  0.76173  1.0000
  C   C1        1.0  0.89592  0.40961  0.44175  1.0000
  C   C2        1.0  0.10408  0.59039  0.55824  1.0000
  C   C3        1.0  0.83859  0.79828  0.91427  1.0000
  C   C4        1.0  0.16141  0.20172  0.08572  1.0000
  C   C5        1.0  0.19928  0.72563  0.08206  1.0000
  C   C6        1.0  0.80071  0.27437  0.91794  1.0000
  C   C7        1.0  0.83655  0.56441  0.42877  1.0000
  C   C8        1.0  0.16345  0.43559  0.57123  1.0000
  C   C9        1.0  0.92589  0.64756  0.96420  1.0000
  C   C10       1.0  0.07411  0.35244  0.03579  1.0000
  C   C11       1.0  0.89110  0.82599  0.47784  1.0000
  C   C12       1.0  0.10889  0.17401  0.52216  1.0000
  C   C13       1.0  0.16792  0.46404  0.07156  1.0000
  C   C14       1.0  0.83208  0.53596  0.92844  1.0000
  C   C15       1.0  0.09614  0.61167  0.03697  1.0000
  C   C16       1.0  0.90386  0.38833  0.96303  1.0000
  C   C17       1.0  0.94171  0.65753  0.48758  1.0000
  C   C18       1.0  0.05829  0.34247  0.51242  1.0000
  C   C19       1.0  0.66227  0.62679  0.35176  1.0000
  C   C20       1.0  0.33774  0.37319  0.64824  1.0000
  O   O1        1.0  0.13998  0.86154  0.05413  1.0000
  O   O2        1.0  0.86002  0.13846  0.94586  1.0000
  O   O3        1.0  0.34708  0.68606  0.15344  1.0000
  O   O4        1.0  0.65292  0.31394  0.84656  1.0000
  O   O5        1.0  0.95184  0.84484  0.79832  1.0000
  O   O6        1.0  0.04815  0.15516  0.20168  1.0000
  O   O7        1.0  0.63723  0.87080  0.98065  1.0000
  O   O8        1.0  0.36276  0.12920  0.01935  1.0000
  O   O9        1.0  0.59156  0.76304  0.34169  1.0000
  O   O10       1.0  0.40843  0.23696  0.65832  1.0000
  O   O11       1.0  0.73443  0.89996  0.57866  1.0000
  O   O12       1.0  0.26559  0.10003  0.42133  1.0000
  O   O13       1.0  0.59025  0.52532  0.29471  1.0000
  O   O14       1.0  0.40974  0.47468  0.70529  1.0000
  O   O15       1.0  0.01515  0.88132  0.37069  1.0000
  O   O16       1.0  0.98485  0.11868  0.62931  1.0000
  O   O17       1.0  0.67127  0.03645  0.21160  1.0000
  O   O18       1.0  0.32874  0.96355  0.78840  1.0000
