data_image0
_chemical_formula_structural       Pr2H10C20O18
_chemical_formula_sum              "Pr2 H10 C20 O18"
_cell_length_a       6.36975
_cell_length_b       9.37845
_cell_length_c       9.66186
_cell_angle_alpha    88.1202
_cell_angle_beta     74.6119
_cell_angle_gamma    76.9915

_space_group_name_H-M_alt    "P 1"
_space_group_IT_number       1

loop_
  _space_group_symop_operation_xyz
  'x, y, z'

loop_
  _atom_site_type_symbol
  _atom_site_label
  _atom_site_symmetry_multiplicity
  _atom_site_fract_x
  _atom_site_fract_y
  _atom_site_fract_z
  _atom_site_occupancy
  Pr  Pr1       1.0  0.85314  0.44095  0.72026  1.0000
  Pr  Pr2       1.0  0.14687  0.55905  0.27974  1.0000
  H   H1        1.0  0.72046  0.48972  0.22034  1.0000
  H   H2        1.0  0.27954  0.51028  0.77966  1.0000
  H   H3        1.0  0.72834  0.42635  0.37224  1.0000
  H   H4        1.0  0.27166  0.57365  0.62776  1.0000
  H   H5        1.0  0.68185  0.16011  0.10505  1.0000
  H   H6        1.0  0.31815  0.83989  0.89495  1.0000
  H   H7        1.0  0.79856  0.93509  0.62530  1.0000
  H   H8        1.0  0.20144  0.06491  0.37470  1.0000
  H   H9        1.0  0.01632  0.92586  0.26043  1.0000
  H   H10       1.0  0.98368  0.07414  0.73957  1.0000
  C   C1        1.0  0.60242  0.09079  0.05711  1.0000
  C   C2        1.0  0.39758  0.90921  0.94289  1.0000
  C   C3        1.0  0.34179  0.29553  0.41548  1.0000
  C   C4        1.0  0.65821  0.70446  0.58452  1.0000
  C   C5        1.0  0.42708  0.14621  0.46521  1.0000
  C   C6        1.0  0.57293  0.85379  0.53478  1.0000
  C   C7        1.0  0.60922  0.67908  0.02494  1.0000
  C   C8        1.0  0.39078  0.32092  0.97506  1.0000
  C   C9        1.0  0.70302  0.22055  0.57988  1.0000
  C   C10       1.0  0.29697  0.77945  0.42011  1.0000
  C   C11       1.0  0.59750  0.10924  0.53594  1.0000
  C   C12       1.0  0.40250  0.89076  0.46406  1.0000
  C   C13       1.0  0.66777  0.96326  0.56952  1.0000
  C   C14       1.0  0.33223  0.03675  0.43048  1.0000
  C   C15       1.0  0.83271  0.87769  0.14874  1.0000
  C   C16       1.0  0.16729  0.12231  0.85126  1.0000
  C   C17       1.0  0.66085  0.93844  0.07174  1.0000
  C   C18       1.0  0.33914  0.06156  0.92826  1.0000
  C   C19       1.0  0.55749  0.84499  0.01436  1.0000
  C   C20       1.0  0.44251  0.15501  0.98564  1.0000
  O   O1        1.0  0.45242  0.34026  0.30076  1.0000
  O   O2        1.0  0.54759  0.65975  0.69924  1.0000
  O   O3        1.0  0.84830  0.18025  0.65155  1.0000
  O   O4        1.0  0.15169  0.81975  0.34846  1.0000
  O   O5        1.0  0.64703  0.35431  0.54969  1.0000
  O   O6        1.0  0.35297  0.64570  0.45031  1.0000
  O   O7        1.0  0.89883  0.74334  0.16037  1.0000
  O   O8        1.0  0.10116  0.25666  0.83963  1.0000
  O   O9        1.0  0.14543  0.36771  0.48137  1.0000
  O   O10       1.0  0.85457  0.63229  0.51863  1.0000
  O   O11       1.0  0.76454  0.60646  0.92661  1.0000
  O   O12       1.0  0.23546  0.39354  0.07339  1.0000
  O   O13       1.0  0.90841  0.97703  0.20370  1.0000
  O   O14       1.0  0.09160  0.02297  0.79630  1.0000
  O   O15       1.0  0.48756  0.62378  0.12940  1.0000
  O   O16       1.0  0.51243  0.37623  0.87060  1.0000
  O   O17       1.0  0.18119  0.53879  0.71606  1.0000
  O   O18       1.0  0.81881  0.46121  0.28394  1.0000
