data_image0
_chemical_formula_structural       Er4H20C24N8O24
_chemical_formula_sum              "Er4 H20 C24 N8 O24"
_cell_length_a       5.9698
_cell_length_b       9.5723
_cell_length_c       14.7943
_cell_angle_alpha    92.8377
_cell_angle_beta     90.0002
_cell_angle_gamma    90.0002

_space_group_name_H-M_alt    "P 1"
_space_group_IT_number       1

loop_
  _space_group_symop_operation_xyz
  'x, y, z'

loop_
  _atom_site_type_symbol
  _atom_site_label
  _atom_site_symmetry_multiplicity
  _atom_site_fract_x
  _atom_site_fract_y
  _atom_site_fract_z
  _atom_site_occupancy
  Er  Er1       1.0  0.56990  0.87201  0.24837  1.0000
  Er  Er2       1.0  0.06990  0.62799  0.25163  1.0000
  Er  Er3       1.0  0.43010  0.12799  0.75163  1.0000
  Er  Er4       1.0  0.93010  0.37201  0.74837  1.0000
  H   H1        1.0  0.76631  0.91507  0.60973  1.0000
  H   H2        1.0  0.26631  0.58492  0.89027  1.0000
  H   H3        1.0  0.23370  0.08493  0.39027  1.0000
  H   H4        1.0  0.73369  0.41508  0.10973  1.0000
  H   H5        1.0  0.14604  0.11199  0.96660  1.0000
  H   H6        1.0  0.64605  0.38801  0.53340  1.0000
  H   H7        1.0  0.85396  0.88801  0.03340  1.0000
  H   H8        1.0  0.35396  0.61198  0.46660  1.0000
  H   H9        1.0  0.86227  0.12568  0.22004  1.0000
  H   H10       1.0  0.36227  0.37433  0.27996  1.0000
  H   H11       1.0  0.13773  0.87432  0.77996  1.0000
  H   H12       1.0  0.63773  0.62568  0.72004  1.0000
  H   H13       1.0  0.68002  0.17325  0.29596  1.0000
  H   H14       1.0  0.18002  0.32675  0.20404  1.0000
  H   H15       1.0  0.31998  0.82675  0.70404  1.0000
  H   H16       1.0  0.81998  0.67325  0.79596  1.0000
  H   H17       1.0  0.27445  0.77821  0.38356  1.0000
  H   H18       1.0  0.77445  0.72179  0.11644  1.0000
  H   H19       1.0  0.72555  0.22179  0.61645  1.0000
  H   H20       1.0  0.22555  0.27822  0.88356  1.0000
  C   C1        1.0  0.87417  0.84407  0.43035  1.0000
  C   C2        1.0  0.37417  0.65593  0.06965  1.0000
  C   C3        1.0  0.12584  0.15593  0.56966  1.0000
  C   C4        1.0  0.62584  0.34407  0.93035  1.0000
  C   C5        1.0  0.67602  0.92529  0.46785  1.0000
  C   C6        1.0  0.17602  0.57471  0.03214  1.0000
  C   C7        1.0  0.32399  0.07471  0.53214  1.0000
  C   C8        1.0  0.82398  0.42529  0.96785  1.0000
  C   C9        1.0  0.64653  0.95184  0.56065  1.0000
  C   C10       1.0  0.14653  0.54816  0.93935  1.0000
  C   C11       1.0  0.35348  0.04817  0.43935  1.0000
  C   C12       1.0  0.85347  0.45184  0.06065  1.0000
  C   C13       1.0  0.21559  0.07009  0.15107  1.0000
  C   C14       1.0  0.71558  0.42990  0.34894  1.0000
  C   C15       1.0  0.78441  0.92990  0.84894  1.0000
  C   C16       1.0  0.28441  0.57010  0.65107  1.0000
  C   C17       1.0  0.36174  0.03182  0.06999  1.0000
  C   C18       1.0  0.86175  0.46818  0.43000  1.0000
  C   C19       1.0  0.63826  0.96819  0.93001  1.0000
  C   C20       1.0  0.13827  0.53181  0.57000  1.0000
  C   C21       1.0  0.30434  0.06178  0.98141  1.0000
  C   C22       1.0  0.80435  0.43822  0.51858  1.0000
  C   C23       1.0  0.69566  0.93823  0.01859  1.0000
  C   C24       1.0  0.19566  0.56177  0.48142  1.0000
  N   N1        1.0  0.52853  0.97316  0.40805  1.0000
  N   N2        1.0  0.02853  0.52684  0.09194  1.0000
  N   N3        1.0  0.47149  0.02684  0.59194  1.0000
  N   N4        1.0  0.97148  0.47316  0.90805  1.0000
  N   N5        1.0  0.55714  0.96919  0.08783  1.0000
  N   N6        1.0  0.05715  0.53081  0.41217  1.0000
  N   N7        1.0  0.44286  0.03082  0.91217  1.0000
  N   N8        1.0  0.94286  0.46918  0.58783  1.0000
  O   O1        1.0  0.85154  0.79519  0.34747  1.0000
  O   O2        1.0  0.35154  0.70482  0.15253  1.0000
  O   O3        1.0  0.14847  0.20481  0.65253  1.0000
  O   O4        1.0  0.64847  0.29518  0.84747  1.0000
  O   O5        1.0  0.04241  0.82995  0.47888  1.0000
  O   O6        1.0  0.54242  0.67004  0.02112  1.0000
  O   O7        1.0  0.95759  0.17005  0.52112  1.0000
  O   O8        1.0  0.45758  0.32996  0.97888  1.0000
  O   O9        1.0  0.26578  0.01334  0.22430  1.0000
  O   O10       1.0  0.76577  0.48666  0.27571  1.0000
  O   O11       1.0  0.73422  0.98666  0.77571  1.0000
  O   O12       1.0  0.23422  0.51335  0.72430  1.0000
  O   O13       1.0  0.05871  0.15754  0.14160  1.0000
  O   O14       1.0  0.55871  0.34246  0.35841  1.0000
  O   O15       1.0  0.94127  0.84245  0.85840  1.0000
  O   O16       1.0  0.44128  0.65755  0.64160  1.0000
  O   O17       1.0  0.74530  0.09189  0.26252  1.0000
  O   O18       1.0  0.24530  0.40811  0.23748  1.0000
  O   O19       1.0  0.25469  0.90811  0.73747  1.0000
  O   O20       1.0  0.75468  0.59189  0.76253  1.0000
  O   O21       1.0  0.33735  0.74132  0.32606  1.0000
  O   O22       1.0  0.83735  0.75867  0.17393  1.0000
  O   O23       1.0  0.66265  0.25867  0.67394  1.0000
  O   O24       1.0  0.16266  0.24133  0.82606  1.0000
