data_image0
_chemical_formula_structural       K2Cr2H12C28N4O16
_chemical_formula_sum              "K2 Cr2 H12 C28 N4 O16"
_cell_length_a       6.86877
_cell_length_b       6.87254
_cell_length_c       15.6573
_cell_angle_alpha    102.739
_cell_angle_beta     102.651
_cell_angle_gamma    89.9113

_space_group_name_H-M_alt    "P 1"
_space_group_IT_number       1

loop_
  _space_group_symop_operation_xyz
  'x, y, z'

loop_
  _atom_site_type_symbol
  _atom_site_label
  _atom_site_symmetry_multiplicity
  _atom_site_fract_x
  _atom_site_fract_y
  _atom_site_fract_z
  _atom_site_occupancy
  K   K1        1.0  0.12579  0.37455  0.24987  1.0000
  K   K2        1.0  0.87484  0.62572  0.75018  1.0000
  Cr  Cr1       1.0  0.62470  0.87443  0.24923  1.0000
  Cr  Cr2       1.0  0.37492  0.12516  0.74997  1.0000
  H   H1        1.0  0.65152  0.31963  0.55273  1.0000
  H   H2        1.0  0.23495  0.15057  0.05287  1.0000
  H   H3        1.0  0.90094  0.73399  0.55270  1.0000
  H   H4        1.0  0.81884  0.40201  0.05258  1.0000
  H   H5        1.0  0.34916  0.68077  0.44696  1.0000
  H   H6        1.0  0.76565  0.84869  0.94755  1.0000
  H   H7        1.0  0.09903  0.26572  0.44704  1.0000
  H   H8        1.0  0.18107  0.59901  0.94767  1.0000
  H   H9        1.0  0.81877  0.06994  0.63915  1.0000
  H   H10       1.0  0.57022  0.31895  0.13873  1.0000
  H   H11       1.0  0.18178  0.93032  0.36096  1.0000
  H   H12       1.0  0.42998  0.68110  0.86126  1.0000
  C   C1        1.0  0.64525  0.12042  0.42553  1.0000
  C   C2        1.0  0.30559  0.14425  0.92537  1.0000
  C   C3        1.0  0.78121  0.80592  0.42551  1.0000
  C   C4        1.0  0.62000  0.28168  0.92521  1.0000
  C   C5        1.0  0.35554  0.87942  0.57446  1.0000
  C   C6        1.0  0.69484  0.85534  0.07480  1.0000
  C   C7        1.0  0.21873  0.19440  0.57448  1.0000
  C   C8        1.0  0.37947  0.71865  0.07490  1.0000
  C   C9        1.0  0.53378  0.23484  0.36043  1.0000
  C   C10       1.0  0.12504  0.03271  0.86022  1.0000
  C   C11       1.0  0.82678  0.62571  0.36038  1.0000
  C   C12       1.0  0.73512  0.32805  0.85994  1.0000
  C   C13       1.0  0.46723  0.76416  0.63969  1.0000
  C   C14       1.0  0.87453  0.96627  0.13965  1.0000
  C   C15       1.0  0.17194  0.37506  0.63969  1.0000
  C   C16       1.0  0.26454  0.67281  0.13984  1.0000
  C   C17       1.0  0.69106  0.17362  0.51900  1.0000
  C   C18       1.0  0.34642  0.19030  0.01888  1.0000
  C   C19       1.0  0.82808  0.84632  0.51899  1.0000
  C   C20       1.0  0.67321  0.32862  0.01870  1.0000
  C   C21       1.0  0.30972  0.82653  0.48095  1.0000
  C   C22       1.0  0.65378  0.80926  0.98142  1.0000
  C   C23       1.0  0.17209  0.15386  0.48098  1.0000
  C   C24       1.0  0.32690  0.67202  0.98154  1.0000
  C   C25       1.0  0.78258  0.03329  0.56574  1.0000
  C   C26       1.0  0.53326  0.28254  0.06535  1.0000
  C   C27       1.0  0.21796  0.96697  0.43436  1.0000
  C   C28       1.0  0.46678  0.71745  0.93464  1.0000
  N   N1        1.0  0.69160  0.94138  0.38202  1.0000
  N   N2        1.0  0.44118  0.19154  0.88227  1.0000
  N   N3        1.0  0.30850  0.05844  0.61746  1.0000
  N   N4        1.0  0.55915  0.80881  0.11869  1.0000
  O   O1        1.0  0.51234  0.13879  0.27593  1.0000
  O   O2        1.0  0.13287  0.01162  0.77547  1.0000
  O   O3        1.0  0.76067  0.63542  0.27587  1.0000
  O   O4        1.0  0.64244  0.26420  0.77524  1.0000
  O   O5        1.0  0.48870  0.85715  0.72433  1.0000
  O   O6        1.0  0.86489  0.98651  0.22443  1.0000
  O   O7        1.0  0.23536  0.36734  0.72435  1.0000
  O   O8        1.0  0.35903  0.73728  0.22451  1.0000
  O   O9        1.0  0.46076  0.39728  0.38427  1.0000
  O   O10       1.0  0.98836  0.96002  0.88532  1.0000
  O   O11       1.0  0.92509  0.48799  0.38417  1.0000
  O   O12       1.0  0.89684  0.42590  0.88490  1.0000
  O   O13       1.0  0.54002  0.60211  0.61451  1.0000
  O   O14       1.0  0.01239  0.04028  0.11580  1.0000
  O   O15       1.0  0.07365  0.51156  0.61445  1.0000
  O   O16       1.0  0.10255  0.57538  0.11593  1.0000
