data_image0
_chemical_formula_structural       Mn2P4H36C24N4O16
_chemical_formula_sum              "Mn2 P4 H36 C24 N4 O16"
_cell_length_a       9.3852
_cell_length_b       9.38519
_cell_length_c       9.6266
_cell_angle_alpha    100.94
_cell_angle_beta     100.94
_cell_angle_gamma    100.81

_space_group_name_H-M_alt    "P 1"
_space_group_IT_number       1

loop_
  _space_group_symop_operation_xyz
  'x, y, z'

loop_
  _atom_site_type_symbol
  _atom_site_label
  _atom_site_symmetry_multiplicity
  _atom_site_fract_x
  _atom_site_fract_y
  _atom_site_fract_z
  _atom_site_occupancy
  Mn  Mn1       1.0  0.77688  0.22312  0.75000  1.0000
  Mn  Mn2       1.0  0.22312  0.77688  0.25000  1.0000
  P   P1        1.0  0.69078  0.39771  0.05999  1.0000
  P   P2        1.0  0.60229  0.30921  0.44001  1.0000
  P   P3        1.0  0.30921  0.60229  0.94002  1.0000
  P   P4        1.0  0.39771  0.69079  0.55998  1.0000
  H   H1        1.0  0.57834  0.21887  0.15935  1.0000
  H   H2        1.0  0.78113  0.42166  0.34065  1.0000
  H   H3        1.0  0.42165  0.78113  0.84065  1.0000
  H   H4        1.0  0.21887  0.57835  0.65935  1.0000
  H   H5        1.0  0.01627  0.44561  0.74895  1.0000
  H   H6        1.0  0.55439  0.98373  0.75105  1.0000
  H   H7        1.0  0.98373  0.55439  0.25105  1.0000
  H   H8        1.0  0.44560  0.01626  0.24895  1.0000
  H   H9        1.0  0.87663  0.41375  0.60769  1.0000
  H   H10       1.0  0.58625  0.12337  0.89231  1.0000
  H   H11       1.0  0.12337  0.58625  0.39231  1.0000
  H   H12       1.0  0.41375  0.87663  0.10769  1.0000
  H   H13       1.0  0.53209  0.53452  0.16753  1.0000
  H   H14       1.0  0.46548  0.46791  0.33247  1.0000
  H   H15       1.0  0.46791  0.46549  0.83247  1.0000
  H   H16       1.0  0.53451  0.53208  0.66754  1.0000
  H   H17       1.0  0.63528  0.63415  0.06647  1.0000
  H   H18       1.0  0.36585  0.36472  0.43353  1.0000
  H   H19       1.0  0.36472  0.36584  0.93352  1.0000
  H   H20       1.0  0.63416  0.63528  0.56648  1.0000
  H   H21       1.0  0.04567  0.81701  0.64612  1.0000
  H   H22       1.0  0.18299  0.95433  0.85388  1.0000
  H   H23       1.0  0.95432  0.18299  0.35388  1.0000
  H   H24       1.0  0.81702  0.04568  0.14612  1.0000
  H   H25       1.0  0.87666  0.68600  0.40368  1.0000
  H   H26       1.0  0.31401  0.12335  0.09631  1.0000
  H   H27       1.0  0.12334  0.31400  0.59632  1.0000
  H   H28       1.0  0.68600  0.87666  0.90368  1.0000
  H   H29       1.0  0.65513  0.78958  0.31232  1.0000
  H   H30       1.0  0.21042  0.34487  0.18768  1.0000
  H   H31       1.0  0.34487  0.21042  0.68768  1.0000
  H   H32       1.0  0.78958  0.65513  0.81232  1.0000
  H   H33       1.0  0.61857  0.01791  0.46054  1.0000
  H   H34       1.0  0.98209  0.38143  0.03946  1.0000
  H   H35       1.0  0.38143  0.98209  0.53947  1.0000
  H   H36       1.0  0.01791  0.61857  0.96053  1.0000
  C   C1        1.0  0.56758  0.52418  0.06440  1.0000
  C   C2        1.0  0.47582  0.43242  0.43561  1.0000
  C   C3        1.0  0.43242  0.47582  0.93561  1.0000
  C   C4        1.0  0.52418  0.56757  0.56439  1.0000
  C   C5        1.0  0.92428  0.98935  0.67974  1.0000
  C   C6        1.0  0.01065  0.07572  0.82026  1.0000
  C   C7        1.0  0.07572  0.01066  0.32027  1.0000
  C   C8        1.0  0.98935  0.92428  0.17973  1.0000
  C   C9        1.0  0.95098  0.85935  0.60117  1.0000
  C   C10       1.0  0.14065  0.04902  0.89883  1.0000
  C   C11       1.0  0.04902  0.14064  0.39883  1.0000
  C   C12       1.0  0.85936  0.95098  0.10116  1.0000
  C   C13       1.0  0.85710  0.78626  0.46685  1.0000
  C   C14       1.0  0.21374  0.14290  0.03315  1.0000
  C   C15       1.0  0.14289  0.21373  0.53315  1.0000
  C   C16       1.0  0.78627  0.85711  0.96685  1.0000
  C   C17       1.0  0.73537  0.84401  0.41472  1.0000
  C   C18       1.0  0.15599  0.26463  0.08528  1.0000
  C   C19       1.0  0.26462  0.15598  0.58527  1.0000
  C   C20       1.0  0.84402  0.73538  0.91472  1.0000
  C   C21       1.0  0.71294  0.97200  0.49666  1.0000
  C   C22       1.0  0.02800  0.28706  0.00334  1.0000
  C   C23       1.0  0.28706  0.02800  0.50335  1.0000
  C   C24       1.0  0.97200  0.71294  0.99665  1.0000
  N   N1        1.0  0.80586  0.04753  0.62688  1.0000
  N   N2        1.0  0.95247  0.19414  0.87312  1.0000
  N   N3        1.0  0.19414  0.95247  0.37312  1.0000
  N   N4        1.0  0.04753  0.80586  0.12688  1.0000
  O   O1        1.0  0.74061  0.38327  0.91867  1.0000
  O   O2        1.0  0.61673  0.25939  0.58133  1.0000
  O   O3        1.0  0.25939  0.61672  0.08132  1.0000
  O   O4        1.0  0.38328  0.74061  0.41868  1.0000
  O   O5        1.0  0.59393  0.23698  0.05927  1.0000
  O   O6        1.0  0.76302  0.40607  0.44073  1.0000
  O   O7        1.0  0.40607  0.76302  0.94073  1.0000
  O   O8        1.0  0.23698  0.59393  0.55927  1.0000
  O   O9        1.0  0.81292  0.45159  0.20163  1.0000
  O   O10       1.0  0.54840  0.18707  0.29837  1.0000
  O   O11       1.0  0.18707  0.54841  0.79837  1.0000
  O   O12       1.0  0.45159  0.81293  0.70163  1.0000
  O   O13       1.0  0.90781  0.39883  0.70691  1.0000
  O   O14       1.0  0.60117  0.09219  0.79309  1.0000
  O   O15       1.0  0.09218  0.60116  0.29309  1.0000
  O   O16       1.0  0.39885  0.90782  0.20691  1.0000
