data_image0
_chemical_formula_structural       Mn2H34C44N4O8
_chemical_formula_sum              "Mn2 H34 C44 N4 O8"
_cell_length_a       9.73582
_cell_length_b       9.89645
_cell_length_c       10.8485
_cell_angle_alpha    101.146
_cell_angle_beta     111.575
_cell_angle_gamma    98.17

_space_group_name_H-M_alt    "P 1"
_space_group_IT_number       1

loop_
  _space_group_symop_operation_xyz
  'x, y, z'

loop_
  _atom_site_type_symbol
  _atom_site_label
  _atom_site_symmetry_multiplicity
  _atom_site_fract_x
  _atom_site_fract_y
  _atom_site_fract_z
  _atom_site_occupancy
  Mn  Mn1       1.0  0.38715  0.05694  0.37957  1.0000
  Mn  Mn2       1.0  0.61285  0.94306  0.62043  1.0000
  H   H1        1.0  0.50732  0.78637  0.08134  1.0000
  H   H2        1.0  0.49268  0.21363  0.91866  1.0000
  H   H3        1.0  0.29999  0.65436  0.64817  1.0000
  H   H4        1.0  0.70001  0.34563  0.35182  1.0000
  H   H5        1.0  0.46936  0.29657  0.13953  1.0000
  H   H6        1.0  0.53064  0.70343  0.86047  1.0000
  H   H7        1.0  0.46774  0.49363  0.31971  1.0000
  H   H8        1.0  0.53226  0.50637  0.68028  1.0000
  H   H9        1.0  0.97260  0.13004  0.78362  1.0000
  H   H10       1.0  0.02740  0.86997  0.21638  1.0000
  H   H11       1.0  0.14939  0.51245  0.12310  1.0000
  H   H12       1.0  0.85061  0.48756  0.87691  1.0000
  H   H13       1.0  0.10714  0.42682  0.95055  1.0000
  H   H14       1.0  0.89286  0.57318  0.04946  1.0000
  H   H15       1.0  0.39594  0.94731  0.08352  1.0000
  H   H16       1.0  0.60406  0.05269  0.91649  1.0000
  H   H17       1.0  0.96381  0.78747  0.34109  1.0000
  H   H18       1.0  0.03619  0.21252  0.65891  1.0000
  H   H19       1.0  0.93048  0.33912  0.11785  1.0000
  H   H20       1.0  0.06952  0.66088  0.88215  1.0000
  H   H21       1.0  0.88069  0.25602  0.94325  1.0000
  H   H22       1.0  0.11931  0.74399  0.05675  1.0000
  H   H23       1.0  0.24098  0.29374  0.42804  1.0000
  H   H24       1.0  0.75902  0.70627  0.57196  1.0000
  H   H25       1.0  0.04368  0.27831  0.33167  1.0000
  H   H26       1.0  0.95632  0.72169  0.66833  1.0000
  H   H27       1.0  0.18005  0.42209  0.33868  1.0000
  H   H28       1.0  0.81995  0.57791  0.66132  1.0000
  H   H29       1.0  0.22877  0.42895  0.70403  1.0000
  H   H30       1.0  0.77122  0.57105  0.29597  1.0000
  H   H31       1.0  0.10263  0.97349  0.68079  1.0000
  H   H32       1.0  0.89737  0.02651  0.31921  1.0000
  H   H33       1.0  0.31303  0.88543  0.82668  1.0000
  H   H34       1.0  0.68696  0.11456  0.17332  1.0000
  C   C1        1.0  0.49820  0.67915  0.09354  1.0000
  C   C2        1.0  0.50180  0.32085  0.90645  1.0000
  C   C3        1.0  0.18369  0.63576  0.57272  1.0000
  C   C4        1.0  0.81630  0.36423  0.42728  1.0000
  C   C5        1.0  0.47825  0.40391  0.12735  1.0000
  C   C6        1.0  0.52175  0.59609  0.87265  1.0000
  C   C7        1.0  0.26472  0.85684  0.51544  1.0000
  C   C8        1.0  0.73528  0.14315  0.48455  1.0000
  C   C9        1.0  0.07563  0.51270  0.55188  1.0000
  C   C10       1.0  0.92437  0.48730  0.44811  1.0000
  C   C11       1.0  0.47571  0.51272  0.22658  1.0000
  C   C12       1.0  0.52429  0.48728  0.77342  1.0000
  C   C13       1.0  0.06795  0.09512  0.84887  1.0000
  C   C14       1.0  0.93205  0.90488  0.15113  1.0000
  C   C15       1.0  0.05533  0.45358  0.02415  1.0000
  C   C16       1.0  0.94467  0.54642  0.97585  1.0000
  C   C17       1.0  0.47785  0.76967  0.31580  1.0000
  C   C18       1.0  0.52215  0.23033  0.68419  1.0000
  C   C19       1.0  0.30709  0.98869  0.01811  1.0000
  C   C20       1.0  0.69291  0.01131  0.98190  1.0000
  C   C21       1.0  0.23625  0.07941  0.07614  1.0000
  C   C22       1.0  0.76375  0.92060  0.92386  1.0000
  C   C23       1.0  0.99404  0.70868  0.39692  1.0000
  C   C24       1.0  0.00596  0.29131  0.60307  1.0000
  C   C25       1.0  0.50577  0.57058  0.99179  1.0000
  C   C26       1.0  0.49423  0.42942  0.00822  1.0000
  C   C27       1.0  0.16790  0.22279  0.21168  1.0000
  C   C28       1.0  0.83211  0.77721  0.78832  1.0000
  C   C29       1.0  0.48350  0.65180  0.20906  1.0000
  C   C30       1.0  0.51651  0.34820  0.79094  1.0000
  C   C31       1.0  0.97687  0.31635  0.03991  1.0000
  C   C32       1.0  0.02314  0.68365  0.96010  1.0000
  C   C33       1.0  0.12125  0.13397  0.99163  1.0000
  C   C34       1.0  0.87875  0.86603  0.00837  1.0000
  C   C35       1.0  0.15792  0.30876  0.33423  1.0000
  C   C36       1.0  0.84208  0.69125  0.66577  1.0000
  C   C37       1.0  0.11299  0.41141  0.62775  1.0000
  C   C38       1.0  0.88701  0.58859  0.37225  1.0000
  C   C39       1.0  0.14483  0.73230  0.49637  1.0000
  C   C40       1.0  0.85517  0.26770  0.50363  1.0000
  C   C41       1.0  0.13978  0.00495  0.79219  1.0000
  C   C42       1.0  0.86022  0.99505  0.20782  1.0000
  C   C43       1.0  0.25857  0.95378  0.87550  1.0000
  C   C44       1.0  0.74143  0.04622  0.12451  1.0000
  N   N1        1.0  0.26076  0.13477  0.21304  1.0000
  N   N2        1.0  0.73924  0.86523  0.78696  1.0000
  N   N3        1.0  0.08095  0.22453  0.08043  1.0000
  N   N4        1.0  0.91905  0.77547  0.91958  1.0000
  O   O1        1.0  0.39764  0.85520  0.27258  1.0000
  O   O2        1.0  0.60236  0.14480  0.72742  1.0000
  O   O3        1.0  0.22975  0.93552  0.43355  1.0000
  O   O4        1.0  0.77025  0.06448  0.56646  1.0000
  O   O5        1.0  0.55356  0.77504  0.44144  1.0000
  O   O6        1.0  0.44644  0.22496  0.55856  1.0000
  O   O7        1.0  0.39544  0.87340  0.61078  1.0000
  O   O8        1.0  0.60456  0.12659  0.38921  1.0000
