data_image0
_chemical_formula_structural       Na4H80C52N4O8
_chemical_formula_sum              "Na4 H80 C52 N4 O8"
_cell_length_a       10.3882
_cell_length_b       10.7672
_cell_length_c       15.9995
_cell_angle_alpha    90.0002
_cell_angle_beta     90
_cell_angle_gamma    97.7811

_space_group_name_H-M_alt    "P 1"
_space_group_IT_number       1

loop_
  _space_group_symop_operation_xyz
  'x, y, z'

loop_
  _atom_site_type_symbol
  _atom_site_label
  _atom_site_symmetry_multiplicity
  _atom_site_fract_x
  _atom_site_fract_y
  _atom_site_fract_z
  _atom_site_occupancy
  Na  Na1       1.0  0.48831  0.51794  0.90435  1.0000
  Na  Na2       1.0  0.51169  0.98206  0.40435  1.0000
  Na  Na3       1.0  0.51169  0.48206  0.09566  1.0000
  Na  Na4       1.0  0.48831  0.01794  0.59565  1.0000
  H   H1        1.0  0.91913  0.42757  0.03072  1.0000
  H   H2        1.0  0.08087  0.07242  0.53071  1.0000
  H   H3        1.0  0.08087  0.57242  0.96928  1.0000
  H   H4        1.0  0.91913  0.92758  0.46928  1.0000
  H   H5        1.0  0.96140  0.21437  0.05698  1.0000
  H   H6        1.0  0.03860  0.28563  0.55698  1.0000
  H   H7        1.0  0.03860  0.78562  0.94302  1.0000
  H   H8        1.0  0.96140  0.71438  0.44302  1.0000
  H   H9        1.0  0.78583  0.03139  0.04426  1.0000
  H   H10       1.0  0.21417  0.46861  0.54427  1.0000
  H   H11       1.0  0.21417  0.96861  0.95573  1.0000
  H   H12       1.0  0.78583  0.53139  0.45573  1.0000
  H   H13       1.0  0.56253  0.07319  0.00264  1.0000
  H   H14       1.0  0.43747  0.42680  0.50264  1.0000
  H   H15       1.0  0.43747  0.92681  0.99736  1.0000
  H   H16       1.0  0.56252  0.57319  0.49736  1.0000
  H   H17       1.0  0.51792  0.28623  0.97378  1.0000
  H   H18       1.0  0.48208  0.21377  0.47378  1.0000
  H   H19       1.0  0.48208  0.71378  0.02622  1.0000
  H   H20       1.0  0.51792  0.78622  0.52622  1.0000
  H   H21       1.0  0.87375  0.57415  0.96175  1.0000
  H   H22       1.0  0.12625  0.92584  0.46175  1.0000
  H   H23       1.0  0.12625  0.42585  0.03825  1.0000
  H   H24       1.0  0.87375  0.07415  0.53825  1.0000
  H   H25       1.0  0.73562  0.67717  0.86709  1.0000
  H   H26       1.0  0.26437  0.82283  0.36709  1.0000
  H   H27       1.0  0.26437  0.32283  0.13291  1.0000
  H   H28       1.0  0.73563  0.17717  0.63291  1.0000
  H   H29       1.0  0.82152  0.79013  0.93502  1.0000
  H   H30       1.0  0.17848  0.70986  0.43502  1.0000
  H   H31       1.0  0.17847  0.20987  0.06498  1.0000
  H   H32       1.0  0.82153  0.29013  0.56498  1.0000
  H   H33       1.0  0.65468  0.73808  0.95288  1.0000
  H   H34       1.0  0.34532  0.76192  0.45288  1.0000
  H   H35       1.0  0.34532  0.26192  0.04712  1.0000
  H   H36       1.0  0.65468  0.23808  0.54712  1.0000
  H   H37       1.0  0.82983  0.57018  0.11821  1.0000
  H   H38       1.0  0.17017  0.92983  0.61821  1.0000
  H   H39       1.0  0.17017  0.42983  0.88179  1.0000
  H   H40       1.0  0.82983  0.07017  0.38179  1.0000
  H   H41       1.0  0.72441  0.68592  0.10220  1.0000
  H   H42       1.0  0.27559  0.81408  0.60220  1.0000
  H   H43       1.0  0.27559  0.31409  0.89780  1.0000
  H   H44       1.0  0.72441  0.18591  0.39780  1.0000
  H   H45       1.0  0.89378  0.72126  0.08064  1.0000
  H   H46       1.0  0.10622  0.77874  0.58064  1.0000
  H   H47       1.0  0.10622  0.27874  0.91936  1.0000
  H   H48       1.0  0.89378  0.22126  0.41936  1.0000
  H   H49       1.0  0.49581  0.63182  0.66501  1.0000
  H   H50       1.0  0.50418  0.86818  0.16501  1.0000
  H   H51       1.0  0.50418  0.36818  0.33499  1.0000
  H   H52       1.0  0.49582  0.13182  0.83499  1.0000
  H   H53       1.0  0.62032  0.60606  0.73790  1.0000
  H   H54       1.0  0.37968  0.89394  0.23790  1.0000
  H   H55       1.0  0.37968  0.39394  0.26210  1.0000
  H   H56       1.0  0.62032  0.10606  0.76210  1.0000
  H   H57       1.0  0.28522  0.70569  0.83516  1.0000
  H   H58       1.0  0.71478  0.79431  0.33516  1.0000
  H   H59       1.0  0.71478  0.29432  0.16484  1.0000
  H   H60       1.0  0.28522  0.20568  0.66484  1.0000
  H   H61       1.0  0.29231  0.68730  0.72351  1.0000
  H   H62       1.0  0.70768  0.81270  0.22351  1.0000
  H   H63       1.0  0.70768  0.31270  0.27649  1.0000
  H   H64       1.0  0.29232  0.18730  0.77649  1.0000
  H   H65       1.0  0.45067  0.89122  0.83019  1.0000
  H   H66       1.0  0.54932  0.60879  0.33019  1.0000
  H   H67       1.0  0.54933  0.10879  0.16981  1.0000
  H   H68       1.0  0.45068  0.39121  0.66981  1.0000
  H   H69       1.0  0.32582  0.91431  0.75675  1.0000
  H   H70       1.0  0.67418  0.58569  0.25675  1.0000
  H   H71       1.0  0.67418  0.08569  0.24325  1.0000
  H   H72       1.0  0.32582  0.41431  0.74325  1.0000
  H   H73       1.0  0.66401  0.81735  0.66288  1.0000
  H   H74       1.0  0.33598  0.68265  0.16288  1.0000
  H   H75       1.0  0.33598  0.18265  0.33712  1.0000
  H   H76       1.0  0.66402  0.31735  0.83712  1.0000
  H   H77       1.0  0.65227  0.83344  0.77469  1.0000
  H   H78       1.0  0.34773  0.66656  0.27469  1.0000
  H   H79       1.0  0.34773  0.16656  0.22531  1.0000
  H   H80       1.0  0.65227  0.33344  0.72531  1.0000
  C   C1        1.0  0.83933  0.35164  0.02333  1.0000
  C   C2        1.0  0.16068  0.14835  0.52332  1.0000
  C   C3        1.0  0.16068  0.64836  0.97667  1.0000
  C   C4        1.0  0.83933  0.85165  0.47667  1.0000
  C   C5        1.0  0.86350  0.22935  0.03845  1.0000
  C   C6        1.0  0.13650  0.27065  0.53845  1.0000
  C   C7        1.0  0.13650  0.77064  0.96155  1.0000
  C   C8        1.0  0.86350  0.72935  0.46154  1.0000
  C   C9        1.0  0.76588  0.12652  0.03196  1.0000
  C   C10       1.0  0.23412  0.37348  0.53196  1.0000
  C   C11       1.0  0.23413  0.87348  0.96804  1.0000
  C   C12       1.0  0.76587  0.62652  0.46803  1.0000
  C   C13       1.0  0.64140  0.15063  0.00878  1.0000
  C   C14       1.0  0.35860  0.34937  0.50879  1.0000
  C   C15       1.0  0.35860  0.84937  0.99122  1.0000
  C   C16       1.0  0.64140  0.65063  0.49122  1.0000
  C   C17       1.0  0.61567  0.27158  0.99321  1.0000
  C   C18       1.0  0.38433  0.22842  0.49321  1.0000
  C   C19       1.0  0.38433  0.72842  0.00680  1.0000
  C   C20       1.0  0.61568  0.77158  0.50679  1.0000
  C   C21       1.0  0.71299  0.37938  0.99960  1.0000
  C   C22       1.0  0.28701  0.12062  0.49960  1.0000
  C   C23       1.0  0.28701  0.62062  0.00040  1.0000
  C   C24       1.0  0.71300  0.87938  0.50040  1.0000
  C   C25       1.0  0.78218  0.60078  0.98741  1.0000
  C   C26       1.0  0.21782  0.89922  0.48741  1.0000
  C   C27       1.0  0.21783  0.39922  0.01259  1.0000
  C   C28       1.0  0.78218  0.10078  0.51259  1.0000
  C   C29       1.0  0.74669  0.70752  0.93258  1.0000
  C   C30       1.0  0.25331  0.79247  0.43258  1.0000
  C   C31       1.0  0.25331  0.29248  0.06741  1.0000
  C   C32       1.0  0.74669  0.20752  0.56742  1.0000
  C   C33       1.0  0.80966  0.64739  0.07736  1.0000
  C   C34       1.0  0.19035  0.85262  0.57737  1.0000
  C   C35       1.0  0.19035  0.35262  0.92264  1.0000
  C   C36       1.0  0.80966  0.14738  0.42264  1.0000
  C   C37       1.0  0.54381  0.66424  0.72423  1.0000
  C   C38       1.0  0.45619  0.83576  0.22423  1.0000
  C   C39       1.0  0.45619  0.33577  0.27577  1.0000
  C   C40       1.0  0.54381  0.16423  0.77577  1.0000
  C   C41       1.0  0.34817  0.72032  0.77995  1.0000
  C   C42       1.0  0.65183  0.77968  0.27995  1.0000
  C   C43       1.0  0.65183  0.27969  0.22005  1.0000
  C   C44       1.0  0.34817  0.22031  0.72005  1.0000
  C   C45       1.0  0.40287  0.85736  0.77134  1.0000
  C   C46       1.0  0.59712  0.64264  0.27134  1.0000
  C   C47       1.0  0.59713  0.14265  0.22866  1.0000
  C   C48       1.0  0.40288  0.35735  0.72866  1.0000
  C   C49       1.0  0.59910  0.80139  0.71707  1.0000
  C   C50       1.0  0.40090  0.69861  0.21708  1.0000
  C   C51       1.0  0.40090  0.19861  0.28292  1.0000
  C   C52       1.0  0.59910  0.30139  0.78292  1.0000
  N   N1        1.0  0.67864  0.49468  0.98357  1.0000
  N   N2        1.0  0.32136  0.00532  0.48356  1.0000
  N   N3        1.0  0.32136  0.50531  0.01644  1.0000
  N   N4        1.0  0.67864  0.99469  0.51644  1.0000
  O   O1        1.0  0.45162  0.64535  0.79171  1.0000
  O   O2        1.0  0.54838  0.85466  0.29172  1.0000
  O   O3        1.0  0.54837  0.35466  0.20829  1.0000
  O   O4        1.0  0.45162  0.14534  0.70829  1.0000
  O   O5        1.0  0.49551  0.87545  0.70385  1.0000
  O   O6        1.0  0.50449  0.62455  0.20385  1.0000
  O   O7        1.0  0.50449  0.12455  0.29615  1.0000
  O   O8        1.0  0.49551  0.37545  0.79615  1.0000
