data_image0
_chemical_formula_structural       Zn2H42C46N4O8
_chemical_formula_sum              "Zn2 H42 C46 N4 O8"
_cell_length_a       9.5917
_cell_length_b       10.7279
_cell_length_c       11.0686
_cell_angle_alpha    96.9792
_cell_angle_beta     104.505
_cell_angle_gamma    115.826

_space_group_name_H-M_alt    "P 1"
_space_group_IT_number       1

loop_
  _space_group_symop_operation_xyz
  'x, y, z'

loop_
  _atom_site_type_symbol
  _atom_site_label
  _atom_site_symmetry_multiplicity
  _atom_site_fract_x
  _atom_site_fract_y
  _atom_site_fract_z
  _atom_site_occupancy
  Zn  Zn1       1.0  0.46980  0.45173  0.11960  1.0000
  Zn  Zn2       1.0  0.53020  0.54826  0.88040  1.0000
  H   H1        1.0  0.02110  0.21122  0.13677  1.0000
  H   H2        1.0  0.97891  0.78878  0.86323  1.0000
  H   H3        1.0  0.92930  0.30816  0.19051  1.0000
  H   H4        1.0  0.07071  0.69184  0.80949  1.0000
  H   H5        1.0  0.98618  0.20552  0.28691  1.0000
  H   H6        1.0  0.01383  0.79448  0.71308  1.0000
  H   H7        1.0  0.22493  0.47264  0.22258  1.0000
  H   H8        1.0  0.77508  0.52736  0.77741  1.0000
  H   H9        1.0  0.19314  0.47542  0.37322  1.0000
  H   H10       1.0  0.80686  0.52458  0.62678  1.0000
  H   H11       1.0  0.71865  0.35314  0.26281  1.0000
  H   H12       1.0  0.28135  0.64686  0.73719  1.0000
  H   H13       1.0  0.83872  0.24104  0.41376  1.0000
  H   H14       1.0  0.16129  0.75896  0.58624  1.0000
  H   H15       1.0  0.72269  0.15617  0.58255  1.0000
  H   H16       1.0  0.27731  0.84383  0.41745  1.0000
  H   H17       1.0  0.48786  0.18550  0.61064  1.0000
  H   H18       1.0  0.51214  0.81450  0.38936  1.0000
  H   H19       1.0  0.19467  0.36277  0.51926  1.0000
  H   H20       1.0  0.80534  0.63724  0.48074  1.0000
  H   H21       1.0  0.33943  0.33239  0.62607  1.0000
  H   H22       1.0  0.66057  0.66761  0.37393  1.0000
  H   H23       1.0  0.15074  0.03987  0.34341  1.0000
  H   H24       1.0  0.84926  0.96013  0.65659  1.0000
  H   H25       1.0  0.06301  0.20452  0.67454  1.0000
  H   H26       1.0  0.93699  0.79548  0.32545  1.0000
  H   H27       1.0  0.35644  0.06341  0.73143  1.0000
  H   H28       1.0  0.64356  0.93659  0.26857  1.0000
  H   H29       1.0  0.36263  0.02173  0.88259  1.0000
  H   H30       1.0  0.63737  0.97826  0.11741  1.0000
  H   H31       1.0  0.52830  0.90336  0.88143  1.0000
  H   H32       1.0  0.47170  0.09664  0.11857  1.0000
  H   H33       1.0  0.79795  0.92168  0.90357  1.0000
  H   H34       1.0  0.20205  0.07832  0.09643  1.0000
  H   H35       1.0  0.02707  0.14483  0.89104  1.0000
  H   H36       1.0  0.97293  0.85517  0.10896  1.0000
  H   H37       1.0  0.70925  0.33336  0.83840  1.0000
  H   H38       1.0  0.29074  0.66664  0.16160  1.0000
  H   H39       1.0  0.98436  0.38813  0.74392  1.0000
  H   H40       1.0  0.01563  0.61187  0.25608  1.0000
  H   H41       1.0  0.00104  0.48243  0.89275  1.0000
  H   H42       1.0  0.99896  0.51757  0.10725  1.0000
  C   C1        1.0  0.02261  0.27492  0.22286  1.0000
  C   C2        1.0  0.97739  0.72508  0.77713  1.0000
  C   C3        1.0  0.19330  0.40747  0.29026  1.0000
  C   C4        1.0  0.80671  0.59253  0.70974  1.0000
  C   C5        1.0  0.32519  0.36882  0.33485  1.0000
  C   C6        1.0  0.67481  0.63118  0.66515  1.0000
  C   C7        1.0  0.53382  0.32809  0.35082  1.0000
  C   C8        1.0  0.46619  0.67192  0.64918  1.0000
  C   C9        1.0  0.66882  0.31553  0.33742  1.0000
  C   C10       1.0  0.33118  0.68447  0.66258  1.0000
  C   C11       1.0  0.73475  0.25385  0.42260  1.0000
  C   C12       1.0  0.26526  0.74615  0.57740  1.0000
  C   C13       1.0  0.66926  0.20564  0.51893  1.0000
  C   C14       1.0  0.33075  0.79436  0.48108  1.0000
  C   C15       1.0  0.53685  0.21986  0.53483  1.0000
  C   C16       1.0  0.46315  0.78014  0.46517  1.0000
  C   C17       1.0  0.47175  0.28215  0.44969  1.0000
  C   C18       1.0  0.52826  0.71785  0.55031  1.0000
  C   C19       1.0  0.25018  0.29234  0.52733  1.0000
  C   C20       1.0  0.74982  0.70766  0.47267  1.0000
  C   C21       1.0  0.12096  0.13989  0.50995  1.0000
  C   C22       1.0  0.87903  0.86011  0.49005  1.0000
  C   C23       1.0  0.08511  0.02352  0.41246  1.0000
  C   C24       1.0  0.91489  0.97648  0.58754  1.0000
  C   C25       1.0  0.03483  0.11468  0.59737  1.0000
  C   C26       1.0  0.96517  0.88532  0.40262  1.0000
  C   C27       1.0  0.43951  0.24424  0.88964  1.0000
  C   C28       1.0  0.56048  0.75575  0.11037  1.0000
  C   C29       1.0  0.42833  0.10164  0.83570  1.0000
  C   C30       1.0  0.57167  0.89836  0.16430  1.0000
  C   C31       1.0  0.59794  0.11654  0.85531  1.0000
  C   C32       1.0  0.40206  0.88346  0.14469  1.0000
  C   C33       1.0  0.62576  0.00172  0.87500  1.0000
  C   C34       1.0  0.37424  0.99828  0.12500  1.0000
  C   C35       1.0  0.77918  0.01232  0.88713  1.0000
  C   C36       1.0  0.22082  0.98768  0.11287  1.0000
  C   C37       1.0  0.90725  0.13738  0.88014  1.0000
  C   C38       1.0  0.09274  0.86262  0.11986  1.0000
  C   C39       1.0  0.88252  0.25431  0.86269  1.0000
  C   C40       1.0  0.11748  0.74569  0.13730  1.0000
  C   C41       1.0  0.72842  0.24235  0.85156  1.0000
  C   C42       1.0  0.27158  0.75764  0.14844  1.0000
  C   C43       1.0  0.01057  0.39054  0.84713  1.0000
  C   C44       1.0  0.98943  0.60946  0.15287  1.0000
  C   C45       1.0  0.18950  0.42750  0.90501  1.0000
  C   C46       1.0  0.81050  0.57250  0.09499  1.0000
  N   N1        1.0  0.43905  0.38082  0.28038  1.0000
  N   N2        1.0  0.56095  0.61918  0.71962  1.0000
  N   N3        1.0  0.34152  0.31073  0.43780  1.0000
  N   N4        1.0  0.65848  0.68928  0.56220  1.0000
  O   O1        1.0  0.42771  0.26618  0.00111  1.0000
  O   O2        1.0  0.57229  0.73382  0.99891  1.0000
  O   O3        1.0  0.46622  0.33312  0.82029  1.0000
  O   O4        1.0  0.53376  0.66687  0.17972  1.0000
  O   O5        1.0  0.23656  0.41355  0.01818  1.0000
  O   O6        1.0  0.76343  0.58644  0.98182  1.0000
  O   O7        1.0  0.27876  0.47338  0.83575  1.0000
  O   O8        1.0  0.72123  0.52662  0.16424  1.0000
