data_image0
_chemical_formula_structural       K4H58C40N4O2
_chemical_formula_sum              "K4 H58 C40 N4 O2"
_cell_length_a       9.35747
_cell_length_b       10.2954
_cell_length_c       11.9108
_cell_angle_alpha    74.5843
_cell_angle_beta     69.7735
_cell_angle_gamma    80.651

_space_group_name_H-M_alt    "P 1"
_space_group_IT_number       1

loop_
  _space_group_symop_operation_xyz
  'x, y, z'

loop_
  _atom_site_type_symbol
  _atom_site_label
  _atom_site_symmetry_multiplicity
  _atom_site_fract_x
  _atom_site_fract_y
  _atom_site_fract_z
  _atom_site_occupancy
  K   K1        1.0  0.00965  0.36783  0.90420  1.0000
  K   K2        1.0  0.99035  0.63217  0.09580  1.0000
  K   K3        1.0  0.82372  0.61177  0.63769  1.0000
  K   K4        1.0  0.17630  0.38822  0.36231  1.0000
  H   H1        1.0  0.14242  0.49727  0.64539  1.0000
  H   H2        1.0  0.85759  0.50273  0.35461  1.0000
  H   H3        1.0  0.41358  0.43851  0.54916  1.0000
  H   H4        1.0  0.58643  0.56149  0.45084  1.0000
  H   H5        1.0  0.50431  0.21457  0.49251  1.0000
  H   H6        1.0  0.49570  0.78543  0.50750  1.0000
  H   H7        1.0  0.30986  0.05089  0.53679  1.0000
  H   H8        1.0  0.69016  0.94911  0.46321  1.0000
  H   H9        1.0  0.03894  0.10512  0.63434  1.0000
  H   H10       1.0  0.96107  0.89487  0.36565  1.0000
  H   H11       1.0  0.84687  0.14425  0.76812  1.0000
  H   H12       1.0  0.15314  0.85575  0.23187  1.0000
  H   H13       1.0  0.70217  0.27222  0.92951  1.0000
  H   H14       1.0  0.29784  0.72778  0.07049  1.0000
  H   H15       1.0  0.57841  0.20694  0.87731  1.0000
  H   H16       1.0  0.42160  0.79306  0.12268  1.0000
  H   H17       1.0  0.61133  0.38126  0.82715  1.0000
  H   H18       1.0  0.38867  0.61874  0.17285  1.0000
  H   H19       1.0  0.84294  0.23716  0.55077  1.0000
  H   H20       1.0  0.15706  0.76284  0.44923  1.0000
  H   H21       1.0  0.69231  0.35780  0.60296  1.0000
  H   H22       1.0  0.30770  0.64220  0.39703  1.0000
  H   H23       1.0  0.66269  0.18265  0.65323  1.0000
  H   H24       1.0  0.33732  0.81736  0.34677  1.0000
  H   H25       1.0  0.81097  0.58676  0.96744  1.0000
  H   H26       1.0  0.18902  0.41323  0.03256  1.0000
  H   H27       1.0  0.58330  0.71364  0.92621  1.0000
  H   H28       1.0  0.41670  0.28636  0.07379  1.0000
  H   H29       1.0  0.60510  0.91263  0.74651  1.0000
  H   H30       1.0  0.39490  0.08737  0.25350  1.0000
  H   H31       1.0  0.86544  0.97388  0.60677  1.0000
  H   H32       1.0  0.13455  0.02612  0.39324  1.0000
  H   H33       1.0  0.09527  0.84991  0.64480  1.0000
  H   H34       1.0  0.90472  0.15009  0.35520  1.0000
  H   H35       1.0  0.25746  0.68764  0.66427  1.0000
  H   H36       1.0  0.74254  0.31236  0.33573  1.0000
  H   H37       1.0  0.34194  0.45948  0.77368  1.0000
  H   H38       1.0  0.65805  0.54052  0.22632  1.0000
  H   H39       1.0  0.37156  0.53717  0.88025  1.0000
  H   H40       1.0  0.62844  0.46284  0.11975  1.0000
  H   H41       1.0  0.48215  0.57793  0.72187  1.0000
  H   H42       1.0  0.51784  0.42207  0.27813  1.0000
  H   H43       1.0  0.20646  0.88403  0.77282  1.0000
  H   H44       1.0  0.79354  0.11598  0.22718  1.0000
  H   H45       1.0  0.40311  0.83063  0.71358  1.0000
  H   H46       1.0  0.59688  0.16937  0.28643  1.0000
  H   H47       1.0  0.30416  0.77923  0.87287  1.0000
  H   H48       1.0  0.69584  0.22077  0.12713  1.0000
  H   H49       1.0  0.06006  0.03324  0.09419  1.0000
  H   H50       1.0  0.93994  0.96676  0.90581  1.0000
  H   H51       1.0  0.14869  0.91192  0.00311  1.0000
  H   H52       1.0  0.85131  0.08807  0.99690  1.0000
  H   H53       1.0  0.36545  0.01069  0.86147  1.0000
  H   H54       1.0  0.63454  0.98931  0.13853  1.0000
  H   H55       1.0  0.33164  0.12144  0.96363  1.0000
  H   H56       1.0  0.66835  0.87856  0.03637  1.0000
  H   H57       1.0  0.35218  0.18962  0.80333  1.0000
  H   H58       1.0  0.64781  0.81038  0.19667  1.0000
  C   C1        1.0  0.17749  0.39868  0.62177  1.0000
  C   C2        1.0  0.82251  0.60132  0.37823  1.0000
  C   C3        1.0  0.33166  0.36531  0.56690  1.0000
  C   C4        1.0  0.66835  0.63470  0.43311  1.0000
  C   C5        1.0  0.38326  0.24010  0.53485  1.0000
  C   C6        1.0  0.61675  0.75990  0.46515  1.0000
  C   C7        1.0  0.27335  0.14908  0.56087  1.0000
  C   C8        1.0  0.72666  0.85093  0.43913  1.0000
  C   C9        1.0  0.11844  0.18036  0.61566  1.0000
  C   C10       1.0  0.88157  0.81964  0.38434  1.0000
  C   C11       1.0  0.06168  0.30713  0.65138  1.0000
  C   C12       1.0  0.93832  0.69287  0.34861  1.0000
  C   C13       1.0  0.80126  0.24980  0.74011  1.0000
  C   C14       1.0  0.19874  0.75020  0.25988  1.0000
  C   C15       1.0  0.66574  0.27898  0.84949  1.0000
  C   C16       1.0  0.33426  0.72102  0.15050  1.0000
  C   C17       1.0  0.74655  0.25673  0.63066  1.0000
  C   C18       1.0  0.25345  0.74327  0.36934  1.0000
  C   C19       1.0  0.82521  0.67192  0.88774  1.0000
  C   C20       1.0  0.17479  0.32808  0.11226  1.0000
  C   C21       1.0  0.69552  0.74441  0.86470  1.0000
  C   C22       1.0  0.30447  0.25559  0.13530  1.0000
  C   C23       1.0  0.70665  0.85525  0.76405  1.0000
  C   C24       1.0  0.29334  0.14475  0.23595  1.0000
  C   C25       1.0  0.85330  0.88932  0.68664  1.0000
  C   C26       1.0  0.14670  0.11068  0.31337  1.0000
  C   C27       1.0  0.98471  0.81791  0.70793  1.0000
  C   C28       1.0  0.01528  0.18209  0.29208  1.0000
  C   C29       1.0  0.97803  0.70594  0.81228  1.0000
  C   C30       1.0  0.02197  0.29405  0.18772  1.0000
  C   C31       1.0  0.24955  0.67012  0.76257  1.0000
  C   C32       1.0  0.75045  0.32988  0.23743  1.0000
  C   C33       1.0  0.36780  0.55409  0.78603  1.0000
  C   C34       1.0  0.63220  0.44592  0.21397  1.0000
  C   C35       1.0  0.29277  0.79916  0.78069  1.0000
  C   C36       1.0  0.70723  0.20084  0.21931  1.0000
  C   C37       1.0  0.07626  0.00770  0.00590  1.0000
  C   C38       1.0  0.92374  0.99230  0.99411  1.0000
  C   C39       1.0  0.30821  0.10750  0.88315  1.0000
  C   C40       1.0  0.69179  0.89249  0.11685  1.0000
  N   N1        1.0  0.91566  0.34514  0.71007  1.0000
  N   N2        1.0  0.08435  0.65486  0.28993  1.0000
  N   N3        1.0  0.09780  0.63263  0.84279  1.0000
  N   N4        1.0  0.90219  0.36736  0.15721  1.0000
  O   O1        1.0  0.14779  0.11156  0.90483  1.0000
  O   O2        1.0  0.85221  0.88844  0.09517  1.0000
