data_image0
_chemical_formula_structural       Co6H18C24O24
_chemical_formula_sum              "Co6 H18 C24 O24"
_cell_length_a       6.57734
_cell_length_b       15.3083
_cell_length_c       15.3116
_cell_angle_alpha    117.985
_cell_angle_beta     98.2204
_cell_angle_gamma    98.2469

_space_group_name_H-M_alt    "P 1"
_space_group_IT_number       1

loop_
  _space_group_symop_operation_xyz
  'x, y, z'

loop_
  _atom_site_type_symbol
  _atom_site_label
  _atom_site_symmetry_multiplicity
  _atom_site_fract_x
  _atom_site_fract_y
  _atom_site_fract_z
  _atom_site_occupancy
  Co  Co1       1.0  0.62816  0.59946  0.32078  1.0000
  Co  Co2       1.0  0.02860  0.72126  0.40042  1.0000
  Co  Co3       1.0  0.30748  0.67916  0.27869  1.0000
  Co  Co4       1.0  0.37184  0.40054  0.67922  1.0000
  Co  Co5       1.0  0.97140  0.27874  0.59958  1.0000
  Co  Co6       1.0  0.69253  0.32084  0.72130  1.0000
  H   H1        1.0  0.83831  0.45055  0.26713  1.0000
  H   H2        1.0  0.38764  0.81637  0.54919  1.0000
  H   H3        1.0  0.57143  0.73267  0.18339  1.0000
  H   H4        1.0  0.16172  0.54946  0.73285  1.0000
  H   H5        1.0  0.61234  0.18364  0.45082  1.0000
  H   H6        1.0  0.42853  0.26731  0.81659  1.0000
  H   H7        1.0  0.60576  0.41206  0.26644  1.0000
  H   H8        1.0  0.19381  0.85428  0.58786  1.0000
  H   H9        1.0  0.33967  0.73357  0.14578  1.0000
  H   H10       1.0  0.39431  0.58794  0.73357  1.0000
  H   H11       1.0  0.80614  0.14572  0.41214  1.0000
  H   H12       1.0  0.66030  0.26643  0.85422  1.0000
  H   H13       1.0  0.87932  0.02168  0.56818  1.0000
  H   H14       1.0  0.85763  0.54660  0.97828  1.0000
  H   H15       1.0  0.31107  0.43176  0.45344  1.0000
  H   H16       1.0  0.12067  0.97832  0.43182  1.0000
  H   H17       1.0  0.14239  0.45339  0.02172  1.0000
  H   H18       1.0  0.68893  0.56824  0.54657  1.0000
  C   C1        1.0  0.68629  0.82725  0.44812  1.0000
  C   C2        1.0  0.85914  0.62084  0.17268  1.0000
  C   C3        1.0  0.23817  0.55181  0.37909  1.0000
  C   C4        1.0  0.31370  0.17275  0.55188  1.0000
  C   C5        1.0  0.14087  0.37915  0.82732  1.0000
  C   C6        1.0  0.76184  0.44819  0.62091  1.0000
  C   C7        1.0  0.58499  0.91366  0.47270  1.0000
  C   C8        1.0  0.67142  0.55904  0.08631  1.0000
  C   C9        1.0  0.11229  0.52727  0.44093  1.0000
  C   C10       1.0  0.41499  0.08634  0.52731  1.0000
  C   C11       1.0  0.32860  0.44096  0.91369  1.0000
  C   C12       1.0  0.88772  0.47274  0.55907  1.0000
  C   C13       1.0  0.36521  0.90003  0.43208  1.0000
  C   C14       1.0  0.46524  0.53198  0.09994  1.0000
  C   C15       1.0  0.93308  0.56789  0.46793  1.0000
  C   C16       1.0  0.63478  0.09997  0.56792  1.0000
  C   C17       1.0  0.53479  0.46801  0.90006  1.0000
  C   C18       1.0  0.06692  0.43212  0.53208  1.0000
  C   C19       1.0  0.71228  0.01219  0.53840  1.0000
  C   C20       1.0  0.70010  0.52627  0.98779  1.0000
  C   C21       1.0  0.17386  0.46158  0.47376  1.0000
  C   C22       1.0  0.28771  0.98781  0.46160  1.0000
  C   C23       1.0  0.29992  0.47373  0.01220  1.0000
  C   C24       1.0  0.82615  0.53843  0.52624  1.0000
  O   O1        1.0  0.56044  0.73662  0.40248  1.0000
  O   O2        1.0  0.82392  0.66565  0.26330  1.0000
  O   O3        1.0  0.15812  0.59757  0.33423  1.0000
  O   O4        1.0  0.43956  0.26338  0.59752  1.0000
  O   O5        1.0  0.17609  0.33435  0.73670  1.0000
  O   O6        1.0  0.84188  0.40243  0.66577  1.0000
  O   O7        1.0  0.88531  0.84185  0.47297  1.0000
  O   O8        1.0  0.04359  0.63121  0.15810  1.0000
  O   O9        1.0  0.41228  0.52691  0.36876  1.0000
  O   O10       1.0  0.11468  0.15816  0.52704  1.0000
  O   O11       1.0  0.95643  0.36878  0.84190  1.0000
  O   O12       1.0  0.58772  0.47309  0.63124  1.0000
  O   O13       1.0  0.22914  0.80975  0.36725  1.0000
  O   O14       1.0  0.41941  0.55750  0.19021  1.0000
  O   O15       1.0  0.86174  0.63264  0.44241  1.0000
  O   O16       1.0  0.77085  0.19025  0.63275  1.0000
  O   O17       1.0  0.58061  0.44250  0.80979  1.0000
  O   O18       1.0  0.13825  0.36736  0.55759  1.0000
  O   O19       1.0  0.69162  0.44541  0.23853  1.0000
  O   O20       1.0  0.24607  0.79297  0.55439  1.0000
  O   O21       1.0  0.45353  0.76141  0.20697  1.0000
  O   O22       1.0  0.30840  0.55459  0.76147  1.0000
  O   O23       1.0  0.75391  0.20704  0.44561  1.0000
  O   O24       1.0  0.54646  0.23859  0.79303  1.0000
