data_image0
_chemical_formula_structural       Cu2P4H24C26N4O12
_chemical_formula_sum              "Cu2 P4 H24 C26 N4 O12"
_cell_length_a       4.87016
_cell_length_b       11.254
_cell_length_c       14.4254
_cell_angle_alpha    80.5594
_cell_angle_beta     80.2793
_cell_angle_gamma    77.5259

_space_group_name_H-M_alt    "P 1"
_space_group_IT_number       1

loop_
  _space_group_symop_operation_xyz
  'x, y, z'

loop_
  _atom_site_type_symbol
  _atom_site_label
  _atom_site_symmetry_multiplicity
  _atom_site_fract_x
  _atom_site_fract_y
  _atom_site_fract_z
  _atom_site_occupancy
  Cu  Cu1       1.0  0.72482  0.56557  0.44854  1.0000
  Cu  Cu2       1.0  0.26105  0.06530  0.94864  1.0000
  P   P1        1.0  0.10819  0.56919  0.60001  1.0000
  P   P2        1.0  0.72266  0.06931  0.10010  1.0000
  P   P3        1.0  0.83518  0.81107  0.49583  1.0000
  P   P4        1.0  0.85873  0.31100  0.99557  1.0000
  H   H1        1.0  0.21448  0.48348  0.73859  1.0000
  H   H2        1.0  0.56220  0.98387  0.23863  1.0000
  H   H3        1.0  0.36165  0.88493  0.49818  1.0000
  H   H4        1.0  0.25697  0.38469  0.99777  1.0000
  H   H5        1.0  0.92411  0.76231  0.65864  1.0000
  H   H6        1.0  0.65535  0.26259  0.15843  1.0000
  H   H7        1.0  0.65145  0.69009  0.63439  1.0000
  H   H8        1.0  0.02438  0.19036  0.13426  1.0000
  H   H9        1.0  0.45533  0.79527  0.32144  1.0000
  H   H10       1.0  0.42743  0.29498  0.82128  1.0000
  H   H11       1.0  0.13720  0.82912  0.19433  1.0000
  H   H12       1.0  0.83864  0.32891  0.69411  1.0000
  H   H13       1.0  0.99917  0.64657  0.14820  1.0000
  H   H14       1.0  0.20535  0.14642  0.64805  1.0000
  H   H15       1.0  0.49897  0.08827  0.40206  1.0000
  H   H16       1.0  0.01110  0.58823  0.90251  1.0000
  H   H17       1.0  0.82021  0.09271  0.51561  1.0000
  H   H18       1.0  0.57174  0.59245  0.01592  1.0000
  H   H19       1.0  0.92702  0.29829  0.53645  1.0000
  H   H20       1.0  0.23843  0.79806  0.03681  1.0000
  H   H21       1.0  0.19488  0.21255  0.27209  1.0000
  H   H22       1.0  0.32079  0.71263  0.77244  1.0000
  H   H23       1.0  0.02917  0.41192  0.17780  1.0000
  H   H24       1.0  0.38095  0.91189  0.67783  1.0000
  C   C1        1.0  0.86149  0.71309  0.60852  1.0000
  C   C2        1.0  0.81730  0.21328  0.10837  1.0000
  C   C3        1.0  0.38990  0.71957  0.29840  1.0000
  C   C4        1.0  0.59158  0.21932  0.79827  1.0000
  C   C5        1.0  0.21494  0.73631  0.22717  1.0000
  C   C6        1.0  0.82088  0.23612  0.72698  1.0000
  C   C7        1.0  0.13603  0.63580  0.20288  1.0000
  C   C8        1.0  0.02461  0.13564  0.70274  1.0000
  C   C9        1.0  0.22976  0.51748  0.25077  1.0000
  C   C10       1.0  0.00159  0.01734  0.75077  1.0000
  C   C11       1.0  0.40459  0.50993  0.32123  1.0000
  C   C12       1.0  0.76391  0.00974  0.82127  1.0000
  C   C13       1.0  0.50820  0.39453  0.37325  1.0000
  C   C14       1.0  0.72389  0.89433  0.87338  1.0000
  C   C15       1.0  0.43357  0.28618  0.35631  1.0000
  C   C16       1.0  0.92401  0.78608  0.85655  1.0000
  C   C17       1.0  0.54775  0.17563  0.41042  1.0000
  C   C18       1.0  0.86639  0.67554  0.91074  1.0000
  C   C19       1.0  0.72517  0.17802  0.47547  1.0000
  C   C20       1.0  0.62157  0.67784  0.97580  1.0000
  C   C21       1.0  0.78705  0.29055  0.48733  1.0000
  C   C22       1.0  0.43516  0.79032  0.98764  1.0000
  C   C23       1.0  0.25324  0.29597  0.28523  1.0000
  C   C24       1.0  0.16560  0.79599  0.78545  1.0000
  C   C25       1.0  0.15755  0.40657  0.23395  1.0000
  C   C26       1.0  0.20181  0.90654  0.73403  1.0000
  N   N1        1.0  0.48370  0.60914  0.34333  1.0000
  N   N2        1.0  0.56351  0.10889  0.84331  1.0000
  N   N3        1.0  0.67941  0.39575  0.43788  1.0000
  N   N4        1.0  0.48695  0.89549  0.93805  1.0000
  O   O1        1.0  0.01936  0.49752  0.53247  1.0000
  O   O2        1.0  0.95085  0.99725  0.03286  1.0000
  O   O3        1.0  0.41143  0.58640  0.58283  1.0000
  O   O4        1.0  0.41956  0.08655  0.08277  1.0000
  O   O5        1.0  0.05014  0.49308  0.70589  1.0000
  O   O6        1.0  0.74981  0.99375  0.20622  1.0000
  O   O7        1.0  0.81244  0.73035  0.42224  1.0000
  O   O8        1.0  0.03448  0.22983  0.92210  1.0000
  O   O9        1.0  0.07337  0.88215  0.47070  1.0000
  O   O10       1.0  0.57507  0.38253  0.97037  1.0000
  O   O11       1.0  0.54377  0.90674  0.51304  1.0000
  O   O12       1.0  0.03814  0.40648  0.01252  1.0000
