data_image0
_chemical_formula_structural       Cu2H32C40N12Cl2
_chemical_formula_sum              "Cu2 H32 C40 N12 Cl2"
_cell_length_a       9.55286
_cell_length_b       10.6527
_cell_length_c       11.2061
_cell_angle_alpha    83.0527
_cell_angle_beta     75.2452
_cell_angle_gamma    77.8186

_space_group_name_H-M_alt    "P 1"
_space_group_IT_number       1

loop_
  _space_group_symop_operation_xyz
  'x, y, z'

loop_
  _atom_site_type_symbol
  _atom_site_label
  _atom_site_symmetry_multiplicity
  _atom_site_fract_x
  _atom_site_fract_y
  _atom_site_fract_z
  _atom_site_occupancy
  Cu  Cu1       1.0  0.54875  0.50576  0.10423  1.0000
  Cu  Cu2       1.0  0.45125  0.49423  0.89577  1.0000
  H   H1        1.0  0.75513  0.30186  0.23916  1.0000
  H   H2        1.0  0.24485  0.69813  0.76084  1.0000
  H   H3        1.0  0.84543  0.18409  0.42084  1.0000
  H   H4        1.0  0.15455  0.81591  0.57916  1.0000
  H   H5        1.0  0.68224  0.18690  0.63107  1.0000
  H   H6        1.0  0.31775  0.81311  0.36894  1.0000
  H   H7        1.0  0.42153  0.30231  0.66973  1.0000
  H   H8        1.0  0.57846  0.69770  0.33027  1.0000
  H   H9        1.0  0.10275  0.53993  0.51330  1.0000
  H   H10       1.0  0.89724  0.46008  0.48670  1.0000
  H   H11       1.0  0.19764  0.49354  0.63282  1.0000
  H   H12       1.0  0.80235  0.50648  0.36718  1.0000
  H   H13       1.0  0.23220  0.24852  0.41967  1.0000
  H   H14       1.0  0.76781  0.75150  0.58033  1.0000
  H   H15       1.0  0.12591  0.05097  0.47500  1.0000
  H   H16       1.0  0.87412  0.94904  0.52499  1.0000
  H   H17       1.0  0.93133  0.03351  0.66969  1.0000
  H   H18       1.0  0.06870  0.96648  0.33029  1.0000
  H   H19       1.0  0.85111  0.21209  0.81015  1.0000
  H   H20       1.0  0.14891  0.78788  0.18985  1.0000
  H   H21       1.0  0.95057  0.52687  0.75071  1.0000
  H   H22       1.0  0.04943  0.47312  0.24929  1.0000
  H   H23       1.0  0.84854  0.41978  0.85294  1.0000
  H   H24       1.0  0.15146  0.58022  0.14706  1.0000
  H   H25       1.0  0.87833  0.23507  0.02018  1.0000
  H   H26       1.0  0.12167  0.76494  0.97982  1.0000
  H   H27       1.0  0.96385  0.10398  0.19700  1.0000
  H   H28       1.0  0.03614  0.89602  0.80299  1.0000
  H   H29       1.0  0.19564  0.12375  0.24796  1.0000
  H   H30       1.0  0.80434  0.87624  0.75204  1.0000
  H   H31       1.0  0.35567  0.27426  0.12026  1.0000
  H   H32       1.0  0.64432  0.72573  0.87975  1.0000
  C   C1        1.0  0.53753  0.36686  0.35364  1.0000
  C   C2        1.0  0.46246  0.63314  0.64636  1.0000
  C   C3        1.0  0.68360  0.30004  0.33160  1.0000
  C   C4        1.0  0.31639  0.69997  0.66840  1.0000
  C   C5        1.0  0.73180  0.23547  0.43324  1.0000
  C   C6        1.0  0.26819  0.76453  0.56676  1.0000
  C   C7        1.0  0.63823  0.23632  0.55373  1.0000
  C   C8        1.0  0.36177  0.76369  0.44627  1.0000
  C   C9        1.0  0.49272  0.30066  0.57677  1.0000
  C   C10       1.0  0.50727  0.69934  0.42323  1.0000
  C   C11       1.0  0.44474  0.36562  0.47367  1.0000
  C   C12       1.0  0.55525  0.63438  0.52633  1.0000
  C   C13       1.0  0.17599  0.46007  0.55143  1.0000
  C   C14       1.0  0.82401  0.53994  0.44857  1.0000
  C   C15       1.0  0.10817  0.33999  0.58600  1.0000
  C   C16       1.0  0.89184  0.66002  0.41400  1.0000
  C   C17       1.0  0.14996  0.24003  0.50627  1.0000
  C   C18       1.0  0.85005  0.75997  0.49372  1.0000
  C   C19       1.0  0.08891  0.12920  0.53662  1.0000
  C   C20       1.0  0.91112  0.87080  0.46337  1.0000
  C   C21       1.0  0.98152  0.11875  0.64602  1.0000
  C   C22       1.0  0.01851  0.88124  0.35398  1.0000
  C   C23       1.0  0.93758  0.21806  0.72561  1.0000
  C   C24       1.0  0.06244  0.78193  0.27438  1.0000
  C   C25       1.0  0.00161  0.32795  0.69778  1.0000
  C   C26       1.0  0.99839  0.67205  0.30222  1.0000
  C   C27       1.0  0.95705  0.42793  0.79229  1.0000
  C   C28       1.0  0.04295  0.57206  0.20771  1.0000
  C   C29       1.0  0.07344  0.32399  0.97082  1.0000
  C   C30       1.0  0.92656  0.67601  0.02918  1.0000
  C   C31       1.0  0.98233  0.24095  0.04078  1.0000
  C   C32       1.0  0.01766  0.75904  0.95922  1.0000
  C   C33       1.0  0.03069  0.17015  0.13979  1.0000
  C   C34       1.0  0.96930  0.82984  0.86022  1.0000
  C   C35       1.0  0.16306  0.18186  0.16900  1.0000
  C   C36       1.0  0.83693  0.81814  0.83100  1.0000
  C   C37       1.0  0.25301  0.26444  0.09992  1.0000
  C   C38       1.0  0.74699  0.73555  0.90008  1.0000
  C   C39       1.0  0.20629  0.33572  0.99861  1.0000
  C   C40       1.0  0.79371  0.66428  0.00140  1.0000
  N   N1        1.0  0.45707  0.44179  0.27494  1.0000
  N   N2        1.0  0.54292  0.55822  0.72506  1.0000
  N   N3        1.0  0.32210  0.48269  0.33879  1.0000
  N   N4        1.0  0.67790  0.51732  0.66121  1.0000
  N   N5        1.0  0.31364  0.43886  0.45887  1.0000
  N   N6        1.0  0.68635  0.56115  0.54113  1.0000
  N   N7        1.0  0.06333  0.40858  0.86994  1.0000
  N   N8        1.0  0.93667  0.59142  0.13007  1.0000
  N   N9        1.0  0.18148  0.46728  0.83564  1.0000
  N   N10       1.0  0.81852  0.53272  0.16436  1.0000
  N   N11       1.0  0.26798  0.42526  0.91226  1.0000
  N   N12       1.0  0.73202  0.57474  0.08774  1.0000
  Cl  Cl1       1.0  0.38428  0.67311  0.02181  1.0000
  Cl  Cl2       1.0  0.61573  0.32689  0.97819  1.0000
