data_image0
_chemical_formula_structural       Gd4As4H28C24N4O32
_chemical_formula_sum              "Gd4 As4 H28 C24 N4 O32"
_cell_length_a       6.91576
_cell_length_b       7.12618
_cell_length_c       21.155
_cell_angle_alpha    89.9998
_cell_angle_beta     89.9999
_cell_angle_gamma    105.279

_space_group_name_H-M_alt    "P 1"
_space_group_IT_number       1

loop_
  _space_group_symop_operation_xyz
  'x, y, z'

loop_
  _atom_site_type_symbol
  _atom_site_label
  _atom_site_symmetry_multiplicity
  _atom_site_fract_x
  _atom_site_fract_y
  _atom_site_fract_z
  _atom_site_occupancy
  Gd  Gd1       1.0  0.26021  0.03737  0.45841  1.0000
  Gd  Gd2       1.0  0.23980  0.96263  0.95841  1.0000
  Gd  Gd3       1.0  0.73980  0.96263  0.54159  1.0000
  Gd  Gd4       1.0  0.76021  0.03737  0.04159  1.0000
  As  As1       1.0  0.18421  0.75753  0.58234  1.0000
  As  As2       1.0  0.31579  0.24247  0.08234  1.0000
  As  As3       1.0  0.81579  0.24247  0.41766  1.0000
  As  As4       1.0  0.68421  0.75753  0.91766  1.0000
  H   H1        1.0  0.27996  0.14446  0.64343  1.0000
  H   H2        1.0  0.22004  0.85554  0.14343  1.0000
  H   H3        1.0  0.72003  0.85554  0.35657  1.0000
  H   H4        1.0  0.77996  0.14446  0.85657  1.0000
  H   H5        1.0  0.32634  0.25616  0.75498  1.0000
  H   H6        1.0  0.17366  0.74384  0.25498  1.0000
  H   H7        1.0  0.67366  0.74384  0.24502  1.0000
  H   H8        1.0  0.82635  0.25615  0.74502  1.0000
  H   H9        1.0  0.12379  0.54605  0.70663  1.0000
  H   H10       1.0  0.37621  0.45395  0.20663  1.0000
  H   H11       1.0  0.87621  0.45395  0.29337  1.0000
  H   H12       1.0  0.62379  0.54605  0.79337  1.0000
  H   H13       1.0  0.50026  0.35044  0.54068  1.0000
  H   H14       1.0  0.99973  0.64956  0.04068  1.0000
  H   H15       1.0  0.49974  0.64956  0.45932  1.0000
  H   H16       1.0  0.00026  0.35044  0.95932  1.0000
  H   H17       1.0  0.28106  0.39435  0.54574  1.0000
  H   H18       1.0  0.21894  0.60565  0.04574  1.0000
  H   H19       1.0  0.71894  0.60565  0.45426  1.0000
  H   H20       1.0  0.78105  0.39435  0.95426  1.0000
  H   H21       1.0  0.27726  0.68692  0.38968  1.0000
  H   H22       1.0  0.22274  0.31308  0.88968  1.0000
  H   H23       1.0  0.72273  0.31308  0.61032  1.0000
  H   H24       1.0  0.77727  0.68691  0.11032  1.0000
  H   H25       1.0  0.10196  0.60256  0.43654  1.0000
  H   H26       1.0  0.39804  0.39744  0.93654  1.0000
  H   H27       1.0  0.89805  0.39744  0.56347  1.0000
  H   H28       1.0  0.60196  0.60256  0.06346  1.0000
  C   C1        1.0  0.19619  0.83723  0.66898  1.0000
  C   C2        1.0  0.30381  0.16277  0.16898  1.0000
  C   C3        1.0  0.80380  0.16277  0.33102  1.0000
  C   C4        1.0  0.69619  0.83723  0.83102  1.0000
  C   C5        1.0  0.25432  0.03949  0.68217  1.0000
  C   C6        1.0  0.24568  0.96051  0.18217  1.0000
  C   C7        1.0  0.74567  0.96051  0.31783  1.0000
  C   C8        1.0  0.75432  0.03948  0.81783  1.0000
  C   C9        1.0  0.28034  0.10193  0.74361  1.0000
  C   C10       1.0  0.21966  0.89807  0.24361  1.0000
  C   C11       1.0  0.71966  0.89807  0.25639  1.0000
  C   C12       1.0  0.78034  0.10192  0.75639  1.0000
  C   C13       1.0  0.25075  0.96965  0.79596  1.0000
  C   C14       1.0  0.24926  0.03035  0.29596  1.0000
  C   C15       1.0  0.74925  0.03035  0.20404  1.0000
  C   C16       1.0  0.75074  0.96964  0.70404  1.0000
  C   C17       1.0  0.18888  0.76508  0.78025  1.0000
  C   C18       1.0  0.31112  0.23492  0.28025  1.0000
  C   C19       1.0  0.81111  0.23492  0.21975  1.0000
  C   C20       1.0  0.68888  0.76508  0.71975  1.0000
  C   C21       1.0  0.16538  0.70137  0.71689  1.0000
  C   C22       1.0  0.33462  0.29864  0.21689  1.0000
  C   C23       1.0  0.83461  0.29863  0.28311  1.0000
  C   C24       1.0  0.66538  0.70136  0.78311  1.0000
  N   N1        1.0  0.15881  0.62174  0.82825  1.0000
  N   N2        1.0  0.34119  0.37826  0.32825  1.0000
  N   N3        1.0  0.84118  0.37826  0.17175  1.0000
  N   N4        1.0  0.65881  0.62174  0.67175  1.0000
  O   O1        1.0  0.40395  0.89027  0.54791  1.0000
  O   O2        1.0  0.09605  0.10973  0.04791  1.0000
  O   O3        1.0  0.59605  0.10973  0.45209  1.0000
  O   O4        1.0  0.90395  0.89027  0.95209  1.0000
  O   O5        1.0  0.02576  0.85843  0.53799  1.0000
  O   O6        1.0  0.47424  0.14157  0.03799  1.0000
  O   O7        1.0  0.97425  0.14157  0.46201  1.0000
  O   O8        1.0  0.52576  0.85843  0.96201  1.0000
  O   O9        1.0  0.13121  0.51302  0.57630  1.0000
  O   O10       1.0  0.36879  0.48699  0.07629  1.0000
  O   O11       1.0  0.86879  0.48699  0.42370  1.0000
  O   O12       1.0  0.63121  0.51301  0.92370  1.0000
  O   O13       1.0  0.28552  0.03713  0.85216  1.0000
  O   O14       1.0  0.21449  0.96287  0.35216  1.0000
  O   O15       1.0  0.71450  0.96287  0.14784  1.0000
  O   O16       1.0  0.78551  0.03713  0.64784  1.0000
  O   O17       1.0  0.15230  0.66751  0.88580  1.0000
  O   O18       1.0  0.34771  0.33249  0.38580  1.0000
  O   O19       1.0  0.84770  0.33249  0.11420  1.0000
  O   O20       1.0  0.65230  0.66751  0.61420  1.0000
  O   O21       1.0  0.13794  0.44689  0.81315  1.0000
  O   O22       1.0  0.36206  0.55311  0.31315  1.0000
  O   O23       1.0  0.86206  0.55311  0.18685  1.0000
  O   O24       1.0  0.63794  0.44689  0.68685  1.0000
  O   O25       1.0  0.35756  0.30189  0.52966  1.0000
  O   O26       1.0  0.14243  0.69811  0.02966  1.0000
  O   O27       1.0  0.64244  0.69811  0.47034  1.0000
  O   O28       1.0  0.85756  0.30189  0.97034  1.0000
  O   O29       1.0  0.24268  0.69221  0.43466  1.0000
  O   O30       1.0  0.25732  0.30779  0.93465  1.0000
  O   O31       1.0  0.75733  0.30779  0.56535  1.0000
  O   O32       1.0  0.74267  0.69221  0.06535  1.0000
