data_image0
_chemical_formula_structural       Sm4As4H24C28N4O36
_chemical_formula_sum              "Sm4 As4 H24 C28 N4 O36"
_cell_length_a       7.05526
_cell_length_b       7.63838
_cell_length_c       21.232
_cell_angle_alpha    89.9999
_cell_angle_beta     89.9998
_cell_angle_gamma    107.56

_space_group_name_H-M_alt    "P 1"
_space_group_IT_number       1

loop_
  _space_group_symop_operation_xyz
  'x, y, z'

loop_
  _atom_site_type_symbol
  _atom_site_label
  _atom_site_symmetry_multiplicity
  _atom_site_fract_x
  _atom_site_fract_y
  _atom_site_fract_z
  _atom_site_occupancy
  Sm  Sm1       1.0  0.77424  0.58263  0.04263  1.0000
  Sm  Sm2       1.0  0.72576  0.91737  0.54263  1.0000
  Sm  Sm3       1.0  0.22577  0.41737  0.95737  1.0000
  Sm  Sm4       1.0  0.27423  0.08262  0.45737  1.0000
  As  As1       1.0  0.75395  0.48130  0.89063  1.0000
  As  As2       1.0  0.74606  0.01871  0.39062  1.0000
  As  As3       1.0  0.24607  0.51871  0.10938  1.0000
  As  As4       1.0  0.25393  0.98129  0.60938  1.0000
  H   H1        1.0  0.71012  0.86207  0.86516  1.0000
  H   H2        1.0  0.78990  0.63794  0.36516  1.0000
  H   H3        1.0  0.28990  0.13794  0.13484  1.0000
  H   H4        1.0  0.21010  0.36207  0.63484  1.0000
  H   H5        1.0  0.69939  0.03406  0.76726  1.0000
  H   H6        1.0  0.80063  0.46595  0.26726  1.0000
  H   H7        1.0  0.30063  0.96595  0.23274  1.0000
  H   H8        1.0  0.19937  0.53405  0.73274  1.0000
  H   H9        1.0  0.78521  0.41143  0.75569  1.0000
  H   H10       1.0  0.71479  0.08857  0.25569  1.0000
  H   H11       1.0  0.21479  0.58857  0.24431  1.0000
  H   H12       1.0  0.28521  0.91143  0.74431  1.0000
  H   H13       1.0  0.78400  0.19519  0.89175  1.0000
  H   H14       1.0  0.71600  0.30481  0.39175  1.0000
  H   H15       1.0  0.21600  0.80480  0.10825  1.0000
  H   H16       1.0  0.28399  0.69519  0.60825  1.0000
  H   H17       1.0  0.67905  0.18966  0.07895  1.0000
  H   H18       1.0  0.82095  0.31034  0.57895  1.0000
  H   H19       1.0  0.32095  0.81034  0.92105  1.0000
  H   H20       1.0  0.17905  0.68966  0.42105  1.0000
  H   H21       1.0  0.49530  0.20033  0.03733  1.0000
  H   H22       1.0  0.00470  0.29967  0.53733  1.0000
  H   H23       1.0  0.50470  0.79968  0.96267  1.0000
  H   H24       1.0  0.99530  0.70032  0.46267  1.0000
  C   C1        1.0  0.74949  0.62481  0.81670  1.0000
  C   C2        1.0  0.75052  0.87519  0.31670  1.0000
  C   C3        1.0  0.25052  0.37519  0.18330  1.0000
  C   C4        1.0  0.24948  0.12481  0.68330  1.0000
  C   C5        1.0  0.72438  0.80211  0.81957  1.0000
  C   C6        1.0  0.77564  0.69789  0.31957  1.0000
  C   C7        1.0  0.27564  0.19789  0.18043  1.0000
  C   C8        1.0  0.22436  0.30211  0.68043  1.0000
  C   C9        1.0  0.71779  0.89758  0.76509  1.0000
  C   C10       1.0  0.78222  0.60242  0.26509  1.0000
  C   C11       1.0  0.28222  0.10242  0.23491  1.0000
  C   C12       1.0  0.21778  0.39758  0.73491  1.0000
  C   C13       1.0  0.73263  0.82498  0.70341  1.0000
  C   C14       1.0  0.76738  0.67503  0.20341  1.0000
  C   C15       1.0  0.26738  0.17502  0.29659  1.0000
  C   C16       1.0  0.23262  0.32498  0.79659  1.0000
  C   C17       1.0  0.75882  0.64397  0.70348  1.0000
  C   C18       1.0  0.74118  0.85603  0.20348  1.0000
  C   C19       1.0  0.24118  0.35603  0.29652  1.0000
  C   C20       1.0  0.25882  0.14397  0.79652  1.0000
  C   C21       1.0  0.76609  0.54698  0.75929  1.0000
  C   C22       1.0  0.73392  0.95302  0.25929  1.0000
  C   C23       1.0  0.23392  0.45302  0.24071  1.0000
  C   C24       1.0  0.26608  0.04698  0.74071  1.0000
  C   C25       1.0  0.08560  0.00344  0.02345  1.0000
  C   C26       1.0  0.41440  0.49656  0.52345  1.0000
  C   C27       1.0  0.91440  0.99656  0.97655  1.0000
  C   C28       1.0  0.58559  0.50344  0.47655  1.0000
  N   N1        1.0  0.77598  0.55228  0.64702  1.0000
  N   N2        1.0  0.72402  0.94772  0.14702  1.0000
  N   N3        1.0  0.22402  0.44772  0.35298  1.0000
  N   N4        1.0  0.27598  0.05228  0.85298  1.0000
  O   O1        1.0  0.95657  0.54354  0.93932  1.0000
  O   O2        1.0  0.54343  0.95647  0.43932  1.0000
  O   O3        1.0  0.04343  0.45647  0.06068  1.0000
  O   O4        1.0  0.45656  0.04353  0.56068  1.0000
  O   O5        1.0  0.57009  0.48106  0.94286  1.0000
  O   O6        1.0  0.92990  0.01895  0.44286  1.0000
  O   O7        1.0  0.42991  0.51894  0.05714  1.0000
  O   O8        1.0  0.07009  0.98105  0.55714  1.0000
  O   O9        1.0  0.72534  0.26094  0.85954  1.0000
  O   O10       1.0  0.77466  0.23907  0.35954  1.0000
  O   O11       1.0  0.27466  0.73907  0.14046  1.0000
  O   O12       1.0  0.22533  0.76093  0.64046  1.0000
  O   O13       1.0  0.77252  0.38647  0.64991  1.0000
  O   O14       1.0  0.72748  0.11353  0.14991  1.0000
  O   O15       1.0  0.22748  0.61353  0.35009  1.0000
  O   O16       1.0  0.27253  0.88647  0.85009  1.0000
  O   O17       1.0  0.79664  0.63311  0.59492  1.0000
  O   O18       1.0  0.70335  0.86688  0.09492  1.0000
  O   O19       1.0  0.20335  0.36688  0.40508  1.0000
  O   O20       1.0  0.29665  0.13311  0.90508  1.0000
  O   O21       1.0  0.71853  0.91719  0.65410  1.0000
  O   O22       1.0  0.78147  0.58281  0.15410  1.0000
  O   O23       1.0  0.28147  0.08281  0.34590  1.0000
  O   O24       1.0  0.21853  0.41719  0.84590  1.0000
  O   O25       1.0  0.07166  0.85784  0.05418  1.0000
  O   O26       1.0  0.42833  0.64215  0.55418  1.0000
  O   O27       1.0  0.92834  0.14216  0.94582  1.0000
  O   O28       1.0  0.57165  0.35784  0.44582  1.0000
  O   O29       1.0  0.22344  0.15326  0.02815  1.0000
  O   O30       1.0  0.27655  0.34673  0.52815  1.0000
  O   O31       1.0  0.77656  0.84674  0.97185  1.0000
  O   O32       1.0  0.72344  0.65326  0.47185  1.0000
  O   O33       1.0  0.64078  0.25019  0.04159  1.0000
  O   O34       1.0  0.85921  0.24980  0.54159  1.0000
  O   O35       1.0  0.35922  0.74981  0.95841  1.0000
  O   O36       1.0  0.14078  0.75019  0.45841  1.0000
