data_image0
_chemical_formula_structural       Cu4Mo12H32C32S8N8O40
_chemical_formula_sum              "Cu4 Mo12 H32 C32 S8 N8 O40"
_cell_length_a       7.64627
_cell_length_b       10.5604
_cell_length_c       20.2007
_cell_angle_alpha    90.0009
_cell_angle_beta     89.9999
_cell_angle_gamma    89.9999

_space_group_name_H-M_alt    "P 1"
_space_group_IT_number       1

loop_
  _space_group_symop_operation_xyz
  'x, y, z'

loop_
  _atom_site_type_symbol
  _atom_site_label
  _atom_site_symmetry_multiplicity
  _atom_site_fract_x
  _atom_site_fract_y
  _atom_site_fract_z
  _atom_site_occupancy
  Cu  Cu1       1.0  0.16817  0.65236  0.18788  1.0000
  Cu  Cu2       1.0  0.16817  0.34763  0.81212  1.0000
  Cu  Cu3       1.0  0.83182  0.15235  0.31211  1.0000
  Cu  Cu4       1.0  0.83181  0.84765  0.68789  1.0000
  Mo  Mo1       1.0  0.44792  0.65618  0.04310  1.0000
  Mo  Mo2       1.0  0.44792  0.34382  0.95690  1.0000
  Mo  Mo3       1.0  0.55205  0.15618  0.45690  1.0000
  Mo  Mo4       1.0  0.55205  0.84382  0.54310  1.0000
  Mo  Mo5       1.0  0.19820  0.39447  0.08361  1.0000
  Mo  Mo6       1.0  0.19820  0.60553  0.91639  1.0000
  Mo  Mo7       1.0  0.80177  0.89447  0.41638  1.0000
  Mo  Mo8       1.0  0.80177  0.10553  0.58362  1.0000
  Mo  Mo9       1.0  0.92535  0.34547  0.96356  1.0000
  Mo  Mo10      1.0  0.92535  0.65453  0.03644  1.0000
  Mo  Mo11      1.0  0.07462  0.84547  0.53644  1.0000
  Mo  Mo12      1.0  0.07462  0.15453  0.46356  1.0000
  H   H1        1.0  0.36819  0.78609  0.41489  1.0000
  H   H2        1.0  0.36819  0.21391  0.58511  1.0000
  H   H3        1.0  0.63178  0.28611  0.08510  1.0000
  H   H4        1.0  0.63177  0.71389  0.91490  1.0000
  H   H5        1.0  0.25789  0.37711  0.24215  1.0000
  H   H6        1.0  0.25790  0.62289  0.75785  1.0000
  H   H7        1.0  0.74217  0.87710  0.25781  1.0000
  H   H8        1.0  0.74217  0.12291  0.74219  1.0000
  H   H9        1.0  0.19758  0.32889  0.32379  1.0000
  H   H10       1.0  0.19758  0.67111  0.67622  1.0000
  H   H11       1.0  0.80246  0.82889  0.17617  1.0000
  H   H12       1.0  0.80246  0.17111  0.82383  1.0000
  H   H13       1.0  0.42110  0.33626  0.30215  1.0000
  H   H14       1.0  0.42110  0.66374  0.69785  1.0000
  H   H15       1.0  0.57895  0.83624  0.19781  1.0000
  H   H16       1.0  0.57894  0.16376  0.80219  1.0000
  H   H17       1.0  0.11089  0.86698  0.08967  1.0000
  H   H18       1.0  0.11089  0.13302  0.91033  1.0000
  H   H19       1.0  0.88908  0.36696  0.41032  1.0000
  H   H20       1.0  0.88907  0.63304  0.58968  1.0000
  H   H21       1.0  0.24813  0.00320  0.08534  1.0000
  H   H22       1.0  0.24813  0.99680  0.91465  1.0000
  H   H23       1.0  0.75186  0.50320  0.41464  1.0000
  H   H24       1.0  0.75186  0.49680  0.58536  1.0000
  H   H25       1.0  0.02537  0.02116  0.10451  1.0000
  H   H26       1.0  0.02537  0.97884  0.89549  1.0000
  H   H27       1.0  0.97464  0.52114  0.39548  1.0000
  H   H28       1.0  0.97464  0.47887  0.60451  1.0000
  H   H29       1.0  0.31663  0.00473  0.34678  1.0000
  H   H30       1.0  0.31663  0.99527  0.65321  1.0000
  H   H31       1.0  0.68344  0.50474  0.15320  1.0000
  H   H32       1.0  0.68346  0.49526  0.84680  1.0000
  C   C1        1.0  0.33769  0.71329  0.37903  1.0000
  C   C2        1.0  0.33769  0.28671  0.62097  1.0000
  C   C3        1.0  0.66231  0.21330  0.12095  1.0000
  C   C4        1.0  0.66230  0.78670  0.87905  1.0000
  C   C5        1.0  0.29377  0.38227  0.29443  1.0000
  C   C6        1.0  0.29377  0.61772  0.70557  1.0000
  C   C7        1.0  0.70627  0.88227  0.20552  1.0000
  C   C8        1.0  0.70627  0.11773  0.79447  1.0000
  C   C9        1.0  0.13860  0.95888  0.11178  1.0000
  C   C10       1.0  0.13860  0.04112  0.88822  1.0000
  C   C11       1.0  0.86140  0.45887  0.38822  1.0000
  C   C12       1.0  0.86139  0.54114  0.61178  1.0000
  C   C13       1.0  0.27405  0.96959  0.29896  1.0000
  C   C14       1.0  0.27405  0.03041  0.70104  1.0000
  C   C15       1.0  0.72600  0.46958  0.20103  1.0000
  C   C16       1.0  0.72601  0.53042  0.79897  1.0000
  C   C17       1.0  0.30002  0.51670  0.31612  1.0000
  C   C18       1.0  0.30003  0.48330  0.68388  1.0000
  C   C19       1.0  0.69999  0.01669  0.18384  1.0000
  C   C20       1.0  0.69998  0.98331  0.81615  1.0000
  C   C21       1.0  0.24781  0.84655  0.28004  1.0000
  C   C22       1.0  0.24781  0.15345  0.71996  1.0000
  C   C23       1.0  0.75220  0.34654  0.21995  1.0000
  C   C24       1.0  0.75221  0.65346  0.78006  1.0000
  C   C25       1.0  0.18177  0.94275  0.18276  1.0000
  C   C26       1.0  0.18177  0.05725  0.81724  1.0000
  C   C27       1.0  0.81824  0.44274  0.31723  1.0000
  C   C28       1.0  0.81823  0.55726  0.68277  1.0000
  C   C29       1.0  0.27970  0.73006  0.31565  1.0000
  C   C30       1.0  0.27970  0.26994  0.68435  1.0000
  C   C31       1.0  0.72031  0.23006  0.18433  1.0000
  C   C32       1.0  0.72031  0.76995  0.81567  1.0000
  S   S1        1.0  0.36653  0.55630  0.39511  1.0000
  S   S2        1.0  0.36653  0.44370  0.60489  1.0000
  S   S3        1.0  0.63347  0.05631  0.10486  1.0000
  S   S4        1.0  0.63345  0.94369  0.89513  1.0000
  S   S5        1.0  0.23353  0.06870  0.23373  1.0000
  S   S6        1.0  0.23352  0.93130  0.76627  1.0000
  S   S7        1.0  0.76652  0.56869  0.26626  1.0000
  S   S8        1.0  0.76653  0.43131  0.73374  1.0000
  N   N1        1.0  0.25797  0.61799  0.28044  1.0000
  N   N2        1.0  0.25797  0.38201  0.71956  1.0000
  N   N3        1.0  0.74206  0.11799  0.21954  1.0000
  N   N4        1.0  0.74205  0.88201  0.78046  1.0000
  N   N5        1.0  0.19301  0.83342  0.21483  1.0000
  N   N6        1.0  0.19301  0.16658  0.78517  1.0000
  N   N7        1.0  0.80699  0.33341  0.28516  1.0000
  N   N8        1.0  0.80699  0.66659  0.71484  1.0000
  O   O1        1.0  0.20381  0.23969  0.10706  1.0000
  O   O2        1.0  0.20381  0.76030  0.89294  1.0000
  O   O3        1.0  0.79617  0.73969  0.39294  1.0000
  O   O4        1.0  0.79617  0.26031  0.60706  1.0000
  O   O5        1.0  0.96181  0.42864  0.05360  1.0000
  O   O6        1.0  0.96181  0.57136  0.94640  1.0000
  O   O7        1.0  0.03816  0.92864  0.44640  1.0000
  O   O8        1.0  0.03816  0.07136  0.55360  1.0000
  O   O9        1.0  0.98409  0.32304  0.87863  1.0000
  O   O10       1.0  0.98408  0.67696  0.12138  1.0000
  O   O11       1.0  0.01588  0.82304  0.62137  1.0000
  O   O12       1.0  0.01588  0.17696  0.37863  1.0000
  O   O13       1.0  0.41992  0.67480  0.12783  1.0000
  O   O14       1.0  0.41992  0.32519  0.87217  1.0000
  O   O15       1.0  0.58008  0.17482  0.37218  1.0000
  O   O16       1.0  0.58008  0.82518  0.62782  1.0000
  O   O17       1.0  0.18001  0.47927  0.15914  1.0000
  O   O18       1.0  0.18001  0.52073  0.84086  1.0000
  O   O19       1.0  0.81996  0.97926  0.34085  1.0000
  O   O20       1.0  0.81996  0.02074  0.65915  1.0000
  O   O21       1.0  0.91067  0.19439  0.99205  1.0000
  O   O22       1.0  0.91066  0.80560  0.00795  1.0000
  O   O23       1.0  0.08930  0.69440  0.50794  1.0000
  O   O24       1.0  0.08930  0.30560  0.49206  1.0000
  O   O25       1.0  0.42793  0.43454  0.05700  1.0000
  O   O26       1.0  0.42793  0.56546  0.94300  1.0000
  O   O27       1.0  0.57205  0.93454  0.44299  1.0000
  O   O28       1.0  0.57205  0.06546  0.55701  1.0000
  O   O29       1.0  0.47084  0.80708  0.01393  1.0000
  O   O30       1.0  0.47084  0.19292  0.98607  1.0000
  O   O31       1.0  0.52913  0.30707  0.48608  1.0000
  O   O32       1.0  0.52912  0.69292  0.51392  1.0000
  O   O33       1.0  0.69169  0.39133  0.95786  1.0000
  O   O34       1.0  0.69169  0.60867  0.04214  1.0000
  O   O35       1.0  0.30829  0.89132  0.54215  1.0000
  O   O36       1.0  0.30829  0.10868  0.45786  1.0000
  O   O37       1.0  0.19689  0.37060  0.97712  1.0000
  O   O38       1.0  0.19689  0.62940  0.02288  1.0000
  O   O39       1.0  0.80308  0.87060  0.52288  1.0000
  O   O40       1.0  0.80308  0.12940  0.47712  1.0000
