data_image0
_chemical_formula_structural       Na4H10C4N18O4
_chemical_formula_sum              "Na4 H10 C4 N18 O4"
_cell_length_a       5.87869
_cell_length_b       6.43925
_cell_length_c       10.741
_cell_angle_alpha    90
_cell_angle_beta     97.0627
_cell_angle_gamma    90

_space_group_name_H-M_alt    "P 1"
_space_group_IT_number       1

loop_
  _space_group_symop_operation_xyz
  'x, y, z'

loop_
  _atom_site_type_symbol
  _atom_site_label
  _atom_site_symmetry_multiplicity
  _atom_site_fract_x
  _atom_site_fract_y
  _atom_site_fract_z
  _atom_site_occupancy
  Na  Na1       1.0  0.16382  0.99656  0.17215  1.0000
  Na  Na2       1.0  0.83618  0.49656  0.82785  1.0000
  Na  Na3       1.0  0.83618  0.00344  0.82785  1.0000
  Na  Na4       1.0  0.16382  0.50344  0.17215  1.0000
  H   H1        1.0  0.24879  0.75000  0.38004  1.0000
  H   H2        1.0  0.75121  0.25000  0.61996  1.0000
  H   H3        1.0  0.50783  0.75000  0.35335  1.0000
  H   H4        1.0  0.49217  0.25000  0.64665  1.0000
  H   H5        1.0  0.81189  0.75000  0.27079  1.0000
  H   H6        1.0  0.18812  0.25000  0.72921  1.0000
  H   H7        1.0  0.72429  0.75000  0.12366  1.0000
  H   H8        1.0  0.27571  0.25000  0.87634  1.0000
  H   H9        1.0  0.56754  0.25000  0.36913  1.0000
  H   H10       1.0  0.43246  0.75000  0.63087  1.0000
  C   C1        1.0  0.92061  0.25000  0.39087  1.0000
  C   C2        1.0  0.07939  0.75000  0.60914  1.0000
  C   C3        1.0  0.67440  0.25000  0.19158  1.0000
  C   C4        1.0  0.32560  0.75000  0.80842  1.0000
  N   N1        1.0  0.70901  0.25000  0.32029  1.0000
  N   N2        1.0  0.29099  0.75000  0.67971  1.0000
  N   N3        1.0  0.95035  0.25000  0.51706  1.0000
  N   N4        1.0  0.04965  0.75000  0.48294  1.0000
  N   N5        1.0  0.18041  0.25000  0.54824  1.0000
  N   N6        1.0  0.81958  0.75000  0.45176  1.0000
  N   N7        1.0  0.28273  0.25000  0.44635  1.0000
  N   N8        1.0  0.71727  0.75000  0.55365  1.0000
  N   N9        1.0  0.12328  0.25000  0.34429  1.0000
  N   N10       1.0  0.87672  0.75000  0.65571  1.0000
  N   N11       1.0  0.46206  0.25000  0.12631  1.0000
  N   N12       1.0  0.53794  0.75000  0.87369  1.0000
  N   N13       1.0  0.49919  0.25000  0.00489  1.0000
  N   N14       1.0  0.50081  0.75000  0.99511  1.0000
  N   N15       1.0  0.71945  0.25000  0.99668  1.0000
  N   N16       1.0  0.28055  0.75000  0.00332  1.0000
  N   N17       1.0  0.83805  0.25000  0.11351  1.0000
  N   N18       1.0  0.16196  0.75000  0.88649  1.0000
  O   O1        1.0  0.35071  0.75000  0.31074  1.0000
  O   O2        1.0  0.64929  0.25000  0.68927  1.0000
  O   O3        1.0  0.86415  0.75000  0.18697  1.0000
  O   O4        1.0  0.13585  0.25000  0.81303  1.0000
