data_image0
_chemical_formula_structural       Na4H44C16N72O12
_chemical_formula_sum              "Na4 H44 C16 N72 O12"
_cell_length_a       6.34097
_cell_length_b       12.3828
_cell_length_c       18.3054
_cell_angle_alpha    90.0001
_cell_angle_beta     90.0003
_cell_angle_gamma    90

_space_group_name_H-M_alt    "P 1"
_space_group_IT_number       1

loop_
  _space_group_symop_operation_xyz
  'x, y, z'

loop_
  _atom_site_type_symbol
  _atom_site_label
  _atom_site_symmetry_multiplicity
  _atom_site_fract_x
  _atom_site_fract_y
  _atom_site_fract_z
  _atom_site_occupancy
  Na  Na1       1.0  0.78828  0.75417  0.07038  1.0000
  Na  Na2       1.0  0.71172  0.24583  0.57038  1.0000
  Na  Na3       1.0  0.28828  0.74583  0.92962  1.0000
  Na  Na4       1.0  0.21172  0.25417  0.42962  1.0000
  H   H1        1.0  0.71076  0.50851  0.12379  1.0000
  H   H2        1.0  0.78924  0.49149  0.62379  1.0000
  H   H3        1.0  0.21076  0.99149  0.87621  1.0000
  H   H4        1.0  0.28925  0.00851  0.37621  1.0000
  H   H5        1.0  0.51125  0.57551  0.10388  1.0000
  H   H6        1.0  0.98874  0.42449  0.60388  1.0000
  H   H7        1.0  0.01125  0.92449  0.89612  1.0000
  H   H8        1.0  0.48875  0.07551  0.39612  1.0000
  H   H9        1.0  0.88496  0.63842  0.94028  1.0000
  H   H10       1.0  0.61504  0.36158  0.44028  1.0000
  H   H11       1.0  0.38496  0.86158  0.05972  1.0000
  H   H12       1.0  0.11504  0.13842  0.55972  1.0000
  H   H13       1.0  0.80849  0.75426  0.92341  1.0000
  H   H14       1.0  0.69151  0.24574  0.42341  1.0000
  H   H15       1.0  0.30849  0.74574  0.07659  1.0000
  H   H16       1.0  0.19151  0.25426  0.57659  1.0000
  H   H17       1.0  0.14771  0.61060  0.12513  1.0000
  H   H18       1.0  0.35229  0.38940  0.62513  1.0000
  H   H19       1.0  0.64771  0.88940  0.87487  1.0000
  H   H20       1.0  0.85229  0.11060  0.37487  1.0000
  H   H21       1.0  0.15571  0.71147  0.17844  1.0000
  H   H22       1.0  0.34429  0.28853  0.67844  1.0000
  H   H23       1.0  0.65571  0.78853  0.82156  1.0000
  H   H24       1.0  0.84429  0.21147  0.32156  1.0000
  H   H25       1.0  0.78047  0.30328  0.01098  1.0000
  H   H26       1.0  0.71953  0.69672  0.51098  1.0000
  H   H27       1.0  0.28047  0.19672  0.98902  1.0000
  H   H28       1.0  0.21953  0.80328  0.48902  1.0000
  H   H29       1.0  0.78827  0.04162  0.12772  1.0000
  H   H30       1.0  0.71173  0.95838  0.62772  1.0000
  H   H31       1.0  0.28827  0.45838  0.87228  1.0000
  H   H32       1.0  0.21173  0.54162  0.37228  1.0000
  H   H33       1.0  0.68682  0.63851  0.20534  1.0000
  H   H34       1.0  0.81319  0.36149  0.70533  1.0000
  H   H35       1.0  0.18682  0.86149  0.79466  1.0000
  H   H36       1.0  0.31318  0.13851  0.29467  1.0000
  H   H37       1.0  0.72644  0.45569  0.28528  1.0000
  H   H38       1.0  0.77356  0.54431  0.78528  1.0000
  H   H39       1.0  0.22644  0.04431  0.71472  1.0000
  H   H40       1.0  0.27356  0.95569  0.21472  1.0000
  H   H41       1.0  0.72819  0.85108  0.36489  1.0000
  H   H42       1.0  0.77181  0.14893  0.86489  1.0000
  H   H43       1.0  0.22819  0.64892  0.63511  1.0000
  H   H44       1.0  0.27182  0.35107  0.13511  1.0000
  C   C1        1.0  0.77840  0.27256  0.12199  1.0000
  C   C2        1.0  0.72160  0.72744  0.62199  1.0000
  C   C3        1.0  0.27840  0.22744  0.87801  1.0000
  C   C4        1.0  0.22160  0.77256  0.37801  1.0000
  C   C5        1.0  0.78786  0.13817  0.02715  1.0000
  C   C6        1.0  0.71214  0.86184  0.52715  1.0000
  C   C7        1.0  0.28786  0.36183  0.97285  1.0000
  C   C8        1.0  0.21214  0.63816  0.47285  1.0000
  C   C9        1.0  0.71058  0.62475  0.31971  1.0000
  C   C10       1.0  0.78942  0.37525  0.81971  1.0000
  C   C11       1.0  0.21058  0.87525  0.68029  1.0000
  C   C12       1.0  0.28942  0.12475  0.18029  1.0000
  C   C13       1.0  0.73057  0.78891  0.25215  1.0000
  C   C14       1.0  0.76943  0.21110  0.75215  1.0000
  C   C15       1.0  0.23056  0.71109  0.74785  1.0000
  C   C16       1.0  0.26943  0.28890  0.24785  1.0000
  N   N1        1.0  0.78119  0.24281  0.04943  1.0000
  N   N2        1.0  0.71881  0.75719  0.54943  1.0000
  N   N3        1.0  0.28119  0.25719  0.95057  1.0000
  N   N4        1.0  0.21882  0.74281  0.45057  1.0000
  N   N5        1.0  0.76089  0.37487  0.14612  1.0000
  N   N6        1.0  0.73911  0.62513  0.64612  1.0000
  N   N7        1.0  0.26089  0.12513  0.85388  1.0000
  N   N8        1.0  0.23911  0.87487  0.35388  1.0000
  N   N9        1.0  0.76275  0.36467  0.21949  1.0000
  N   N10       1.0  0.73725  0.63533  0.71949  1.0000
  N   N11       1.0  0.26275  0.13533  0.78051  1.0000
  N   N12       1.0  0.23725  0.86467  0.28051  1.0000
  N   N13       1.0  0.78132  0.26222  0.23754  1.0000
  N   N14       1.0  0.71868  0.73778  0.73754  1.0000
  N   N15       1.0  0.28132  0.23778  0.76246  1.0000
  N   N16       1.0  0.21868  0.76222  0.26246  1.0000
  N   N17       1.0  0.79200  0.20121  0.17714  1.0000
  N   N18       1.0  0.70801  0.79880  0.67714  1.0000
  N   N19       1.0  0.29200  0.29879  0.82286  1.0000
  N   N20       1.0  0.20801  0.70120  0.32286  1.0000
  N   N21       1.0  0.79166  0.10393  0.95753  1.0000
  N   N22       1.0  0.70834  0.89607  0.45753  1.0000
  N   N23       1.0  0.29167  0.39607  0.04247  1.0000
  N   N24       1.0  0.20834  0.60393  0.54247  1.0000
  N   N25       1.0  0.79862  0.99468  0.96096  1.0000
  N   N26       1.0  0.70137  0.00532  0.46096  1.0000
  N   N27       1.0  0.29863  0.50532  0.03904  1.0000
  N   N28       1.0  0.20138  0.49468  0.53904  1.0000
  N   N29       1.0  0.79921  0.96081  0.02801  1.0000
  N   N30       1.0  0.70079  0.03919  0.52801  1.0000
  N   N31       1.0  0.29921  0.53919  0.97199  1.0000
  N   N32       1.0  0.20079  0.46081  0.47199  1.0000
  N   N33       1.0  0.79229  0.04972  0.07077  1.0000
  N   N34       1.0  0.70771  0.95028  0.57077  1.0000
  N   N35       1.0  0.29229  0.45028  0.92923  1.0000
  N   N36       1.0  0.20771  0.54972  0.42923  1.0000
  N   N37       1.0  0.71101  0.67940  0.25548  1.0000
  N   N38       1.0  0.78899  0.32061  0.75548  1.0000
  N   N39       1.0  0.21101  0.82060  0.74452  1.0000
  N   N40       1.0  0.28899  0.17940  0.24452  1.0000
  N   N41       1.0  0.71097  0.51646  0.32688  1.0000
  N   N42       1.0  0.78902  0.48355  0.82688  1.0000
  N   N43       1.0  0.21097  0.98354  0.67312  1.0000
  N   N44       1.0  0.28903  0.01645  0.17312  1.0000
  N   N45       1.0  0.70921  0.49337  0.39922  1.0000
  N   N46       1.0  0.79079  0.50664  0.89922  1.0000
  N   N47       1.0  0.20921  0.00663  0.60078  1.0000
  N   N48       1.0  0.29079  0.99336  0.10078  1.0000
  N   N49       1.0  0.70855  0.58537  0.43365  1.0000
  N   N50       1.0  0.79145  0.41463  0.93365  1.0000
  N   N51       1.0  0.20855  0.91463  0.56635  1.0000
  N   N52       1.0  0.29145  0.08537  0.06635  1.0000
  N   N53       1.0  0.70922  0.66923  0.38634  1.0000
  N   N54       1.0  0.79078  0.33077  0.88634  1.0000
  N   N55       1.0  0.20922  0.83077  0.61366  1.0000
  N   N56       1.0  0.29078  0.16923  0.11366  1.0000
  N   N57       1.0  0.74633  0.84355  0.18934  1.0000
  N   N58       1.0  0.75367  0.15645  0.68934  1.0000
  N   N59       1.0  0.24633  0.65645  0.81066  1.0000
  N   N60       1.0  0.25367  0.34355  0.31066  1.0000
  N   N61       1.0  0.76576  0.94861  0.20872  1.0000
  N   N62       1.0  0.73424  0.05140  0.70872  1.0000
  N   N63       1.0  0.26576  0.55140  0.79128  1.0000
  N   N64       1.0  0.23424  0.44860  0.29128  1.0000
  N   N65       1.0  0.76257  0.96060  0.27924  1.0000
  N   N66       1.0  0.73743  0.03940  0.77924  1.0000
  N   N67       1.0  0.26257  0.53940  0.72076  1.0000
  N   N68       1.0  0.23743  0.46060  0.22076  1.0000
  N   N69       1.0  0.74026  0.86023  0.30783  1.0000
  N   N70       1.0  0.75975  0.13977  0.80783  1.0000
  N   N71       1.0  0.24026  0.63977  0.69217  1.0000
  N   N72       1.0  0.25975  0.36023  0.19217  1.0000
  O   O1        1.0  0.65583  0.58492  0.12249  1.0000
  O   O2        1.0  0.84417  0.41508  0.62249  1.0000
  O   O3        1.0  0.15582  0.91508  0.87751  1.0000
  O   O4        1.0  0.34417  0.08492  0.37751  1.0000
  O   O5        1.0  0.91406  0.71414  0.95388  1.0000
  O   O6        1.0  0.58594  0.28586  0.45388  1.0000
  O   O7        1.0  0.41406  0.78586  0.04612  1.0000
  O   O8        1.0  0.08594  0.21414  0.54612  1.0000
  O   O9        1.0  0.11756  0.68798  0.12737  1.0000
  O   O10       1.0  0.38244  0.31202  0.62737  1.0000
  O   O11       1.0  0.61756  0.81202  0.87263  1.0000
  O   O12       1.0  0.88244  0.18798  0.37263  1.0000
