data_image0
_chemical_formula_structural       Ba4H16C24N8O20
_chemical_formula_sum              "Ba4 H16 C24 N8 O20"
_cell_length_a       7.13236
_cell_length_b       9.49309
_cell_length_c       12.3413
_cell_angle_alpha    90.0009
_cell_angle_beta     101.59
_cell_angle_gamma    89.999

_space_group_name_H-M_alt    "P 1"
_space_group_IT_number       1

loop_
  _space_group_symop_operation_xyz
  'x, y, z'

loop_
  _atom_site_type_symbol
  _atom_site_label
  _atom_site_symmetry_multiplicity
  _atom_site_fract_x
  _atom_site_fract_y
  _atom_site_fract_z
  _atom_site_occupancy
  Ba  Ba1       1.0  0.52405  0.09428  0.36365  1.0000
  Ba  Ba2       1.0  0.97594  0.59429  0.63635  1.0000
  Ba  Ba3       1.0  0.47595  0.90572  0.63635  1.0000
  Ba  Ba4       1.0  0.02406  0.40571  0.36365  1.0000
  H   H1        1.0  0.65705  0.07229  0.11946  1.0000
  H   H2        1.0  0.84295  0.57229  0.88053  1.0000
  H   H3        1.0  0.34295  0.92771  0.88054  1.0000
  H   H4        1.0  0.15705  0.42770  0.11947  1.0000
  H   H5        1.0  0.60993  0.22555  0.15890  1.0000
  H   H6        1.0  0.89007  0.72556  0.84110  1.0000
  H   H7        1.0  0.39007  0.77445  0.84110  1.0000
  H   H8        1.0  0.10993  0.27444  0.15890  1.0000
  H   H9        1.0  0.81027  0.56829  0.09515  1.0000
  H   H10       1.0  0.68972  0.06830  0.90484  1.0000
  H   H11       1.0  0.18973  0.43171  0.90485  1.0000
  H   H12       1.0  0.31028  0.93170  0.09516  1.0000
  H   H13       1.0  0.68589  0.79935  0.00164  1.0000
  H   H14       1.0  0.81412  0.29935  0.99835  1.0000
  H   H15       1.0  0.31412  0.20065  0.99836  1.0000
  H   H16       1.0  0.18588  0.70065  0.00165  1.0000
  C   C1        1.0  0.14572  0.79105  0.39782  1.0000
  C   C2        1.0  0.35428  0.29106  0.60218  1.0000
  C   C3        1.0  0.85429  0.20895  0.60218  1.0000
  C   C4        1.0  0.64572  0.70894  0.39782  1.0000
  C   C5        1.0  0.00937  0.06395  0.27702  1.0000
  C   C6        1.0  0.49061  0.56396  0.72298  1.0000
  C   C7        1.0  0.99062  0.93605  0.72298  1.0000
  C   C8        1.0  0.50939  0.43605  0.27701  1.0000
  C   C9        1.0  0.01776  0.79261  0.28341  1.0000
  C   C10       1.0  0.48222  0.29262  0.71659  1.0000
  C   C11       1.0  0.98223  0.20739  0.71659  1.0000
  C   C12       1.0  0.51778  0.70738  0.28341  1.0000
  C   C13       1.0  0.95540  0.91975  0.22939  1.0000
  C   C14       1.0  0.54458  0.41976  0.77061  1.0000
  C   C15       1.0  0.04459  0.08025  0.77061  1.0000
  C   C16       1.0  0.45542  0.58024  0.22939  1.0000
  C   C17       1.0  0.85030  0.67014  0.13386  1.0000
  C   C18       1.0  0.64969  0.17015  0.86614  1.0000
  C   C19       1.0  0.14970  0.32985  0.86614  1.0000
  C   C20       1.0  0.35031  0.82985  0.13387  1.0000
  C   C21       1.0  0.78486  0.79642  0.08168  1.0000
  C   C22       1.0  0.71513  0.29642  0.91832  1.0000
  C   C23       1.0  0.21514  0.20358  0.91832  1.0000
  C   C24       1.0  0.28487  0.70358  0.08168  1.0000
  N   N1        1.0  0.96223  0.66869  0.23507  1.0000
  N   N2        1.0  0.53776  0.16869  0.76493  1.0000
  N   N3        1.0  0.03777  0.33131  0.76493  1.0000
  N   N4        1.0  0.46224  0.83131  0.23507  1.0000
  N   N5        1.0  0.83523  0.92096  0.13015  1.0000
  N   N6        1.0  0.66476  0.42097  0.86984  1.0000
  N   N7        1.0  0.16476  0.07903  0.86985  1.0000
  N   N8        1.0  0.33524  0.57903  0.13016  1.0000
  O   O1        1.0  0.23840  0.90334  0.42677  1.0000
  O   O2        1.0  0.26159  0.40336  0.57323  1.0000
  O   O3        1.0  0.76160  0.09666  0.57323  1.0000
  O   O4        1.0  0.73841  0.59664  0.42677  1.0000
  O   O5        1.0  0.55169  0.13425  0.13232  1.0000
  O   O6        1.0  0.94832  0.63425  0.86768  1.0000
  O   O7        1.0  0.44831  0.86575  0.86768  1.0000
  O   O8        1.0  0.05169  0.36575  0.13232  1.0000
  O   O9        1.0  0.15126  0.12388  0.24795  1.0000
  O   O10       1.0  0.34871  0.62388  0.75205  1.0000
  O   O11       1.0  0.84873  0.87612  0.75205  1.0000
  O   O12       1.0  0.65128  0.37612  0.24794  1.0000
  O   O13       1.0  0.90089  0.11911  0.33426  1.0000
  O   O14       1.0  0.59909  0.61911  0.66574  1.0000
  O   O15       1.0  0.09910  0.88090  0.66573  1.0000
  O   O16       1.0  0.40091  0.38089  0.33426  1.0000
  O   O17       1.0  0.15152  0.67938  0.45487  1.0000
  O   O18       1.0  0.34848  0.17939  0.54513  1.0000
  O   O19       1.0  0.84849  0.32062  0.54513  1.0000
  O   O20       1.0  0.65152  0.82060  0.45487  1.0000
