data_image0
_chemical_formula_structural       Mn2H24C12N20O12
_chemical_formula_sum              "Mn2 H24 C12 N20 O12"
_cell_length_a       6.42184
_cell_length_b       9.88663
_cell_length_c       11.807
_cell_angle_alpha    70.8045
_cell_angle_beta     74.1898
_cell_angle_gamma    71.054

_space_group_name_H-M_alt    "P 1"
_space_group_IT_number       1

loop_
  _space_group_symop_operation_xyz
  'x, y, z'

loop_
  _atom_site_type_symbol
  _atom_site_label
  _atom_site_symmetry_multiplicity
  _atom_site_fract_x
  _atom_site_fract_y
  _atom_site_fract_z
  _atom_site_occupancy
  Mn  Mn1       1.0  1.00000  0.00000  1.00000  1.0000
  Mn  Mn2       1.0  1.00000  0.50000  0.50000  1.0000
  H   H1        1.0  0.69018  0.91709  0.21749  1.0000
  H   H2        1.0  0.82463  0.58297  0.28250  1.0000
  H   H3        1.0  0.30980  0.08291  0.78251  1.0000
  H   H4        1.0  0.17537  0.41703  0.71751  1.0000
  H   H5        1.0  0.59502  0.89590  0.11407  1.0000
  H   H6        1.0  0.60485  0.60407  0.38601  1.0000
  H   H7        1.0  0.40497  0.10410  0.88592  1.0000
  H   H8        1.0  0.39515  0.39592  0.61399  1.0000
  H   H9        1.0  0.34757  0.14953  0.55176  1.0000
  H   H10       1.0  0.04874  0.35036  0.94859  1.0000
  H   H11       1.0  0.65243  0.85047  0.44824  1.0000
  H   H12       1.0  0.95126  0.64964  0.05141  1.0000
  H   H13       1.0  0.32084  0.97393  0.62779  1.0000
  H   H14       1.0  0.92277  0.52588  0.87244  1.0000
  H   H15       1.0  0.67915  0.02608  0.37221  1.0000
  H   H16       1.0  0.07725  0.47412  0.12756  1.0000
  H   H17       1.0  0.08419  0.83410  0.63643  1.0000
  H   H18       1.0  0.55617  0.66571  0.86363  1.0000
  H   H19       1.0  0.91582  0.16591  0.36357  1.0000
  H   H20       1.0  0.44384  0.33430  0.13638  1.0000
  H   H21       1.0  0.78855  0.85904  0.66239  1.0000
  H   H22       1.0  0.31066  0.64122  0.83816  1.0000
  H   H23       1.0  0.21145  0.14096  0.33761  1.0000
  H   H24       1.0  0.68934  0.35878  0.16185  1.0000
  C   C1        1.0  0.92180  0.83793  0.82102  1.0000
  C   C2        1.0  0.58098  0.66200  0.67917  1.0000
  C   C3        1.0  0.07821  0.16206  0.17898  1.0000
  C   C4        1.0  0.41903  0.33799  0.32084  1.0000
  C   C5        1.0  0.92103  0.88942  0.68308  1.0000
  C   C6        1.0  0.49424  0.61059  0.81718  1.0000
  C   C7        1.0  0.07898  0.11058  0.31691  1.0000
  C   C8        1.0  0.50576  0.38942  0.18283  1.0000
  C   C9        1.0  0.02831  0.13505  0.60903  1.0000
  C   C10       1.0  0.77245  0.36481  0.89120  1.0000
  C   C11       1.0  0.97169  0.86495  0.39096  1.0000
  C   C12       1.0  0.22756  0.63519  0.10880  1.0000
  N   N1        1.0  0.88503  0.04859  0.63626  1.0000
  N   N2        1.0  0.57012  0.45138  0.86387  1.0000
  N   N3        1.0  0.11498  0.95141  0.36374  1.0000
  N   N4        1.0  0.42987  0.54862  0.13614  1.0000
  N   N5        1.0  0.67503  0.13812  0.62897  1.0000
  N   N6        1.0  0.44228  0.36196  0.87098  1.0000
  N   N7        1.0  0.32497  0.86187  0.37102  1.0000
  N   N8        1.0  0.55772  0.63805  0.12902  1.0000
  N   N9        1.0  0.69215  0.27287  0.59366  1.0000
  N   N10       1.0  0.55858  0.22716  0.90630  1.0000
  N   N11       1.0  0.30785  0.72713  0.40634  1.0000
  N   N12       1.0  0.44142  0.77284  0.09370  1.0000
  N   N13       1.0  0.90759  0.27711  0.57937  1.0000
  N   N14       1.0  0.76391  0.22279  0.92073  1.0000
  N   N15       1.0  0.09241  0.72289  0.42063  1.0000
  N   N16       1.0  0.23609  0.77721  0.07926  1.0000
  N   N17       1.0  0.24762  0.08620  0.61534  1.0000
  N   N18       1.0  0.94927  0.41360  0.88493  1.0000
  N   N19       1.0  0.75238  0.91380  0.38466  1.0000
  N   N20       1.0  0.05073  0.58640  0.11507  1.0000
  O   O1        1.0  0.91013  0.70704  0.87653  1.0000
  O   O2        1.0  0.49386  0.79282  0.62363  1.0000
  O   O3        1.0  0.08988  0.29296  0.12346  1.0000
  O   O4        1.0  0.50613  0.20718  0.37637  1.0000
  O   O5        1.0  0.94182  0.93179  0.86586  1.0000
  O   O6        1.0  0.73957  0.56810  0.63425  1.0000
  O   O7        1.0  0.05818  0.06820  0.13414  1.0000
  O   O8        1.0  0.26041  0.43191  0.36576  1.0000
  O   O9        1.0  0.69998  0.94016  0.12891  1.0000
  O   O10       1.0  0.76899  0.56011  0.37110  1.0000
  O   O11       1.0  0.30001  0.05984  0.87108  1.0000
  O   O12       1.0  0.23101  0.43989  0.62890  1.0000
