data_image0
_chemical_formula_structural       Mn4H24C48O16
_chemical_formula_sum              "Mn4 H24 C48 O16"
_cell_length_a       4.86358
_cell_length_b       13.3234
_cell_length_c       15.0008
_cell_angle_alpha    90.0002
_cell_angle_beta     90.0004
_cell_angle_gamma    92.4333

_space_group_name_H-M_alt    "P 1"
_space_group_IT_number       1

loop_
  _space_group_symop_operation_xyz
  'x, y, z'

loop_
  _atom_site_type_symbol
  _atom_site_label
  _atom_site_symmetry_multiplicity
  _atom_site_fract_x
  _atom_site_fract_y
  _atom_site_fract_z
  _atom_site_occupancy
  Mn  Mn1       1.0  0.75035  0.50324  0.56313  1.0000
  Mn  Mn2       1.0  0.74965  0.99675  0.06313  1.0000
  Mn  Mn3       1.0  0.24965  0.49675  0.43687  1.0000
  Mn  Mn4       1.0  0.25035  0.00324  0.93687  1.0000
  H   H1        1.0  0.57647  0.23610  0.59326  1.0000
  H   H2        1.0  0.92354  0.26390  0.09326  1.0000
  H   H3        1.0  0.42353  0.76390  0.40674  1.0000
  H   H4        1.0  0.07646  0.73610  0.90674  1.0000
  H   H5        1.0  0.81480  0.12796  0.70238  1.0000
  H   H6        1.0  0.68519  0.37204  0.20238  1.0000
  H   H7        1.0  0.18519  0.87204  0.29762  1.0000
  H   H8        1.0  0.31481  0.62796  0.79762  1.0000
  H   H9        1.0  0.56875  0.25424  0.98951  1.0000
  H   H10       1.0  0.93125  0.24575  0.48950  1.0000
  H   H11       1.0  0.43126  0.74576  0.01050  1.0000
  H   H12       1.0  0.06874  0.75424  0.51049  1.0000
  H   H13       1.0  0.31086  0.39785  0.04212  1.0000
  H   H14       1.0  0.18913  0.10215  0.54212  1.0000
  H   H15       1.0  0.68913  0.60215  0.95788  1.0000
  H   H16       1.0  0.81087  0.89785  0.45787  1.0000
  H   H17       1.0  0.06073  0.50284  0.93230  1.0000
  H   H18       1.0  0.43927  0.99716  0.43230  1.0000
  H   H19       1.0  0.93926  0.49716  0.06770  1.0000
  H   H20       1.0  0.56073  0.00284  0.56770  1.0000
  H   H21       1.0  0.07385  0.46363  0.77283  1.0000
  H   H22       1.0  0.42615  0.03637  0.27283  1.0000
  H   H23       1.0  0.92615  0.53637  0.22717  1.0000
  H   H24       1.0  0.57385  0.96363  0.72717  1.0000
  C   C1        1.0  0.23603  0.38087  0.62407  1.0000
  C   C2        1.0  0.26397  0.11913  0.12407  1.0000
  C   C3        1.0  0.76397  0.61913  0.37593  1.0000
  C   C4        1.0  0.73603  0.88087  0.87593  1.0000
  C   C5        1.0  0.37371  0.32001  0.69328  1.0000
  C   C6        1.0  0.12630  0.17999  0.19327  1.0000
  C   C7        1.0  0.62630  0.67999  0.30673  1.0000
  C   C8        1.0  0.87371  0.82001  0.80672  1.0000
  C   C9        1.0  0.54687  0.24659  0.66457  1.0000
  C   C10       1.0  0.95313  0.25342  0.16457  1.0000
  C   C11       1.0  0.45313  0.75342  0.33543  1.0000
  C   C12       1.0  0.04686  0.74659  0.83543  1.0000
  C   C13       1.0  0.68181  0.18620  0.72584  1.0000
  C   C14       1.0  0.81819  0.31380  0.22584  1.0000
  C   C15       1.0  0.31819  0.81380  0.27416  1.0000
  C   C16       1.0  0.18181  0.68620  0.77416  1.0000
  C   C17       1.0  0.64594  0.19869  0.81676  1.0000
  C   C18       1.0  0.85406  0.30131  0.31676  1.0000
  C   C19       1.0  0.35406  0.80131  0.18324  1.0000
  C   C20       1.0  0.14595  0.69869  0.68324  1.0000
  C   C21       1.0  0.48118  0.27720  0.84960  1.0000
  C   C22       1.0  0.01882  0.22281  0.34960  1.0000
  C   C23       1.0  0.51883  0.72281  0.15040  1.0000
  C   C24       1.0  0.98118  0.77719  0.65040  1.0000
  C   C25       1.0  0.34023  0.33833  0.78666  1.0000
  C   C26       1.0  0.15977  0.16168  0.28666  1.0000
  C   C27       1.0  0.65978  0.66168  0.21334  1.0000
  C   C28       1.0  0.84023  0.83833  0.71334  1.0000
  C   C29       1.0  0.46299  0.30043  0.94183  1.0000
  C   C30       1.0  0.03701  0.19957  0.44183  1.0000
  C   C31       1.0  0.53702  0.69957  0.05817  1.0000
  C   C32       1.0  0.96299  0.80043  0.55817  1.0000
  C   C33       1.0  0.31635  0.38026  0.97113  1.0000
  C   C34       1.0  0.18365  0.11974  0.47113  1.0000
  C   C35       1.0  0.68366  0.61974  0.02887  1.0000
  C   C36       1.0  0.81635  0.88026  0.52887  1.0000
  C   C37       1.0  0.17588  0.43941  0.90941  1.0000
  C   C38       1.0  0.32412  0.06059  0.40941  1.0000
  C   C39       1.0  0.82412  0.56059  0.09059  1.0000
  C   C40       1.0  0.67588  0.93941  0.59059  1.0000
  C   C41       1.0  0.18536  0.41835  0.81965  1.0000
  C   C42       1.0  0.31464  0.08165  0.31965  1.0000
  C   C43       1.0  0.81464  0.58165  0.18035  1.0000
  C   C44       1.0  0.68536  0.91835  0.68035  1.0000
  C   C45       1.0  0.77567  0.12545  0.87736  1.0000
  C   C46       1.0  0.72432  0.37455  0.37736  1.0000
  C   C47       1.0  0.22432  0.87455  0.12264  1.0000
  C   C48       1.0  0.27568  0.62545  0.62264  1.0000
  O   O1        1.0  0.37883  0.40418  0.55367  1.0000
  O   O2        1.0  0.12117  0.09582  0.05367  1.0000
  O   O3        1.0  0.62117  0.59582  0.44632  1.0000
  O   O4        1.0  0.87882  0.90418  0.94633  1.0000
  O   O5        1.0  0.99083  0.40626  0.63649  1.0000
  O   O6        1.0  0.50918  0.09374  0.13649  1.0000
  O   O7        1.0  0.00917  0.59374  0.36351  1.0000
  O   O8        1.0  0.49083  0.90626  0.86351  1.0000
  O   O9        1.0  0.01202  0.09530  0.85759  1.0000
  O   O10       1.0  0.48797  0.40470  0.35759  1.0000
  O   O11       1.0  0.98797  0.90470  0.14241  1.0000
  O   O12       1.0  0.51203  0.59530  0.64241  1.0000
  O   O13       1.0  0.63331  0.09354  0.94523  1.0000
  O   O14       1.0  0.86669  0.40646  0.44523  1.0000
  O   O15       1.0  0.36669  0.90646  0.05477  1.0000
  O   O16       1.0  0.13332  0.59354  0.55477  1.0000
