data_image0
_chemical_formula_structural       Mg12H24C24O48
_chemical_formula_sum              "Mg12 H24 C24 O48"
_cell_length_a       9.91548
_cell_length_b       11.4036
_cell_length_c       14.5918
_cell_angle_alpha    91.4167
_cell_angle_beta     89.9999
_cell_angle_gamma    90

_space_group_name_H-M_alt    "P 1"
_space_group_IT_number       1

loop_
  _space_group_symop_operation_xyz
  'x, y, z'

loop_
  _atom_site_type_symbol
  _atom_site_label
  _atom_site_symmetry_multiplicity
  _atom_site_fract_x
  _atom_site_fract_y
  _atom_site_fract_z
  _atom_site_occupancy
  Mg  Mg1       1.0  0.92240  0.74349  0.86494  1.0000
  Mg  Mg2       1.0  0.42240  0.75651  0.63506  1.0000
  Mg  Mg3       1.0  0.07760  0.25651  0.13506  1.0000
  Mg  Mg4       1.0  0.57760  0.24349  0.36494  1.0000
  Mg  Mg5       1.0  0.00000  1.00000  0.00000  1.0000
  Mg  Mg6       1.0  0.50000  0.50000  0.50000  1.0000
  Mg  Mg7       1.0  0.11191  0.76023  0.68945  1.0000
  Mg  Mg8       1.0  0.61191  0.73977  0.81055  1.0000
  Mg  Mg9       1.0  0.88809  0.23977  0.31055  1.0000
  Mg  Mg10      1.0  0.38809  0.26023  0.18945  1.0000
  Mg  Mg11      1.0  1.00000  0.50000  0.00000  1.0000
  Mg  Mg12      1.0  0.50000  1.00000  0.50000  1.0000
  H   H1        1.0  0.04373  0.02928  0.72633  1.0000
  H   H2        1.0  0.54373  0.47072  0.77367  1.0000
  H   H3        1.0  0.95627  0.97072  0.27367  1.0000
  H   H4        1.0  0.45627  0.52928  0.22633  1.0000
  H   H5        1.0  0.60302  0.93801  0.95870  1.0000
  H   H6        1.0  0.10302  0.56199  0.54131  1.0000
  H   H7        1.0  0.39698  0.06199  0.04130  1.0000
  H   H8        1.0  0.89698  0.43801  0.45870  1.0000
  H   H9        1.0  0.74946  0.63191  0.62446  1.0000
  H   H10       1.0  0.24946  0.86809  0.87554  1.0000
  H   H11       1.0  0.25053  0.36810  0.37554  1.0000
  H   H12       1.0  0.75054  0.13191  0.12446  1.0000
  H   H13       1.0  0.70507  0.49605  0.99228  1.0000
  H   H14       1.0  0.20507  0.00395  0.50772  1.0000
  H   H15       1.0  0.29493  0.50395  0.00772  1.0000
  H   H16       1.0  0.79493  0.99605  0.49228  1.0000
  H   H17       1.0  0.20771  0.51680  0.76237  1.0000
  H   H18       1.0  0.70771  0.98320  0.73763  1.0000
  H   H19       1.0  0.79229  0.48320  0.23763  1.0000
  H   H20       1.0  0.29229  0.01680  0.26237  1.0000
  H   H21       1.0  0.16683  0.81032  0.07726  1.0000
  H   H22       1.0  0.66683  0.68968  0.42274  1.0000
  H   H23       1.0  0.83317  0.18968  0.92274  1.0000
  H   H24       1.0  0.33317  0.31032  0.57726  1.0000
  C   C1        1.0  0.01735  0.98170  0.78904  1.0000
  C   C2        1.0  0.51735  0.51830  0.71095  1.0000
  C   C3        1.0  0.98265  0.01830  0.21096  1.0000
  C   C4        1.0  0.48265  0.48170  0.28905  1.0000
  C   C5        1.0  0.71250  0.92211  0.95035  1.0000
  C   C6        1.0  0.21250  0.57789  0.54965  1.0000
  C   C7        1.0  0.28750  0.07789  0.04965  1.0000
  C   C8        1.0  0.78750  0.42211  0.45035  1.0000
  C   C9        1.0  0.83031  0.66896  0.66837  1.0000
  C   C10       1.0  0.33031  0.83104  0.83163  1.0000
  C   C11       1.0  0.16969  0.33104  0.33162  1.0000
  C   C12       1.0  0.66969  0.16896  0.16837  1.0000
  C   C13       1.0  0.72379  0.56860  0.94529  1.0000
  C   C14       1.0  0.22380  0.93140  0.55471  1.0000
  C   C15       1.0  0.27621  0.43140  0.05471  1.0000
  C   C16       1.0  0.77620  0.06860  0.44529  1.0000
  C   C17       1.0  0.13353  0.54708  0.81470  1.0000
  C   C18       1.0  0.63353  0.95292  0.68530  1.0000
  C   C19       1.0  0.86646  0.45292  0.18530  1.0000
  C   C20       1.0  0.36647  0.04708  0.31470  1.0000
  C   C21       1.0  0.10241  0.75743  0.03042  1.0000
  C   C22       1.0  0.60241  0.74257  0.46958  1.0000
  C   C23       1.0  0.89759  0.24257  0.96958  1.0000
  C   C24       1.0  0.39759  0.25743  0.53042  1.0000
  O   O1        1.0  0.00726  0.86960  0.77988  1.0000
  O   O2        1.0  0.50726  0.63040  0.72012  1.0000
  O   O3        1.0  0.99274  0.13040  0.22012  1.0000
  O   O4        1.0  0.49274  0.36960  0.27988  1.0000
  O   O5        1.0  0.74530  0.84314  0.88964  1.0000
  O   O6        1.0  0.24530  0.65686  0.61036  1.0000
  O   O7        1.0  0.25470  0.15686  0.11036  1.0000
  O   O8        1.0  0.75470  0.34314  0.38964  1.0000
  O   O9        1.0  0.80010  0.69279  0.75251  1.0000
  O   O10       1.0  0.30010  0.80721  0.74749  1.0000
  O   O11       1.0  0.19990  0.30721  0.24749  1.0000
  O   O12       1.0  0.69990  0.19279  0.25251  1.0000
  O   O13       1.0  0.84747  0.60172  0.93713  1.0000
  O   O14       1.0  0.34747  0.89828  0.56287  1.0000
  O   O15       1.0  0.15253  0.39828  0.06287  1.0000
  O   O16       1.0  0.65253  0.10172  0.43713  1.0000
  O   O17       1.0  0.08249  0.64937  0.80279  1.0000
  O   O18       1.0  0.58249  0.85063  0.69721  1.0000
  O   O19       1.0  0.91751  0.35063  0.19721  1.0000
  O   O20       1.0  0.41751  0.14937  0.30279  1.0000
  O   O21       1.0  0.02761  0.81569  0.97514  1.0000
  O   O22       1.0  0.52761  0.68432  0.52486  1.0000
  O   O23       1.0  0.97239  0.18431  0.02486  1.0000
  O   O24       1.0  0.47239  0.31568  0.47514  1.0000
  O   O25       1.0  0.99990  0.03903  0.86214  1.0000
  O   O26       1.0  0.49990  0.46097  0.63786  1.0000
  O   O27       1.0  0.00010  0.96097  0.13786  1.0000
  O   O28       1.0  0.50010  0.53903  0.36214  1.0000
  O   O29       1.0  0.79304  0.98086  0.99872  1.0000
  O   O30       1.0  0.29304  0.51914  0.50128  1.0000
  O   O31       1.0  0.20696  0.01914  0.00128  1.0000
  O   O32       1.0  0.70696  0.48086  0.49872  1.0000
  O   O33       1.0  0.62475  0.61121  0.90439  1.0000
  O   O34       1.0  0.12475  0.88879  0.59561  1.0000
  O   O35       1.0  0.37525  0.38879  0.09561  1.0000
  O   O36       1.0  0.87525  0.11121  0.40439  1.0000
  O   O37       1.0  0.10758  0.48069  0.87903  1.0000
  O   O38       1.0  0.60758  0.01931  0.62097  1.0000
  O   O39       1.0  0.89243  0.51931  0.12097  1.0000
  O   O40       1.0  0.39242  0.98069  0.37903  1.0000
  O   O41       1.0  0.10810  0.64840  0.03428  1.0000
  O   O42       1.0  0.60810  0.85160  0.46572  1.0000
  O   O43       1.0  0.89190  0.35160  0.96572  1.0000
  O   O44       1.0  0.39190  0.14840  0.53428  1.0000
  O   O45       1.0  0.94396  0.68392  0.63262  1.0000
  O   O46       1.0  0.44396  0.81608  0.86738  1.0000
  O   O47       1.0  0.05604  0.31608  0.36738  1.0000
  O   O48       1.0  0.55604  0.18392  0.13262  1.0000
