data_image0
_chemical_formula_structural       Hg4H36C32S4Cl8
_chemical_formula_sum              "Hg4 H36 C32 S4 Cl8"
_cell_length_a       5.85783
_cell_length_b       11.7574
_cell_length_c       15.038
_cell_angle_alpha    92.3133
_cell_angle_beta     90
_cell_angle_gamma    89.9998

_space_group_name_H-M_alt    "P 1"
_space_group_IT_number       1

loop_
  _space_group_symop_operation_xyz
  'x, y, z'

loop_
  _atom_site_type_symbol
  _atom_site_label
  _atom_site_symmetry_multiplicity
  _atom_site_fract_x
  _atom_site_fract_y
  _atom_site_fract_z
  _atom_site_occupancy
  Hg  Hg1       1.0  0.93839  0.12487  0.75928  1.0000
  Hg  Hg2       1.0  0.43840  0.87512  0.74072  1.0000
  Hg  Hg3       1.0  0.06160  0.87512  0.24071  1.0000
  Hg  Hg4       1.0  0.56159  0.12488  0.25929  1.0000
  H   H1        1.0  0.23969  0.33145  0.68610  1.0000
  H   H2        1.0  0.73971  0.66854  0.81390  1.0000
  H   H3        1.0  0.76030  0.66854  0.31390  1.0000
  H   H4        1.0  0.26028  0.33147  0.18609  1.0000
  H   H5        1.0  0.30162  0.54045  0.69740  1.0000
  H   H6        1.0  0.80164  0.45954  0.80260  1.0000
  H   H7        1.0  0.69837  0.45954  0.30260  1.0000
  H   H8        1.0  0.19838  0.54047  0.19739  1.0000
  H   H9        1.0  0.00615  0.67212  0.64230  1.0000
  H   H10       1.0  0.50617  0.32788  0.85770  1.0000
  H   H11       1.0  0.99386  0.32788  0.35770  1.0000
  H   H12       1.0  0.49387  0.67213  0.14229  1.0000
  H   H13       1.0  0.64594  0.59519  0.57653  1.0000
  H   H14       1.0  0.14595  0.40481  0.92346  1.0000
  H   H15       1.0  0.35407  0.40481  0.42347  1.0000
  H   H16       1.0  0.85408  0.59519  0.07653  1.0000
  H   H17       1.0  0.58811  0.38457  0.55961  1.0000
  H   H18       1.0  0.08812  0.61542  0.94038  1.0000
  H   H19       1.0  0.41189  0.61543  0.44038  1.0000
  H   H20       1.0  0.91190  0.38457  0.05962  1.0000
  H   H21       1.0  0.08418  0.19596  0.47724  1.0000
  H   H22       1.0  0.58417  0.80404  0.02276  1.0000
  H   H23       1.0  0.91582  0.80403  0.52276  1.0000
  H   H24       1.0  0.41582  0.19596  0.97724  1.0000
  H   H25       1.0  0.25884  0.18146  0.57397  1.0000
  H   H26       1.0  0.75884  0.81854  0.92603  1.0000
  H   H27       1.0  0.74116  0.81853  0.42602  1.0000
  H   H28       1.0  0.24116  0.18147  0.07397  1.0000
  H   H29       1.0  0.12198  0.98214  0.58892  1.0000
  H   H30       1.0  0.62198  0.01786  0.91108  1.0000
  H   H31       1.0  0.87801  0.01785  0.41108  1.0000
  H   H32       1.0  0.37801  0.98215  0.08893  1.0000
  H   H33       1.0  0.26187  0.00281  0.48754  1.0000
  H   H34       1.0  0.76187  0.99719  0.01246  1.0000
  H   H35       1.0  0.73812  0.99718  0.51246  1.0000
  H   H36       1.0  0.23812  0.00281  0.98755  1.0000
  C   C1        1.0  0.91091  0.34628  0.62118  1.0000
  C   C2        1.0  0.41092  0.65371  0.87882  1.0000
  C   C3        1.0  0.08908  0.65371  0.37882  1.0000
  C   C4        1.0  0.58907  0.34629  0.12118  1.0000
  C   C5        1.0  0.11173  0.38916  0.66047  1.0000
  C   C6        1.0  0.61174  0.61083  0.83953  1.0000
  C   C7        1.0  0.88827  0.61083  0.33953  1.0000
  C   C8        1.0  0.38826  0.38918  0.16046  1.0000
  C   C9        1.0  0.14517  0.50659  0.66735  1.0000
  C   C10       1.0  0.64519  0.49342  0.83265  1.0000
  C   C11       1.0  0.85482  0.49341  0.33265  1.0000
  C   C12       1.0  0.35483  0.50659  0.16734  1.0000
  C   C13       1.0  0.97828  0.58042  0.63649  1.0000
  C   C14       1.0  0.47830  0.41957  0.86351  1.0000
  C   C15       1.0  0.02172  0.41958  0.36351  1.0000
  C   C16       1.0  0.52172  0.58043  0.13648  1.0000
  C   C17       1.0  0.77708  0.53695  0.59870  1.0000
  C   C18       1.0  0.27709  0.46304  0.90129  1.0000
  C   C19       1.0  0.22292  0.46305  0.40129  1.0000
  C   C20       1.0  0.72293  0.53696  0.09870  1.0000
  C   C21       1.0  0.74284  0.41952  0.59033  1.0000
  C   C22       1.0  0.24284  0.58047  0.90967  1.0000
  C   C23       1.0  0.25717  0.58048  0.40966  1.0000
  C   C24       1.0  0.75717  0.41953  0.09033  1.0000
  C   C25       1.0  0.10315  0.15187  0.53984  1.0000
  C   C26       1.0  0.60316  0.84813  0.96017  1.0000
  C   C27       1.0  0.89684  0.84812  0.46016  1.0000
  C   C28       1.0  0.39684  0.15188  0.03984  1.0000
  C   C29       1.0  0.10450  0.02339  0.52495  1.0000
  C   C30       1.0  0.60450  0.97661  0.97505  1.0000
  C   C31       1.0  0.89549  0.97660  0.47504  1.0000
  C   C32       1.0  0.39549  0.02340  0.02496  1.0000
  S   S1        1.0  0.85807  0.19765  0.60743  1.0000
  S   S2        1.0  0.35808  0.80235  0.89256  1.0000
  S   S3        1.0  0.14192  0.80235  0.39256  1.0000
  S   S4        1.0  0.64191  0.19766  0.10744  1.0000
  Cl  Cl1       1.0  0.91274  0.90035  0.75275  1.0000
  Cl  Cl2       1.0  0.41273  0.09965  0.74725  1.0000
  Cl  Cl3       1.0  0.08726  0.09964  0.24726  1.0000
  Cl  Cl4       1.0  0.58726  0.90036  0.25275  1.0000
  Cl  Cl5       1.0  0.92939  0.21061  0.90785  1.0000
  Cl  Cl6       1.0  0.42938  0.78939  0.59215  1.0000
  Cl  Cl7       1.0  0.07062  0.78939  0.09215  1.0000
  Cl  Cl8       1.0  0.57062  0.21061  0.40785  1.0000
