data_image0
_chemical_formula_structural       Hg4H36C32S4Br8
_chemical_formula_sum              "Hg4 H36 C32 S4 Br8"
_cell_length_a       6.25881
_cell_length_b       11.8337
_cell_length_c       15.0214
_cell_angle_alpha    91.7522
_cell_angle_beta     89.9965
_cell_angle_gamma    89.9984

_space_group_name_H-M_alt    "P 1"
_space_group_IT_number       1

loop_
  _space_group_symop_operation_xyz
  'x, y, z'

loop_
  _atom_site_type_symbol
  _atom_site_label
  _atom_site_symmetry_multiplicity
  _atom_site_fract_x
  _atom_site_fract_y
  _atom_site_fract_z
  _atom_site_occupancy
  Hg  Hg1       1.0  0.96877  0.61861  0.76106  1.0000
  Hg  Hg2       1.0  0.46874  0.38139  0.73893  1.0000
  Hg  Hg3       1.0  0.03122  0.38138  0.23894  1.0000
  Hg  Hg4       1.0  0.53123  0.61862  0.26108  1.0000
  H   H1        1.0  0.23408  0.82904  0.68255  1.0000
  H   H2        1.0  0.73407  0.17100  0.81745  1.0000
  H   H3        1.0  0.76591  0.17095  0.31747  1.0000
  H   H4        1.0  0.26590  0.82901  0.18255  1.0000
  H   H5        1.0  0.28899  0.03713  0.69331  1.0000
  H   H6        1.0  0.78904  0.96290  0.80669  1.0000
  H   H7        1.0  0.71102  0.96286  0.30670  1.0000
  H   H8        1.0  0.21100  0.03712  0.19331  1.0000
  H   H9        1.0  0.00494  0.16697  0.64207  1.0000
  H   H10       1.0  0.50494  0.83305  0.85792  1.0000
  H   H11       1.0  0.99509  0.83302  0.35793  1.0000
  H   H12       1.0  0.49510  0.16695  0.14208  1.0000
  H   H13       1.0  0.66421  0.08948  0.58105  1.0000
  H   H14       1.0  0.16417  0.91056  0.91894  1.0000
  H   H15       1.0  0.33584  0.91052  0.41894  1.0000
  H   H16       1.0  0.83583  0.08943  0.08104  1.0000
  H   H17       1.0  0.61168  0.88038  0.56632  1.0000
  H   H18       1.0  0.11165  0.11964  0.93368  1.0000
  H   H19       1.0  0.38834  0.11962  0.43368  1.0000
  H   H20       1.0  0.88833  0.88034  0.06631  1.0000
  H   H21       1.0  0.06749  0.69618  0.47496  1.0000
  H   H22       1.0  0.56749  0.30383  0.02503  1.0000
  H   H23       1.0  0.93248  0.30383  0.52505  1.0000
  H   H24       1.0  0.43251  0.69618  0.97497  1.0000
  H   H25       1.0  0.24353  0.68266  0.56810  1.0000
  H   H26       1.0  0.74351  0.31733  0.93187  1.0000
  H   H27       1.0  0.75646  0.31734  0.43190  1.0000
  H   H28       1.0  0.25647  0.68267  0.06811  1.0000
  H   H29       1.0  0.12707  0.48323  0.58631  1.0000
  H   H30       1.0  0.62708  0.51678  0.91368  1.0000
  H   H31       1.0  0.87290  0.51677  0.41369  1.0000
  H   H32       1.0  0.37291  0.48323  0.08631  1.0000
  H   H33       1.0  0.24287  0.50603  0.48193  1.0000
  H   H34       1.0  0.74287  0.49396  0.01805  1.0000
  H   H35       1.0  0.75712  0.49396  0.51807  1.0000
  H   H36       1.0  0.25712  0.50604  0.98194  1.0000
  C   C1        1.0  0.92021  0.84297  0.62293  1.0000
  C   C2        1.0  0.42020  0.15706  0.87707  1.0000
  C   C3        1.0  0.07981  0.15702  0.37707  1.0000
  C   C4        1.0  0.57978  0.84295  0.12294  1.0000
  C   C5        1.0  0.11078  0.88623  0.65922  1.0000
  C   C6        1.0  0.61076  0.11381  0.84078  1.0000
  C   C7        1.0  0.88922  0.11378  0.34080  1.0000
  C   C8        1.0  0.38923  0.88619  0.15922  1.0000
  C   C9        1.0  0.14049  0.00297  0.66565  1.0000
  C   C10       1.0  0.64053  0.99705  0.83435  1.0000
  C   C11       1.0  0.85951  0.99704  0.33435  1.0000
  C   C12       1.0  0.35949  0.00295  0.16566  1.0000
  C   C13       1.0  0.98027  0.07580  0.63690  1.0000
  C   C14       1.0  0.48026  0.92423  0.86308  1.0000
  C   C15       1.0  0.01974  0.92420  0.36309  1.0000
  C   C16       1.0  0.51975  0.07576  0.13692  1.0000
  C   C17       1.0  0.78953  0.03209  0.60210  1.0000
  C   C18       1.0  0.28952  0.96794  0.89789  1.0000
  C   C19       1.0  0.21049  0.96791  0.39789  1.0000
  C   C20       1.0  0.71050  0.03205  0.10210  1.0000
  C   C21       1.0  0.75865  0.91541  0.59473  1.0000
  C   C22       1.0  0.25860  0.08462  0.90526  1.0000
  C   C23       1.0  0.24138  0.08459  0.40527  1.0000
  C   C24       1.0  0.74139  0.91538  0.09473  1.0000
  C   C25       1.0  0.09481  0.65209  0.53729  1.0000
  C   C26       1.0  0.59479  0.34791  0.96269  1.0000
  C   C27       1.0  0.90517  0.34791  0.46272  1.0000
  C   C28       1.0  0.40518  0.65209  0.03729  1.0000
  C   C29       1.0  0.09979  0.52449  0.52264  1.0000
  C   C30       1.0  0.59980  0.47551  0.97735  1.0000
  C   C31       1.0  0.90019  0.47551  0.47736  1.0000
  C   C32       1.0  0.40019  0.52449  0.02264  1.0000
  S   S1        1.0  0.87278  0.69530  0.60965  1.0000
  S   S2        1.0  0.37277  0.30473  0.89035  1.0000
  S   S3        1.0  0.12719  0.30470  0.39036  1.0000
  S   S4        1.0  0.62720  0.69527  0.10965  1.0000
  Br  Br1       1.0  0.42600  0.61059  0.74673  1.0000
  Br  Br2       1.0  0.92598  0.38943  0.75327  1.0000
  Br  Br3       1.0  0.57401  0.38942  0.25329  1.0000
  Br  Br4       1.0  0.07401  0.61057  0.24673  1.0000
  Br  Br5       1.0  0.93096  0.71687  0.91316  1.0000
  Br  Br6       1.0  0.43109  0.28319  0.58682  1.0000
  Br  Br7       1.0  0.06902  0.28313  0.08684  1.0000
  Br  Br8       1.0  0.56901  0.71685  0.41317  1.0000
