data_image0
_chemical_formula_structural       Ni2H16C20N16
_chemical_formula_sum              "Ni2 H16 C20 N16"
_cell_length_a       6.91557
_cell_length_b       9.39734
_cell_length_c       10.323
_cell_angle_alpha    111.262
_cell_angle_beta     99.9239
_cell_angle_gamma    105.535

_space_group_name_H-M_alt    "P 1"
_space_group_IT_number       1

loop_
  _space_group_symop_operation_xyz
  'x, y, z'

loop_
  _atom_site_type_symbol
  _atom_site_label
  _atom_site_symmetry_multiplicity
  _atom_site_fract_x
  _atom_site_fract_y
  _atom_site_fract_z
  _atom_site_occupancy
  Ni  Ni1       1.0  0.19747  0.49106  0.10674  1.0000
  Ni  Ni2       1.0  0.80253  0.50895  0.89327  1.0000
  H   H1        1.0  0.82836  0.16294  0.93635  1.0000
  H   H2        1.0  0.17164  0.83706  0.06365  1.0000
  H   H3        1.0  0.66671  0.92606  0.99172  1.0000
  H   H4        1.0  0.33330  0.07393  0.00827  1.0000
  H   H5        1.0  0.77933  0.96033  0.25022  1.0000
  H   H6        1.0  0.22068  0.03966  0.74977  1.0000
  H   H7        1.0  0.03837  0.22690  0.44071  1.0000
  H   H8        1.0  0.96163  0.77309  0.55928  1.0000
  H   H9        1.0  0.22887  0.47180  0.59098  1.0000
  H   H10       1.0  0.77112  0.52820  0.40902  1.0000
  H   H11       1.0  0.49977  0.74690  0.74539  1.0000
  H   H12       1.0  0.50023  0.25309  0.25461  1.0000
  H   H13       1.0  0.64837  0.92585  0.62504  1.0000
  H   H14       1.0  0.35164  0.07414  0.37497  1.0000
  H   H15       1.0  0.51931  0.81041  0.35194  1.0000
  H   H16       1.0  0.48070  0.18960  0.64807  1.0000
  C   C1        1.0  0.86931  0.17046  0.04596  1.0000
  C   C2        1.0  0.13069  0.82954  0.95403  1.0000
  C   C3        1.0  0.77938  0.04104  0.07829  1.0000
  C   C4        1.0  0.22062  0.95896  0.92171  1.0000
  C   C5        1.0  0.84207  0.06030  0.22139  1.0000
  C   C6        1.0  0.15793  0.93970  0.77860  1.0000
  C   C7        1.0  0.98872  0.20944  0.32814  1.0000
  C   C8        1.0  0.01128  0.79055  0.67185  1.0000
  C   C9        1.0  0.07117  0.33465  0.28796  1.0000
  C   C10       1.0  0.92883  0.66535  0.71204  1.0000
  C   C11       1.0  0.22897  0.49668  0.39047  1.0000
  C   C12       1.0  0.77103  0.50332  0.60953  1.0000
  C   C13       1.0  0.29354  0.55087  0.54156  1.0000
  C   C14       1.0  0.70645  0.44913  0.45844  1.0000
  C   C15       1.0  0.44511  0.70626  0.62795  1.0000
  C   C16       1.0  0.55489  0.29373  0.37205  1.0000
  C   C17       1.0  0.52788  0.80422  0.56197  1.0000
  C   C18       1.0  0.47213  0.19577  0.43803  1.0000
  C   C19       1.0  0.45740  0.74206  0.41070  1.0000
  C   C20       1.0  0.54260  0.25793  0.58931  1.0000
  N   N1        1.0  0.01252  0.31307  0.14798  1.0000
  N   N2        1.0  0.98747  0.68693  0.85202  1.0000
  N   N3        1.0  0.31227  0.59235  0.32738  1.0000
  N   N4        1.0  0.68773  0.40765  0.67262  1.0000
  N   N5        1.0  0.02577  0.38613  0.88731  1.0000
  N   N6        1.0  0.97423  0.61388  0.11269  1.0000
  N   N7        1.0  0.05948  0.31089  0.77685  1.0000
  N   N8        1.0  0.94052  0.68912  0.22316  1.0000
  N   N9        1.0  0.08569  0.23543  0.66729  1.0000
  N   N10       1.0  0.91430  0.76457  0.33270  1.0000
  N   N11       1.0  0.41063  0.67880  0.09230  1.0000
  N   N12       1.0  0.58937  0.32122  0.90771  1.0000
  N   N13       1.0  0.50618  0.65607  0.00637  1.0000
  N   N14       1.0  0.49383  0.34394  0.99363  1.0000
  N   N15       1.0  0.39748  0.35793  0.07945  1.0000
  N   N16       1.0  0.60251  0.64207  0.92055  1.0000
