data_image0
_chemical_formula_structural       Co2H16C20N16
_chemical_formula_sum              "Co2 H16 C20 N16"
_cell_length_a       7.13287
_cell_length_b       8.81236
_cell_length_c       9.92999
_cell_angle_alpha    111.029
_cell_angle_beta     101.973
_cell_angle_gamma    101.467

_space_group_name_H-M_alt    "P 1"
_space_group_IT_number       1

loop_
  _space_group_symop_operation_xyz
  'x, y, z'

loop_
  _atom_site_type_symbol
  _atom_site_label
  _atom_site_symmetry_multiplicity
  _atom_site_fract_x
  _atom_site_fract_y
  _atom_site_fract_z
  _atom_site_occupancy
  Co  Co1       1.0  0.12077  0.38951  0.39167  1.0000
  Co  Co2       1.0  0.87923  0.61050  0.60833  1.0000
  H   H1        1.0  0.94757  0.20476  0.55703  1.0000
  H   H2        1.0  0.05242  0.79524  0.44297  1.0000
  H   H3        1.0  0.68802  0.92440  0.47626  1.0000
  H   H4        1.0  0.31197  0.07561  0.52374  1.0000
  H   H5        1.0  0.50539  0.75143  0.19661  1.0000
  H   H6        1.0  0.49462  0.24857  0.80340  1.0000
  H   H7        1.0  0.59360  0.86204  0.01411  1.0000
  H   H8        1.0  0.40640  0.13795  0.98589  1.0000
  H   H9        1.0  0.70088  0.97920  0.87319  1.0000
  H   H10       1.0  0.29913  0.02080  0.12681  1.0000
  H   H11       1.0  0.85878  0.12850  0.73751  1.0000
  H   H12       1.0  0.14123  0.87149  0.26248  1.0000
  H   H13       1.0  0.15453  0.39707  0.89100  1.0000
  H   H14       1.0  0.84547  0.60293  0.10899  1.0000
  H   H15       1.0  0.26584  0.50336  0.17191  1.0000
  H   H16       1.0  0.73416  0.49664  0.82808  1.0000
  C   C1        1.0  0.86469  0.12400  0.43865  1.0000
  C   C2        1.0  0.13531  0.87600  0.56135  1.0000
  C   C3        1.0  0.71859  0.96972  0.39201  1.0000
  C   C4        1.0  0.28140  0.03028  0.60799  1.0000
  C   C5        1.0  0.61798  0.87438  0.23768  1.0000
  C   C6        1.0  0.38202  0.12562  0.76233  1.0000
  C   C7        1.0  0.66709  0.93694  0.13513  1.0000
  C   C8        1.0  0.33291  0.06306  0.86487  1.0000
  C   C9        1.0  0.81715  0.09125  0.18873  1.0000
  C   C10       1.0  0.18286  0.90874  0.81127  1.0000
  C   C11       1.0  0.89410  0.16572  0.09452  1.0000
  C   C12       1.0  0.10590  0.83427  0.90547  1.0000
  C   C13       1.0  0.82330  0.09745  0.93669  1.0000
  C   C14       1.0  0.17671  0.90255  0.06330  1.0000
  C   C15       1.0  0.91333  0.18079  0.86063  1.0000
  C   C16       1.0  0.08668  0.81921  0.13937  1.0000
  C   C17       1.0  0.07485  0.32868  0.94433  1.0000
  C   C18       1.0  0.92515  0.67132  0.05567  1.0000
  C   C19       1.0  0.13985  0.38960  0.10117  1.0000
  C   C20       1.0  0.86015  0.61040  0.89883  1.0000
  N   N1        1.0  0.91450  0.18445  0.34003  1.0000
  N   N2        1.0  0.08550  0.81555  0.65997  1.0000
  N   N3        1.0  0.05155  0.31165  0.17608  1.0000
  N   N4        1.0  0.94845  0.68835  0.82391  1.0000
  N   N5        1.0  0.13699  0.46634  0.60334  1.0000
  N   N6        1.0  0.86301  0.53367  0.39666  1.0000
  N   N7        1.0  0.27913  0.52948  0.71655  1.0000
  N   N8        1.0  0.72087  0.47052  0.28345  1.0000
  N   N9        1.0  0.40411  0.59024  0.83388  1.0000
  N   N10       1.0  0.59588  0.40975  0.16612  1.0000
  N   N11       1.0  0.31888  0.59450  0.42530  1.0000
  N   N12       1.0  0.68111  0.40552  0.57472  1.0000
  N   N13       1.0  0.48203  0.66392  0.51608  1.0000
  N   N14       1.0  0.51797  0.33608  0.48392  1.0000
  N   N15       1.0  0.35391  0.26025  0.39883  1.0000
  N   N16       1.0  0.64609  0.73974  0.60116  1.0000
