data_image0
_chemical_formula_structural       Cu4H36C36N12Cl4O4
_chemical_formula_sum              "Cu4 H36 C36 N12 Cl4 O4"
_cell_length_a       8.56691
_cell_length_b       11.4739
_cell_length_c       11.4721
_cell_angle_alpha    89.9993
_cell_angle_beta     108.855
_cell_angle_gamma    90.0002

_space_group_name_H-M_alt    "P 1"
_space_group_IT_number       1

loop_
  _space_group_symop_operation_xyz
  'x, y, z'

loop_
  _atom_site_type_symbol
  _atom_site_label
  _atom_site_symmetry_multiplicity
  _atom_site_fract_x
  _atom_site_fract_y
  _atom_site_fract_z
  _atom_site_occupancy
  Cu  Cu1       1.0  0.04930  0.88773  0.10241  1.0000
  Cu  Cu2       1.0  0.95070  0.38773  0.39760  1.0000
  Cu  Cu3       1.0  0.95070  0.11227  0.89759  1.0000
  Cu  Cu4       1.0  0.04929  0.61227  0.60241  1.0000
  H   H1        1.0  0.17483  0.36975  0.29834  1.0000
  H   H2        1.0  0.82516  0.86974  0.20166  1.0000
  H   H3        1.0  0.82515  0.63025  0.70166  1.0000
  H   H4        1.0  0.17484  0.13026  0.79834  1.0000
  H   H5        1.0  0.03562  0.24046  0.26028  1.0000
  H   H6        1.0  0.96437  0.74046  0.23973  1.0000
  H   H7        1.0  0.96436  0.75953  0.73973  1.0000
  H   H8        1.0  0.03563  0.25954  0.76028  1.0000
  H   H9        1.0  0.24203  0.32795  0.52232  1.0000
  H   H10       1.0  0.75798  0.82795  0.97767  1.0000
  H   H11       1.0  0.75798  0.67205  0.47767  1.0000
  H   H12       1.0  0.24202  0.17205  0.02233  1.0000
  H   H13       1.0  0.07154  0.17573  0.58750  1.0000
  H   H14       1.0  0.92847  0.67573  0.91250  1.0000
  H   H15       1.0  0.92846  0.82427  0.41250  1.0000
  H   H16       1.0  0.07154  0.32427  0.08750  1.0000
  H   H17       1.0  0.98529  0.12772  0.43157  1.0000
  H   H18       1.0  0.01473  0.62772  0.06844  1.0000
  H   H19       1.0  0.01472  0.87227  0.56844  1.0000
  H   H20       1.0  0.98528  0.37228  0.93156  1.0000
  H   H21       1.0  0.42355  0.99074  0.10650  1.0000
  H   H22       1.0  0.57644  0.49074  0.39349  1.0000
  H   H23       1.0  0.57644  0.00926  0.89350  1.0000
  H   H24       1.0  0.42356  0.50927  0.60650  1.0000
  H   H25       1.0  0.66467  0.12691  0.18291  1.0000
  H   H26       1.0  0.33532  0.62692  0.31708  1.0000
  H   H27       1.0  0.33532  0.87308  0.81709  1.0000
  H   H28       1.0  0.66468  0.37309  0.68292  1.0000
  H   H29       1.0  0.71577  0.23575  0.37884  1.0000
  H   H30       1.0  0.28424  0.73576  0.12115  1.0000
  H   H31       1.0  0.28424  0.76425  0.62115  1.0000
  H   H32       1.0  0.71577  0.26425  0.87885  1.0000
  H   H33       1.0  0.53787  0.20921  0.50979  1.0000
  H   H34       1.0  0.46214  0.70921  0.99020  1.0000
  H   H35       1.0  0.46213  0.79080  0.49020  1.0000
  H   H36       1.0  0.53787  0.29080  0.00980  1.0000
  C   C1        1.0  0.10841  0.30198  0.32978  1.0000
  C   C2        1.0  0.89160  0.80197  0.17022  1.0000
  C   C3        1.0  0.89159  0.69802  0.67022  1.0000
  C   C4        1.0  0.10841  0.19802  0.82978  1.0000
  C   C5        1.0  0.14527  0.27848  0.45483  1.0000
  C   C6        1.0  0.85474  0.77847  0.04518  1.0000
  C   C7        1.0  0.85473  0.72153  0.54518  1.0000
  C   C8        1.0  0.14527  0.22153  0.95483  1.0000
  C   C9        1.0  0.09354  0.16764  0.49924  1.0000
  C   C10       1.0  0.90648  0.66763  0.00077  1.0000
  C   C11       1.0  0.90647  0.83236  0.50077  1.0000
  C   C12       1.0  0.09353  0.33236  0.99923  1.0000
  C   C13       1.0  0.44944  0.03818  0.19298  1.0000
  C   C14       1.0  0.55055  0.53818  0.30701  1.0000
  C   C15       1.0  0.55056  0.96182  0.80702  1.0000
  C   C16       1.0  0.44944  0.46182  0.69298  1.0000
  C   C17       1.0  0.58103  0.11453  0.23624  1.0000
  C   C18       1.0  0.41896  0.61453  0.26375  1.0000
  C   C19       1.0  0.41897  0.88547  0.76375  1.0000
  C   C20       1.0  0.58103  0.38548  0.73625  1.0000
  C   C21       1.0  0.61142  0.17586  0.34870  1.0000
  C   C22       1.0  0.38858  0.67587  0.15129  1.0000
  C   C23       1.0  0.38858  0.82414  0.65129  1.0000
  C   C24       1.0  0.61142  0.32414  0.84871  1.0000
  C   C25       1.0  0.51349  0.16240  0.42318  1.0000
  C   C26       1.0  0.48652  0.66240  0.07681  1.0000
  C   C27       1.0  0.48651  0.83761  0.57682  1.0000
  C   C28       1.0  0.51348  0.33761  0.92319  1.0000
  C   C29       1.0  0.38128  0.08483  0.37933  1.0000
  C   C30       1.0  0.61872  0.58482  0.12067  1.0000
  C   C31       1.0  0.61872  0.91517  0.62067  1.0000
  C   C32       1.0  0.38128  0.41518  0.87933  1.0000
  C   C33       1.0  0.34736  0.02441  0.26640  1.0000
  C   C34       1.0  0.65263  0.52441  0.23360  1.0000
  C   C35       1.0  0.65264  0.97559  0.73360  1.0000
  C   C36       1.0  0.34736  0.47559  0.76639  1.0000
  N   N1        1.0  0.25770  0.04787  0.42183  1.0000
  N   N2        1.0  0.74230  0.54787  0.07817  1.0000
  N   N3        1.0  0.74231  0.95213  0.57818  1.0000
  N   N4        1.0  0.25769  0.45213  0.92182  1.0000
  N   N5        1.0  0.15403  0.97366  0.34535  1.0000
  N   N6        1.0  0.84597  0.47366  0.15466  1.0000
  N   N7        1.0  0.84597  0.02634  0.65466  1.0000
  N   N8        1.0  0.15402  0.52634  0.84534  1.0000
  N   N9        1.0  0.20625  0.95915  0.24997  1.0000
  N   N10       1.0  0.79374  0.45915  0.25003  1.0000
  N   N11       1.0  0.79375  0.04085  0.75003  1.0000
  N   N12       1.0  0.20625  0.54085  0.74996  1.0000
  Cl  Cl1       1.0  0.13949  0.90400  0.94023  1.0000
  Cl  Cl2       1.0  0.86052  0.40399  0.55977  1.0000
  Cl  Cl3       1.0  0.86050  0.09600  0.05977  1.0000
  Cl  Cl4       1.0  0.13949  0.59599  0.44023  1.0000
  O   O1        1.0  0.23031  0.08035  0.52779  1.0000
  O   O2        1.0  0.76971  0.58035  0.97221  1.0000
  O   O3        1.0  0.76971  0.91965  0.47221  1.0000
  O   O4        1.0  0.23030  0.41965  0.02779  1.0000
