data_image0
_chemical_formula_structural       Ag2P4H48C56O4F6
_chemical_formula_sum              "Ag2 P4 H48 C56 O4 F6"
_cell_length_a       10.0345
_cell_length_b       10.9594
_cell_length_c       12.5663
_cell_angle_alpha    84.0139
_cell_angle_beta     78.4047
_cell_angle_gamma    72.766

_space_group_name_H-M_alt    "P 1"
_space_group_IT_number       1

loop_
  _space_group_symop_operation_xyz
  'x, y, z'

loop_
  _atom_site_type_symbol
  _atom_site_label
  _atom_site_symmetry_multiplicity
  _atom_site_fract_x
  _atom_site_fract_y
  _atom_site_fract_z
  _atom_site_occupancy
  Ag  Ag1       1.0  0.21084  0.45869  0.21752  1.0000
  Ag  Ag2       1.0  0.78916  0.54131  0.78247  1.0000
  P   P1        1.0  0.34455  0.38739  0.04375  1.0000
  P   P2        1.0  0.65545  0.61261  0.95625  1.0000
  P   P3        1.0  0.06267  0.37270  0.36062  1.0000
  P   P4        1.0  0.93733  0.62730  0.63938  1.0000
  H   H1        1.0  0.35854  0.17185  0.19888  1.0000
  H   H2        1.0  0.64146  0.82815  0.80112  1.0000
  H   H3        1.0  0.52821  0.95525  0.20768  1.0000
  H   H4        1.0  0.47179  0.04475  0.79232  1.0000
  H   H5        1.0  0.74615  0.89478  0.06702  1.0000
  H   H6        1.0  0.25385  0.10522  0.93298  1.0000
  H   H7        1.0  0.79328  0.05267  0.91613  1.0000
  H   H8        1.0  0.20672  0.94733  0.08387  1.0000
  H   H9        1.0  0.62582  0.26536  0.90562  1.0000
  H   H10       1.0  0.37418  0.73464  0.09438  1.0000
  H   H11       1.0  0.39635  0.35677  0.80428  1.0000
  H   H12       1.0  0.60365  0.64323  0.19572  1.0000
  H   H13       1.0  0.25780  0.29744  0.68811  1.0000
  H   H14       1.0  0.74220  0.70257  0.31188  1.0000
  H   H15       1.0  0.01766  0.27082  0.76588  1.0000
  H   H16       1.0  0.98234  0.72918  0.23412  1.0000
  H   H17       1.0  0.91803  0.30637  0.96143  1.0000
  H   H18       1.0  0.08198  0.69363  0.03857  1.0000
  H   H19       1.0  0.05858  0.36435  0.07994  1.0000
  H   H20       1.0  0.94143  0.63564  0.92006  1.0000
  H   H21       1.0  0.49867  0.45811  0.88624  1.0000
  H   H22       1.0  0.50133  0.54189  0.11376  1.0000
  H   H23       1.0  0.36823  0.58483  0.95464  1.0000
  H   H24       1.0  0.63177  0.41517  0.04536  1.0000
  H   H25       1.0  0.74670  0.45511  0.37356  1.0000
  H   H26       1.0  0.25330  0.54489  0.62644  1.0000
  H   H27       1.0  0.59195  0.37471  0.28872  1.0000
  H   H28       1.0  0.40806  0.62529  0.71129  1.0000
  H   H29       1.0  0.69317  0.18115  0.17689  1.0000
  H   H30       1.0  0.30683  0.81885  0.82312  1.0000
  H   H31       1.0  0.95182  0.07156  0.15076  1.0000
  H   H32       1.0  0.04818  0.92845  0.84924  1.0000
  H   H33       1.0  0.10973  0.15457  0.23436  1.0000
  H   H34       1.0  0.89026  0.84543  0.76564  1.0000
  H   H35       1.0  0.98382  0.15776  0.49395  1.0000
  H   H36       1.0  0.01618  0.84224  0.50605  1.0000
  H   H37       1.0  0.10943  0.99431  0.61919  1.0000
  H   H38       1.0  0.89057  0.00569  0.38080  1.0000
  H   H39       1.0  0.35444  0.98398  0.63748  1.0000
  H   H40       1.0  0.64556  0.01602  0.36252  1.0000
  H   H41       1.0  0.47550  0.13658  0.52812  1.0000
  H   H42       1.0  0.52450  0.86342  0.47188  1.0000
  H   H43       1.0  0.35047  0.30091  0.40250  1.0000
  H   H44       1.0  0.64953  0.69910  0.59750  1.0000
  H   H45       1.0  0.88708  0.56384  0.42885  1.0000
  H   H46       1.0  0.11292  0.43616  0.57115  1.0000
  H   H47       1.0  0.88158  0.43145  0.52246  1.0000
  H   H48       1.0  0.11842  0.56856  0.47755  1.0000
  C   C1        1.0  0.30449  0.65752  0.30498  1.0000
  C   C2        1.0  0.69550  0.34248  0.69502  1.0000
  C   C3        1.0  0.30539  0.78517  0.34968  1.0000
  C   C4        1.0  0.69461  0.21482  0.65032  1.0000
  C   C5        1.0  0.47778  0.23275  0.05055  1.0000
  C   C6        1.0  0.52222  0.76725  0.94945  1.0000
  C   C7        1.0  0.45309  0.14463  0.13605  1.0000
  C   C8        1.0  0.54691  0.85537  0.86395  1.0000
  C   C9        1.0  0.54902  0.02335  0.14157  1.0000
  C   C10       1.0  0.45098  0.97665  0.85843  1.0000
  C   C11       1.0  0.67147  0.98942  0.06249  1.0000
  C   C12       1.0  0.32853  0.01059  0.93751  1.0000
  C   C13       1.0  0.69784  0.07755  0.97819  1.0000
  C   C14       1.0  0.30216  0.92245  0.02182  1.0000
  C   C15       1.0  0.60166  0.19850  0.97190  1.0000
  C   C16       1.0  0.39834  0.80150  0.02810  1.0000
  C   C17       1.0  0.23756  0.36263  0.95091  1.0000
  C   C18       1.0  0.76245  0.63736  0.04908  1.0000
  C   C19       1.0  0.29197  0.34602  0.83985  1.0000
  C   C20       1.0  0.70803  0.65397  0.16015  1.0000
  C   C21       1.0  0.21289  0.31362  0.77366  1.0000
  C   C22       1.0  0.78711  0.68638  0.22633  1.0000
  C   C23       1.0  0.07878  0.29834  0.81691  1.0000
  C   C24       1.0  0.92123  0.70166  0.18309  1.0000
  C   C25       1.0  0.02265  0.31801  0.92707  1.0000
  C   C26       1.0  0.97735  0.68198  0.07293  1.0000
  C   C27       1.0  0.10168  0.35011  0.99383  1.0000
  C   C28       1.0  0.89832  0.64989  0.00617  1.0000
  C   C29       1.0  0.44625  0.49258  0.96757  1.0000
  C   C30       1.0  0.55375  0.50742  0.03243  1.0000
  C   C31       1.0  0.93959  0.31108  0.30933  1.0000
  C   C32       1.0  0.06041  0.68893  0.69067  1.0000
  C   C33       1.0  0.79357  0.37189  0.32412  1.0000
  C   C34       1.0  0.20643  0.62811  0.67589  1.0000
  C   C35       1.0  0.70520  0.32541  0.27632  1.0000
  C   C36       1.0  0.29480  0.67459  0.72369  1.0000
  C   C37       1.0  0.76196  0.21783  0.21378  1.0000
  C   C38       1.0  0.23804  0.78217  0.78622  1.0000
  C   C39       1.0  0.90759  0.15621  0.19901  1.0000
  C   C40       1.0  0.09241  0.84379  0.80100  1.0000
  C   C41       1.0  0.99612  0.20272  0.24608  1.0000
  C   C42       1.0  0.00388  0.79728  0.75392  1.0000
  C   C43       1.0  0.15899  0.23976  0.44017  1.0000
  C   C44       1.0  0.84101  0.76024  0.55983  1.0000
  C   C45       1.0  0.09166  0.15304  0.50122  1.0000
  C   C46       1.0  0.90834  0.84696  0.49878  1.0000
  C   C47       1.0  0.16224  0.06117  0.57161  1.0000
  C   C48       1.0  0.83776  0.93884  0.42839  1.0000
  C   C49       1.0  0.30015  0.05542  0.58160  1.0000
  C   C50       1.0  0.69985  0.94458  0.41840  1.0000
  C   C51       1.0  0.36811  0.14088  0.52037  1.0000
  C   C52       1.0  0.63189  0.85912  0.47963  1.0000
  C   C53       1.0  0.29814  0.23282  0.44939  1.0000
  C   C54       1.0  0.70186  0.76718  0.55061  1.0000
  C   C55       1.0  0.95299  0.47988  0.46839  1.0000
  C   C56       1.0  0.04701  0.52013  0.53161  1.0000
  O   O1        1.0  0.21073  0.66892  0.24740  1.0000
  O   O2        1.0  0.78927  0.33107  0.75261  1.0000
  O   O3        1.0  0.39532  0.55960  0.33130  1.0000
  O   O4        1.0  0.60469  0.44038  0.66870  1.0000
  F   F1        1.0  0.20926  0.89098  0.31555  1.0000
  F   F2        1.0  0.79074  0.10901  0.68445  1.0000
  F   F3        1.0  0.43585  0.80681  0.31868  1.0000
  F   F4        1.0  0.56414  0.19319  0.68133  1.0000
  F   F5        1.0  0.27753  0.78021  0.46080  1.0000
  F   F6        1.0  0.72247  0.21978  0.53921  1.0000
