data_image0
_chemical_formula_structural       Li6H60C30S12N6
_chemical_formula_sum              "Li6 H60 C30 S12 N6"
_cell_length_a       9.45207
_cell_length_b       9.99005
_cell_length_c       14.2019
_cell_angle_alpha    103.396
_cell_angle_beta     89.986
_cell_angle_gamma    118.25

_space_group_name_H-M_alt    "P 1"
_space_group_IT_number       1

loop_
  _space_group_symop_operation_xyz
  'x, y, z'

loop_
  _atom_site_type_symbol
  _atom_site_label
  _atom_site_symmetry_multiplicity
  _atom_site_fract_x
  _atom_site_fract_y
  _atom_site_fract_z
  _atom_site_occupancy
  Li  Li1       1.0  0.93717  0.99995  0.25006  1.0000
  Li  Li2       1.0  0.06283  0.00006  0.74994  1.0000
  Li  Li3       1.0  0.14426  0.05706  0.05058  1.0000
  Li  Li4       1.0  0.08721  0.94294  0.44942  1.0000
  Li  Li5       1.0  0.85574  0.94294  0.94942  1.0000
  Li  Li6       1.0  0.91279  0.05706  0.55058  1.0000
  H   H1        1.0  0.17658  0.46324  0.23803  1.0000
  H   H2        1.0  0.71349  0.53681  0.26201  1.0000
  H   H3        1.0  0.82342  0.53676  0.76197  1.0000
  H   H4        1.0  0.28651  0.46320  0.73799  1.0000
  H   H5        1.0  0.00315  0.48707  0.22921  1.0000
  H   H6        1.0  0.51618  0.51294  0.27099  1.0000
  H   H7        1.0  0.99685  0.51293  0.77079  1.0000
  H   H8        1.0  0.48382  0.48707  0.72901  1.0000
  H   H9        1.0  0.98177  0.29848  0.22578  1.0000
  H   H10       1.0  0.68345  0.70155  0.27430  1.0000
  H   H11       1.0  0.01823  0.70152  0.77422  1.0000
  H   H12       1.0  0.31655  0.29845  0.72570  1.0000
  H   H13       1.0  0.11558  0.59143  0.40186  1.0000
  H   H14       1.0  0.52407  0.40846  0.09830  1.0000
  H   H15       1.0  0.88442  0.40857  0.59814  1.0000
  H   H16       1.0  0.47593  0.59154  0.90170  1.0000
  H   H17       1.0  0.93431  0.41040  0.38935  1.0000
  H   H18       1.0  0.52384  0.58945  0.11079  1.0000
  H   H19       1.0  0.06569  0.58960  0.61065  1.0000
  H   H20       1.0  0.47616  0.41056  0.88921  1.0000
  H   H21       1.0  0.36031  0.57275  0.38155  1.0000
  H   H22       1.0  0.78750  0.42718  0.11845  1.0000
  H   H23       1.0  0.63969  0.42725  0.61844  1.0000
  H   H24       1.0  0.21250  0.57282  0.88155  1.0000
  H   H25       1.0  0.38298  0.44119  0.43672  1.0000
  H   H26       1.0  0.94165  0.55866  0.06314  1.0000
  H   H27       1.0  0.61702  0.55882  0.56328  1.0000
  H   H28       1.0  0.05835  0.44134  0.93686  1.0000
  H   H29       1.0  0.30528  0.70068  0.54412  1.0000
  H   H30       1.0  0.60429  0.29911  0.95592  1.0000
  H   H31       1.0  0.69472  0.29932  0.45588  1.0000
  H   H32       1.0  0.39571  0.70089  0.04408  1.0000
  H   H33       1.0  0.49962  0.71312  0.55211  1.0000
  H   H34       1.0  0.78621  0.28670  0.94788  1.0000
  H   H35       1.0  0.50038  0.28688  0.44789  1.0000
  H   H36       1.0  0.21378  0.71330  0.05212  1.0000
  H   H37       1.0  0.33598  0.56937  0.59694  1.0000
  H   H38       1.0  0.76635  0.43040  0.90305  1.0000
  H   H39       1.0  0.66402  0.43063  0.40306  1.0000
  H   H40       1.0  0.23365  0.56960  0.09695  1.0000
  H   H41       1.0  0.55555  0.02119  0.40734  1.0000
  H   H42       1.0  0.53465  0.97885  0.09266  1.0000
  H   H43       1.0  0.44445  0.97881  0.59266  1.0000
  H   H44       1.0  0.46535  0.02114  0.90734  1.0000
  H   H45       1.0  0.48323  0.81788  0.39200  1.0000
  H   H46       1.0  0.66567  0.18225  0.10811  1.0000
  H   H47       1.0  0.51677  0.18212  0.60800  1.0000
  H   H48       1.0  0.33434  0.81775  0.89189  1.0000
  H   H49       1.0  0.35095  0.89763  0.42217  1.0000
  H   H50       1.0  0.45359  0.10234  0.07783  1.0000
  H   H51       1.0  0.64905  0.10237  0.57783  1.0000
  H   H52       1.0  0.54641  0.89765  0.92217  1.0000
  H   H53       1.0  0.49107  0.86025  0.22763  1.0000
  H   H54       1.0  0.63074  0.13965  0.27242  1.0000
  H   H55       1.0  0.50893  0.13975  0.77237  1.0000
  H   H56       1.0  0.36926  0.86034  0.72758  1.0000
  H   H57       1.0  0.28373  0.76275  0.24639  1.0000
  H   H58       1.0  0.52089  0.23706  0.25361  1.0000
  H   H59       1.0  0.71626  0.23725  0.75361  1.0000
  H   H60       1.0  0.47911  0.76293  0.74639  1.0000
  C   C1        1.0  0.05454  0.42542  0.25943  1.0000
  C   C2        1.0  0.62916  0.57455  0.24063  1.0000
  C   C3        1.0  0.94546  0.57458  0.74057  1.0000
  C   C4        1.0  0.37084  0.42545  0.75937  1.0000
  C   C5        1.0  0.05775  0.46330  0.36984  1.0000
  C   C6        1.0  0.59433  0.53656  0.13025  1.0000
  C   C7        1.0  0.94225  0.53670  0.63016  1.0000
  C   C8        1.0  0.40567  0.46344  0.86975  1.0000
  C   C9        1.0  0.32350  0.51305  0.44030  1.0000
  C   C10       1.0  0.81028  0.48679  0.05968  1.0000
  C   C11       1.0  0.67650  0.48695  0.55970  1.0000
  C   C12       1.0  0.18972  0.51321  0.94032  1.0000
  C   C13       1.0  0.36853  0.63152  0.53935  1.0000
  C   C14       1.0  0.73673  0.36827  0.96066  1.0000
  C   C15       1.0  0.63147  0.36848  0.46065  1.0000
  C   C16       1.0  0.26327  0.63173  0.03934  1.0000
  C   C17       1.0  0.07804  0.26774  0.44019  1.0000
  C   C18       1.0  0.81023  0.73214  0.05984  1.0000
  C   C19       1.0  0.92196  0.73226  0.55981  1.0000
  C   C20       1.0  0.18977  0.26786  0.94016  1.0000
  C   C21       1.0  0.44985  0.90424  0.37949  1.0000
  C   C22       1.0  0.54587  0.09578  0.12055  1.0000
  C   C23       1.0  0.55015  0.09576  0.62051  1.0000
  C   C24       1.0  0.45414  0.90422  0.87945  1.0000
  C   C25       1.0  0.39943  0.87179  0.27133  1.0000
  C   C26       1.0  0.52761  0.12807  0.22866  1.0000
  C   C27       1.0  0.60057  0.12821  0.72867  1.0000
  C   C28       1.0  0.47239  0.87192  0.77134  1.0000
  C   C29       1.0  0.23842  0.99987  0.24997  1.0000
  C   C30       1.0  0.76158  0.00013  0.75003  1.0000
  S   S1        1.0  0.18727  0.22217  0.51177  1.0000
  S   S2        1.0  0.96500  0.77774  0.98816  1.0000
  S   S3        1.0  0.81273  0.77784  0.48823  1.0000
  S   S4        1.0  0.03500  0.22226  0.01184  1.0000
  S   S5        1.0  0.87394  0.13544  0.40201  1.0000
  S   S6        1.0  0.73851  0.86448  0.09809  1.0000
  S   S7        1.0  0.12606  0.86457  0.59799  1.0000
  S   S8        1.0  0.26150  0.13553  0.90190  1.0000
  S   S9        1.0  0.22180  0.15290  0.22347  1.0000
  S   S10       1.0  0.06870  0.84686  0.27655  1.0000
  S   S11       1.0  0.77820  0.84710  0.77652  1.0000
  S   S12       1.0  0.93129  0.15314  0.72345  1.0000
  N   N1        1.0  0.14832  0.40623  0.41756  1.0000
  N   N2        1.0  0.74198  0.59364  0.08247  1.0000
  N   N3        1.0  0.85168  0.59377  0.58244  1.0000
  N   N4        1.0  0.25802  0.40637  0.91753  1.0000
  N   N5        1.0  0.38031  0.99988  0.24995  1.0000
  N   N6        1.0  0.61968  0.00012  0.75005  1.0000
