data_image0
_chemical_formula_structural       Zn2H16C20N4Cl4
_chemical_formula_sum              "Zn2 H16 C20 N4 Cl4"
_cell_length_a       3.6311
_cell_length_b       11.3905
_cell_length_c       11.7422
_cell_angle_alpha    89.9995
_cell_angle_beta     89.9998
_cell_angle_gamma    90.0006

_space_group_name_H-M_alt    "P 1"
_space_group_IT_number       1

loop_
  _space_group_symop_operation_xyz
  'x, y, z'

loop_
  _atom_site_type_symbol
  _atom_site_label
  _atom_site_symmetry_multiplicity
  _atom_site_fract_x
  _atom_site_fract_y
  _atom_site_fract_z
  _atom_site_occupancy
  Zn  Zn1       1.0  0.50000  0.75000  0.75000  1.0000
  Zn  Zn2       1.0  0.49999  0.25000  0.25000  1.0000
  H   H1        1.0  0.68035  0.33453  0.57402  1.0000
  H   H2        1.0  0.68034  0.16547  0.92598  1.0000
  H   H3        1.0  0.31961  0.16547  0.57403  1.0000
  H   H4        1.0  0.31959  0.33453  0.92598  1.0000
  H   H5        1.0  0.31966  0.66547  0.42597  1.0000
  H   H6        1.0  0.31965  0.83453  0.07402  1.0000
  H   H7        1.0  0.68040  0.83453  0.42597  1.0000
  H   H8        1.0  0.68040  0.66547  0.07403  1.0000
  H   H9        1.0  0.67285  0.55299  0.58256  1.0000
  H   H10       1.0  0.67284  0.94701  0.91743  1.0000
  H   H11       1.0  0.32716  0.94701  0.58256  1.0000
  H   H12       1.0  0.32714  0.55299  0.91744  1.0000
  H   H13       1.0  0.32715  0.44701  0.41743  1.0000
  H   H14       1.0  0.32713  0.05299  0.08257  1.0000
  H   H15       1.0  0.67283  0.05299  0.41744  1.0000
  H   H16       1.0  0.67286  0.44701  0.08256  1.0000
  C   C1        1.0  0.59579  0.37860  0.65223  1.0000
  C   C2        1.0  0.59578  0.12139  0.84776  1.0000
  C   C3        1.0  0.40417  0.12139  0.65223  1.0000
  C   C4        1.0  0.40415  0.37862  0.84777  1.0000
  C   C5        1.0  0.40422  0.62139  0.34776  1.0000
  C   C6        1.0  0.40421  0.87861  0.15224  1.0000
  C   C7        1.0  0.59585  0.87861  0.34777  1.0000
  C   C8        1.0  0.59585  0.62139  0.15223  1.0000
  C   C9        1.0  0.59346  0.50047  0.65609  1.0000
  C   C10       1.0  0.59348  0.99953  0.84391  1.0000
  C   C11       1.0  0.40651  0.99952  0.65609  1.0000
  C   C12       1.0  0.40651  0.50047  0.84391  1.0000
  C   C13       1.0  0.40652  0.49953  0.34391  1.0000
  C   C14       1.0  0.40652  0.00047  0.15609  1.0000
  C   C15       1.0  0.59348  0.00047  0.34392  1.0000
  C   C16       1.0  0.59351  0.49953  0.15608  1.0000
  C   C17       1.0  0.49996  0.31479  0.75000  1.0000
  C   C18       1.0  0.49997  0.18521  0.75000  1.0000
  C   C19       1.0  0.50005  0.68521  0.24999  1.0000
  C   C20       1.0  0.50005  0.81479  0.25000  1.0000
  N   N1        1.0  0.49999  0.56124  0.75000  1.0000
  N   N2        1.0  0.50000  0.93876  0.75000  1.0000
  N   N3        1.0  0.50001  0.43876  0.24999  1.0000
  N   N4        1.0  0.50000  0.06124  0.25001  1.0000
  Cl  Cl1       1.0  0.00001  0.75000  0.60144  1.0000
  Cl  Cl2       1.0  0.00000  0.75000  0.89855  1.0000
  Cl  Cl3       1.0  0.99999  0.25000  0.39856  1.0000
  Cl  Cl4       1.0  0.99999  0.25000  0.10145  1.0000
