data_image0
_chemical_formula_structural       Zn2H44C56N20O8
_chemical_formula_sum              "Zn2 H44 C56 N20 O8"
_cell_length_a       7.09446
_cell_length_b       12.875
_cell_length_c       16.1103
_cell_angle_alpha    77.4977
_cell_angle_beta     77.3194
_cell_angle_gamma    74.039

_space_group_name_H-M_alt    "P 1"
_space_group_IT_number       1

loop_
  _space_group_symop_operation_xyz
  'x, y, z'

loop_
  _atom_site_type_symbol
  _atom_site_label
  _atom_site_symmetry_multiplicity
  _atom_site_fract_x
  _atom_site_fract_y
  _atom_site_fract_z
  _atom_site_occupancy
  Zn  Zn1       1.0  0.93380  0.74993  0.24998  1.0000
  Zn  Zn2       1.0  0.06619  0.25006  0.75002  1.0000
  H   H1        1.0  0.83821  0.04877  0.21465  1.0000
  H   H2        1.0  0.10209  0.45117  0.28559  1.0000
  H   H3        1.0  0.16178  0.95123  0.78534  1.0000
  H   H4        1.0  0.89791  0.54883  0.71441  1.0000
  H   H5        1.0  0.75106  0.04012  0.37473  1.0000
  H   H6        1.0  0.16591  0.45983  0.12548  1.0000
  H   H7        1.0  0.24893  0.95988  0.62526  1.0000
  H   H8        1.0  0.83409  0.54016  0.87451  1.0000
  H   H9        1.0  0.64116  0.20897  0.43995  1.0000
  H   H10       1.0  0.28946  0.29099  0.06027  1.0000
  H   H11       1.0  0.35883  0.79102  0.56005  1.0000
  H   H12       1.0  0.71054  0.70900  0.93972  1.0000
  H   H13       1.0  0.62851  0.39199  0.35021  1.0000
  H   H14       1.0  0.37005  0.10797  0.15000  1.0000
  H   H15       1.0  0.37149  0.60800  0.64980  1.0000
  H   H16       1.0  0.62994  0.89202  0.85000  1.0000
  H   H17       1.0  0.80691  0.55428  0.10580  1.0000
  H   H18       1.0  0.46717  0.94570  0.39449  1.0000
  H   H19       1.0  0.19310  0.44572  0.89421  1.0000
  H   H20       1.0  0.53283  0.05429  0.60551  1.0000
  H   H21       1.0  0.74015  0.53613  0.21992  1.0000
  H   H22       1.0  0.49616  0.96376  0.28037  1.0000
  H   H23       1.0  0.25986  0.46387  0.78009  1.0000
  H   H24       1.0  0.50384  0.03624  0.71963  1.0000
  H   H25       1.0  0.51372  0.58146  0.01659  1.0000
  H   H26       1.0  0.11199  0.91835  0.48366  1.0000
  H   H27       1.0  0.48629  0.41854  0.98342  1.0000
  H   H28       1.0  0.88801  0.08166  0.51633  1.0000
  H   H29       1.0  0.12123  0.69839  0.05536  1.0000
  H   H30       1.0  0.87568  0.80108  0.44482  1.0000
  H   H31       1.0  0.87878  0.30161  0.94464  1.0000
  H   H32       1.0  0.12430  0.19893  0.55518  1.0000
  H   H33       1.0  0.37965  0.61259  0.28084  1.0000
  H   H34       1.0  0.27312  0.88727  0.21941  1.0000
  H   H35       1.0  0.62035  0.38741  0.71917  1.0000
  H   H36       1.0  0.72687  0.11272  0.78058  1.0000
  H   H37       1.0  0.30078  0.68201  0.44237  1.0000
  H   H38       1.0  0.42735  0.81741  0.05719  1.0000
  H   H39       1.0  0.69921  0.31800  0.55764  1.0000
  H   H40       1.0  0.57267  0.18261  0.94281  1.0000
  H   H41       1.0  0.86757  0.45085  0.45198  1.0000
  H   H42       1.0  0.76950  0.05010  0.04813  1.0000
  H   H43       1.0  0.13242  0.54915  0.54802  1.0000
  H   H44       1.0  0.23052  0.94992  0.95187  1.0000
  C   C1        1.0  0.78681  0.22660  0.19272  1.0000
  C   C2        1.0  0.20658  0.27337  0.30749  1.0000
  C   C3        1.0  0.21318  0.77341  0.80728  1.0000
  C   C4        1.0  0.79342  0.72662  0.69250  1.0000
  C   C5        1.0  0.79653  0.12260  0.24376  1.0000
  C   C6        1.0  0.16325  0.37735  0.25645  1.0000
  C   C7        1.0  0.20346  0.87740  0.75624  1.0000
  C   C8        1.0  0.83676  0.62264  0.74355  1.0000
  C   C9        1.0  0.74593  0.11903  0.33252  1.0000
  C   C10       1.0  0.19751  0.38094  0.16770  1.0000
  C   C11       1.0  0.25406  0.88097  0.66748  1.0000
  C   C12       1.0  0.80250  0.61905  0.83229  1.0000
  C   C13       1.0  0.68507  0.21529  0.37014  1.0000
  C   C14       1.0  0.27027  0.28467  0.13008  1.0000
  C   C15       1.0  0.31492  0.78470  0.62986  1.0000
  C   C16       1.0  0.72973  0.71533  0.86991  1.0000
  C   C17       1.0  0.67499  0.31861  0.32050  1.0000
  C   C18       1.0  0.31393  0.18134  0.17972  1.0000
  C   C19       1.0  0.32500  0.68139  0.67950  1.0000
  C   C20       1.0  0.68607  0.81865  0.82028  1.0000
  C   C21       1.0  0.72845  0.32198  0.23124  1.0000
  C   C22       1.0  0.28187  0.17798  0.26898  1.0000
  C   C23       1.0  0.27155  0.67802  0.76876  1.0000
  C   C24       1.0  0.71813  0.82202  0.73101  1.0000
  C   C25       1.0  0.70718  0.52097  0.16081  1.0000
  C   C26       1.0  0.38906  0.97897  0.33946  1.0000
  C   C27       1.0  0.29283  0.47903  0.83920  1.0000
  C   C28       1.0  0.61094  0.02102  0.66053  1.0000
  C   C29       1.0  0.42572  0.60492  0.07647  1.0000
  C   C30       1.0  0.10741  0.89487  0.42375  1.0000
  C   C31       1.0  0.57428  0.39508  0.92354  1.0000
  C   C32       1.0  0.89258  0.10513  0.57624  1.0000
  C   C33       1.0  0.23247  0.66245  0.09648  1.0000
  C   C34       1.0  0.99186  0.83714  0.40370  1.0000
  C   C35       1.0  0.76754  0.33754  0.90352  1.0000
  C   C36       1.0  0.00813  0.16286  0.59630  1.0000
  C   C37       1.0  0.35917  0.62028  0.21479  1.0000
  C   C38       1.0  0.19432  0.87955  0.28544  1.0000
  C   C39       1.0  0.64084  0.37972  0.78521  1.0000
  C   C40       1.0  0.80567  0.12044  0.71456  1.0000
  C   C41       1.0  0.68833  0.65721  0.37672  1.0000
  C   C42       1.0  0.72333  0.84301  0.12309  1.0000
  C   C43       1.0  0.31166  0.34279  0.62327  1.0000
  C   C44       1.0  0.27668  0.15700  0.87691  1.0000
  C   C45       1.0  0.59363  0.57493  0.44034  1.0000
  C   C46       1.0  0.60968  0.92521  0.05949  1.0000
  C   C47       1.0  0.40636  0.42506  0.55966  1.0000
  C   C48       1.0  0.39034  0.07480  0.94051  1.0000
  C   C49       1.0  0.38684  0.60169  0.46764  1.0000
  C   C50       1.0  0.45747  0.89795  0.03211  1.0000
  C   C51       1.0  0.61315  0.39831  0.53237  1.0000
  C   C52       1.0  0.54255  0.10206  0.96789  1.0000
  C   C53       1.0  0.70693  0.47239  0.47315  1.0000
  C   C54       1.0  0.65197  0.02811  0.02693  1.0000
  C   C55       1.0  0.29306  0.52761  0.52685  1.0000
  C   C56       1.0  0.34805  0.97190  0.97307  1.0000
  N   N1        1.0  0.82909  0.25776  0.10431  1.0000
  N   N2        1.0  0.19186  0.24220  0.39590  1.0000
  N   N3        1.0  0.17091  0.74225  0.89569  1.0000
  N   N4        1.0  0.80814  0.75779  0.60409  1.0000
  N   N5        1.0  0.80267  0.36371  0.08704  1.0000
  N   N6        1.0  0.25402  0.13626  0.41318  1.0000
  N   N7        1.0  0.19734  0.63630  0.91296  1.0000
  N   N8        1.0  0.74598  0.86373  0.58682  1.0000
  N   N9        1.0  0.74185  0.40497  0.16259  1.0000
  N   N10       1.0  0.30973  0.09500  0.33762  1.0000
  N   N11       1.0  0.25815  0.59504  0.83741  1.0000
  N   N12       1.0  0.69027  0.90499  0.66237  1.0000
  N   N13       1.0  0.50329  0.57881  0.15196  1.0000
  N   N14       1.0  0.23410  0.92113  0.34828  1.0000
  N   N15       1.0  0.49671  0.42120  0.84805  1.0000
  N   N16       1.0  0.76589  0.07887  0.65172  1.0000
  N   N17       1.0  0.19342  0.67151  0.18281  1.0000
  N   N18       1.0  0.04809  0.82814  0.31737  1.0000
  N   N19       1.0  0.80658  0.32849  0.81719  1.0000
  N   N20       1.0  0.95190  0.17186  0.68263  1.0000
  O   O1        1.0  0.60977  0.75760  0.37368  1.0000
  O   O2        1.0  0.74249  0.74259  0.12603  1.0000
  O   O3        1.0  0.39023  0.24240  0.62632  1.0000
  O   O4        1.0  0.25752  0.25742  0.87397  1.0000
  O   O5        1.0  0.85036  0.61895  0.32563  1.0000
  O   O6        1.0  0.79567  0.88129  0.17436  1.0000
  O   O7        1.0  0.14963  0.38104  0.67437  1.0000
  O   O8        1.0  0.20435  0.11872  0.82564  1.0000
