data_image0
_chemical_formula_structural       Cd2H44C56N20O8
_chemical_formula_sum              "Cd2 H44 C56 N20 O8"
_cell_length_a       6.94632
_cell_length_b       12.7739
_cell_length_c       15.8563
_cell_angle_alpha    98.4849
_cell_angle_beta     100.181
_cell_angle_gamma    103.058

_space_group_name_H-M_alt    "P 1"
_space_group_IT_number       1

loop_
  _space_group_symop_operation_xyz
  'x, y, z'

loop_
  _atom_site_type_symbol
  _atom_site_label
  _atom_site_symmetry_multiplicity
  _atom_site_fract_x
  _atom_site_fract_y
  _atom_site_fract_z
  _atom_site_occupancy
  Cd  Cd1       1.0  0.22250  0.71221  0.25030  1.0000
  Cd  Cd2       1.0  0.77750  0.28779  0.74970  1.0000
  H   H1        1.0  0.75291  0.82693  0.41793  1.0000
  H   H2        1.0  0.24707  0.17305  0.58207  1.0000
  H   H3        1.0  0.69252  0.39027  0.08123  1.0000
  H   H4        1.0  0.30747  0.60974  0.91876  1.0000
  H   H5        1.0  0.64768  0.69997  0.01765  1.0000
  H   H6        1.0  0.35232  0.30004  0.98234  1.0000
  H   H7        1.0  0.57135  0.55586  0.22212  1.0000
  H   H8        1.0  0.42867  0.44414  0.77789  1.0000
  H   H9        1.0  0.39921  0.67462  0.45284  1.0000
  H   H10       1.0  0.60078  0.32537  0.54716  1.0000
  H   H11       1.0  0.70967  0.57062  0.49483  1.0000
  H   H12       1.0  0.29032  0.42937  0.50517  1.0000
  H   H13       1.0  0.87033  0.48981  0.28169  1.0000
  H   H14       1.0  0.12968  0.51019  0.71832  1.0000
  H   H15       1.0  0.97938  0.53955  0.39651  1.0000
  H   H16       1.0  0.02064  0.46045  0.60349  1.0000
  H   H17       1.0  0.58076  0.31480  0.18243  1.0000
  H   H18       1.0  0.41926  0.68521  0.81758  1.0000
  H   H19       1.0  0.40984  0.11664  0.12665  1.0000
  H   H20       1.0  0.59018  0.88337  0.87335  1.0000
  H   H21       1.0  0.41364  0.98163  0.22294  1.0000
  H   H22       1.0  0.58636  0.01838  0.77706  1.0000
  H   H23       1.0  0.58638  0.03692  0.37918  1.0000
  H   H24       1.0  0.41362  0.96308  0.62082  1.0000
  H   H25       1.0  0.21698  0.79379  0.05947  1.0000
  H   H26       1.0  0.78302  0.20621  0.94054  1.0000
  H   H27       1.0  0.55218  0.92138  0.01491  1.0000
  H   H28       1.0  0.44782  0.07862  0.98509  1.0000
  H   H29       1.0  0.74377  0.81460  0.24903  1.0000
  H   H30       1.0  0.25623  0.18540  0.75097  1.0000
  H   H31       1.0  0.08825  0.07538  0.32541  1.0000
  H   H32       1.0  0.91175  0.92462  0.67459  1.0000
  H   H33       1.0  0.23589  0.26153  0.41393  1.0000
  H   H34       1.0  0.76411  0.73846  0.58607  1.0000
  H   H35       1.0  0.25875  0.42686  0.34749  1.0000
  H   H36       1.0  0.74126  0.57313  0.65252  1.0000
  H   H37       1.0  0.12399  0.41079  0.18748  1.0000
  H   H38       1.0  0.87601  0.58921  0.81252  1.0000
  H   H39       1.0  0.01306  0.92177  0.18933  1.0000
  H   H40       1.0  0.98694  0.07822  0.81067  1.0000
  H   H41       1.0  0.95224  0.90021  0.07301  1.0000
  H   H42       1.0  0.04775  0.09979  0.92698  1.0000
  H   H43       1.0  0.64758  0.95680  0.52281  1.0000
  H   H44       1.0  0.35240  0.04319  0.47719  1.0000
  C   C1        1.0  0.86049  0.90293  0.45401  1.0000
  C   C2        1.0  0.13949  0.09706  0.54599  1.0000
  C   C3        1.0  0.05891  0.92681  0.44064  1.0000
  C   C4        1.0  0.94107  0.07318  0.55936  1.0000
  C   C5        1.0  0.12031  0.84907  0.37652  1.0000
  C   C6        1.0  0.87967  0.15093  0.62348  1.0000
  C   C7        1.0  0.88388  0.60744  0.12046  1.0000
  C   C8        1.0  0.11612  0.39256  0.87954  1.0000
  C   C9        1.0  0.68823  0.55105  0.05671  1.0000
  C   C10       1.0  0.31177  0.44896  0.94329  1.0000
  C   C11       1.0  0.60577  0.43789  0.04627  1.0000
  C   C12       1.0  0.39424  0.56212  0.95372  1.0000
  C   C13       1.0  0.58153  0.61243  0.00943  1.0000
  C   C14       1.0  0.41847  0.38758  0.99056  1.0000
  C   C15       1.0  0.56166  0.57401  0.29005  1.0000
  C   C16       1.0  0.43835  0.42599  0.70996  1.0000
  C   C17       1.0  0.47906  0.63311  0.41152  1.0000
  C   C18       1.0  0.52093  0.36688  0.58848  1.0000
  C   C19       1.0  0.63107  0.58301  0.43330  1.0000
  C   C20       1.0  0.36893  0.41699  0.56670  1.0000
  C   C21       1.0  0.84283  0.49219  0.34800  1.0000
  C   C22       1.0  0.15718  0.50781  0.65201  1.0000
  C   C23       1.0  0.68379  0.28567  0.31323  1.0000
  C   C24       1.0  0.31623  0.71433  0.68678  1.0000
  C   C25       1.0  0.58524  0.25540  0.22489  1.0000
  C   C26       1.0  0.41477  0.74460  0.77511  1.0000
  C   C27       1.0  0.49093  0.14475  0.19465  1.0000
  C   C28       1.0  0.50908  0.85526  0.80535  1.0000
  C   C29       1.0  0.49250  0.06715  0.24973  1.0000
  C   C30       1.0  0.50750  0.93286  0.75027  1.0000
  C   C31       1.0  0.58881  0.09720  0.33726  1.0000
  C   C32       1.0  0.41119  0.90280  0.66274  1.0000
  C   C33       1.0  0.68585  0.20863  0.36888  1.0000
  C   C34       1.0  0.31416  0.79137  0.63112  1.0000
  C   C35       1.0  0.37493  0.81906  0.09303  1.0000
  C   C36       1.0  0.62506  0.18095  0.90697  1.0000
  C   C37       1.0  0.53843  0.88068  0.06957  1.0000
  C   C38       1.0  0.46156  0.11933  0.93043  1.0000
  C   C39       1.0  0.64154  0.82755  0.19331  1.0000
  C   C40       1.0  0.35845  0.17245  0.80669  1.0000
  C   C41       1.0  0.02869  0.13920  0.20531  1.0000
  C   C42       1.0  0.97130  0.86080  0.79469  1.0000
  C   C43       1.0  0.09703  0.14683  0.29497  1.0000
  C   C44       1.0  0.90296  0.85316  0.70503  1.0000
  C   C45       1.0  0.18027  0.25202  0.34385  1.0000
  C   C46       1.0  0.81973  0.74797  0.65615  1.0000
  C   C47       1.0  0.19235  0.34621  0.30573  1.0000
  C   C48       1.0  0.80765  0.65378  0.69427  1.0000
  C   C49       1.0  0.12060  0.33875  0.21705  1.0000
  C   C50       1.0  0.87940  0.66125  0.78296  1.0000
  C   C51       1.0  0.03830  0.23270  0.16666  1.0000
  C   C52       1.0  0.96170  0.76730  0.83334  1.0000
  C   C53       1.0  0.91457  0.93673  0.13292  1.0000
  C   C54       1.0  0.08543  0.06327  0.86707  1.0000
  C   C55       1.0  0.80201  0.97531  0.51282  1.0000
  C   C56       1.0  0.19797  0.02468  0.48718  1.0000
  N   N1        1.0  0.43724  0.62663  0.32190  1.0000
  N   N2        1.0  0.56277  0.37337  0.67811  1.0000
  N   N3        1.0  0.68135  0.54618  0.35580  1.0000
  N   N4        1.0  0.31866  0.45381  0.64421  1.0000
  N   N5        1.0  0.79389  0.38302  0.36638  1.0000
  N   N6        1.0  0.20612  0.61698  0.63362  1.0000
  N   N7        1.0  0.85819  0.36689  0.44929  1.0000
  N   N8        1.0  0.14182  0.63311  0.55071  1.0000
  N   N9        1.0  0.79452  0.26358  0.45122  1.0000
  N   N10       1.0  0.20550  0.73642  0.54878  1.0000
  N   N11       1.0  0.44144  0.78680  0.17018  1.0000
  N   N12       1.0  0.55856  0.21321  0.82982  1.0000
  N   N13       1.0  0.70559  0.88549  0.13370  1.0000
  N   N14       1.0  0.29441  0.11451  0.86630  1.0000
  N   N15       1.0  0.95026  0.05317  0.13600  1.0000
  N   N16       1.0  0.04973  0.94683  0.86400  1.0000
  N   N17       1.0  0.91137  0.09129  0.05995  1.0000
  N   N18       1.0  0.08863  0.90871  0.94005  1.0000
  N   N19       1.0  0.96286  0.19791  0.07785  1.0000
  N   N20       1.0  0.03715  0.80209  0.92216  1.0000
  O   O1        1.0  0.30235  0.87130  0.36626  1.0000
  O   O2        1.0  0.69763  0.12870  0.63373  1.0000
  O   O3        1.0  0.98596  0.76370  0.33163  1.0000
  O   O4        1.0  0.01403  0.23629  0.66837  1.0000
  O   O5        1.0  0.95954  0.70882  0.12443  1.0000
  O   O6        1.0  0.04047  0.29119  0.87557  1.0000
  O   O7        1.0  0.96482  0.55212  0.17125  1.0000
  O   O8        1.0  0.03519  0.44788  0.82874  1.0000
