data_image0
_chemical_formula_structural       Sn4H44C22O10
_chemical_formula_sum              "Sn4 H44 C22 O10"
_cell_length_a       9.09604
_cell_length_b       9.43705
_cell_length_c       9.9404
_cell_angle_alpha    107.091
_cell_angle_beta     100.633
_cell_angle_gamma    92.6205

_space_group_name_H-M_alt    "P 1"
_space_group_IT_number       1

loop_
  _space_group_symop_operation_xyz
  'x, y, z'

loop_
  _atom_site_type_symbol
  _atom_site_label
  _atom_site_symmetry_multiplicity
  _atom_site_fract_x
  _atom_site_fract_y
  _atom_site_fract_z
  _atom_site_occupancy
  Sn  Sn1       1.0  0.93833  0.24144  0.80292  1.0000
  Sn  Sn2       1.0  0.06167  0.75856  0.19709  1.0000
  Sn  Sn3       1.0  0.13505  0.12919  0.50649  1.0000
  Sn  Sn4       1.0  0.86495  0.87081  0.49351  1.0000
  H   H1        1.0  0.24212  0.56131  0.64111  1.0000
  H   H2        1.0  0.75788  0.43869  0.35889  1.0000
  H   H3        1.0  0.37759  0.46480  0.71685  1.0000
  H   H4        1.0  0.62242  0.53520  0.28315  1.0000
  H   H5        1.0  0.30414  0.77744  0.87172  1.0000
  H   H6        1.0  0.69586  0.22255  0.12827  1.0000
  H   H7        1.0  0.56830  0.67575  0.72615  1.0000
  H   H8        1.0  0.43170  0.32425  0.27384  1.0000
  H   H9        1.0  0.41881  0.76211  0.65565  1.0000
  H   H10       1.0  0.58119  0.23789  0.34435  1.0000
  H   H11       1.0  0.49565  0.99470  0.86295  1.0000
  H   H12       1.0  0.50435  0.00530  0.13705  1.0000
  H   H13       1.0  0.63691  0.91038  0.94590  1.0000
  H   H14       1.0  0.36309  0.08962  0.05409  1.0000
  H   H15       1.0  0.40394  0.63613  0.03730  1.0000
  H   H16       1.0  0.59606  0.36388  0.96271  1.0000
  H   H17       1.0  0.53703  0.78420  0.05282  1.0000
  H   H18       1.0  0.46297  0.21581  0.94717  1.0000
  H   H19       1.0  0.56149  0.60013  0.95374  1.0000
  H   H20       1.0  0.43851  0.39988  0.04627  1.0000
  H   H21       1.0  0.82099  0.43303  0.67067  1.0000
  H   H22       1.0  0.17901  0.56697  0.32934  1.0000
  H   H23       1.0  0.75746  0.46102  0.83617  1.0000
  H   H24       1.0  0.24254  0.53898  0.16384  1.0000
  H   H25       1.0  0.67162  0.30669  0.68046  1.0000
  H   H26       1.0  0.32839  0.69331  0.31955  1.0000
  H   H27       1.0  0.07681  0.08777  0.96834  1.0000
  H   H28       1.0  0.92320  0.91224  0.03166  1.0000
  H   H29       1.0  0.05829  0.27273  0.07821  1.0000
  H   H30       1.0  0.94172  0.72727  0.92179  1.0000
  H   H31       1.0  0.20293  0.24364  0.97462  1.0000
  H   H32       1.0  0.79707  0.75636  0.02538  1.0000
  H   H33       1.0  0.37275  0.99459  0.58915  1.0000
  H   H34       1.0  0.62726  0.00542  0.41084  1.0000
  H   H35       1.0  0.41067  0.19037  0.68285  1.0000
  H   H36       1.0  0.58933  0.80963  0.31715  1.0000
  H   H37       1.0  0.28820  0.07632  0.74056  1.0000
  H   H38       1.0  0.71180  0.92369  0.25944  1.0000
  H   H39       1.0  0.94075  0.32368  0.45972  1.0000
  H   H40       1.0  0.05925  0.67631  0.54028  1.0000
  H   H41       1.0  0.11022  0.36317  0.40269  1.0000
  H   H42       1.0  0.88978  0.63683  0.59731  1.0000
  H   H43       1.0  0.97565  0.21103  0.29021  1.0000
  H   H44       1.0  0.02434  0.78896  0.70979  1.0000
  C   C1        1.0  0.17877  0.48495  0.80406  1.0000
  C   C2        1.0  0.82123  0.51505  0.19594  1.0000
  C   C3        1.0  0.29936  0.54949  0.74458  1.0000
  C   C4        1.0  0.70065  0.45050  0.25542  1.0000
  C   C5        1.0  0.38638  0.69777  0.84141  1.0000
  C   C6        1.0  0.61362  0.30223  0.15859  1.0000
  C   C7        1.0  0.48734  0.75651  0.75733  1.0000
  C   C8        1.0  0.51266  0.24349  0.24267  1.0000
  C   C9        1.0  0.57312  0.90886  0.84013  1.0000
  C   C10       1.0  0.42688  0.09114  0.15986  1.0000
  C   C11       1.0  0.68615  0.96335  0.76691  1.0000
  C   C12       1.0  0.31385  0.03665  0.23308  1.0000
  C   C13       1.0  0.47744  0.67863  0.97902  1.0000
  C   C14       1.0  0.52256  0.32138  0.02098  1.0000
  C   C15       1.0  0.77589  0.37796  0.73947  1.0000
  C   C16       1.0  0.22412  0.62205  0.26054  1.0000
  C   C17       1.0  0.08854  0.20682  0.97872  1.0000
  C   C18       1.0  0.91146  0.79318  0.02128  1.0000
  C   C19       1.0  0.32599  0.09360  0.64765  1.0000
  C   C20       1.0  0.67401  0.90641  0.35235  1.0000
  C   C21       1.0  0.02673  0.27533  0.40174  1.0000
  C   C22       1.0  0.97327  0.72467  0.59826  1.0000
  O   O1        1.0  0.12431  0.34708  0.73027  1.0000
  O   O2        1.0  0.87570  0.65291  0.26973  1.0000
  O   O3        1.0  0.13283  0.55667  0.91179  1.0000
  O   O4        1.0  0.86717  0.44332  0.08820  1.0000
  O   O5        1.0  0.69969  0.88048  0.64481  1.0000
  O   O6        1.0  0.30030  0.11952  0.35518  1.0000
  O   O7        1.0  0.76036  0.09042  0.83649  1.0000
  O   O8        1.0  0.23965  0.90957  0.16351  1.0000
  O   O9        1.0  0.96254  0.08406  0.61664  1.0000
  O   O10       1.0  0.03746  0.91594  0.38336  1.0000
