data_image0
_chemical_formula_structural       Cu2P2H40C48I2N2
_chemical_formula_sum              "Cu2 P2 H40 C48 I2 N2"
_cell_length_a       9.409
_cell_length_b       10.0216
_cell_length_c       12.4163
_cell_angle_alpha    105.363
_cell_angle_beta     108.638
_cell_angle_gamma    97.4669

_space_group_name_H-M_alt    "P 1"
_space_group_IT_number       1

loop_
  _space_group_symop_operation_xyz
  'x, y, z'

loop_
  _atom_site_type_symbol
  _atom_site_label
  _atom_site_symmetry_multiplicity
  _atom_site_fract_x
  _atom_site_fract_y
  _atom_site_fract_z
  _atom_site_occupancy
  Cu  Cu1       1.0  0.36115  0.46918  0.40669  1.0000
  Cu  Cu2       1.0  0.63885  0.53082  0.59332  1.0000
  P   P1        1.0  0.24524  0.28008  0.24433  1.0000
  P   P2        1.0  0.75476  0.71992  0.75567  1.0000
  H   H1        1.0  0.33096  0.70514  0.31002  1.0000
  H   H2        1.0  0.66904  0.29486  0.68998  1.0000
  H   H3        1.0  0.20867  0.91114  0.32851  1.0000
  H   H4        1.0  0.79133  0.08886  0.67149  1.0000
  H   H5        1.0  0.01160  0.75696  0.55657  1.0000
  H   H6        1.0  0.98839  0.24304  0.44343  1.0000
  H   H7        1.0  0.14405  0.56000  0.52934  1.0000
  H   H8        1.0  0.85594  0.43999  0.47066  1.0000
  H   H9        1.0  0.07050  0.05503  0.41912  1.0000
  H   H10       1.0  0.92950  0.94497  0.58088  1.0000
  H   H11       1.0  0.01334  0.43671  0.25120  1.0000
  H   H12       1.0  0.98666  0.56329  0.74880  1.0000
  H   H13       1.0  0.73825  0.37349  0.22302  1.0000
  H   H14       1.0  0.26175  0.62651  0.77698  1.0000
  H   H15       1.0  0.60830  0.11994  0.17779  1.0000
  H   H16       1.0  0.39170  0.88006  0.82221  1.0000
  H   H17       1.0  0.75801  0.93308  0.16252  1.0000
  H   H18       1.0  0.24199  0.06692  0.83748  1.0000
  H   H19       1.0  0.03171  0.99555  0.18726  1.0000
  H   H20       1.0  0.96829  0.00445  0.81274  1.0000
  H   H21       1.0  0.47588  0.20706  0.42267  1.0000
  H   H22       1.0  0.52412  0.79295  0.57733  1.0000
  H   H23       1.0  0.59438  0.99743  0.41563  1.0000
  H   H24       1.0  0.40563  0.00258  0.58437  1.0000
  H   H25       1.0  0.51266  0.79710  0.22557  1.0000
  H   H26       1.0  0.48734  0.20290  0.77443  1.0000
  H   H27       1.0  0.30820  0.80363  0.04013  1.0000
  H   H28       1.0  0.69180  0.19637  0.95987  1.0000
  H   H29       1.0  0.19005  0.01051  0.04735  1.0000
  H   H30       1.0  0.80995  0.98949  0.95265  1.0000
  H   H31       1.0  0.47961  0.31841  0.14698  1.0000
  H   H32       1.0  0.52039  0.68159  0.85302  1.0000
  H   H33       1.0  0.48389  0.35995  0.95998  1.0000
  H   H34       1.0  0.51611  0.64005  0.04002  1.0000
  H   H35       1.0  0.24343  0.37552  0.80843  1.0000
  H   H36       1.0  0.75656  0.62448  0.19157  1.0000
  H   H37       1.0  0.99904  0.35352  0.84885  1.0000
  H   H38       1.0  0.00096  0.64648  0.15115  1.0000
  H   H39       1.0  0.99312  0.30686  0.03280  1.0000
  H   H40       1.0  0.00688  0.69314  0.96720  1.0000
  C   C1        1.0  0.25785  0.72041  0.36270  1.0000
  C   C2        1.0  0.74215  0.27959  0.63730  1.0000
  C   C3        1.0  0.18927  0.83492  0.37358  1.0000
  C   C4        1.0  0.81073  0.16508  0.62641  1.0000
  C   C5        1.0  0.10061  0.85549  0.44632  1.0000
  C   C6        1.0  0.89940  0.14452  0.55368  1.0000
  C   C7        1.0  0.08039  0.75094  0.50035  1.0000
  C   C8        1.0  0.91961  0.24907  0.49965  1.0000
  C   C9        1.0  0.15319  0.63969  0.48513  1.0000
  C   C10       1.0  0.84681  0.36031  0.51487  1.0000
  C   C11       1.0  0.04153  0.98268  0.46500  1.0000
  C   C12       1.0  0.95848  0.01732  0.53500  1.0000
  C   C13       1.0  0.04221  0.22066  0.22044  1.0000
  C   C14       1.0  0.95779  0.77933  0.77956  1.0000
  C   C15       1.0  0.95694  0.32591  0.23013  1.0000
  C   C16       1.0  0.04306  0.67409  0.76987  1.0000
  C   C17       1.0  0.80157  0.28989  0.21370  1.0000
  C   C18       1.0  0.19843  0.71011  0.78630  1.0000
  C   C19       1.0  0.72929  0.14841  0.18942  1.0000
  C   C20       1.0  0.27071  0.85159  0.81058  1.0000
  C   C21       1.0  0.81332  0.04364  0.18137  1.0000
  C   C22       1.0  0.18668  0.95635  0.81863  1.0000
  C   C23       1.0  0.96863  0.07917  0.19596  1.0000
  C   C24       1.0  0.03137  0.92083  0.80404  1.0000
  C   C25       1.0  0.32439  0.12195  0.23617  1.0000
  C   C26       1.0  0.67561  0.87805  0.76383  1.0000
  C   C27       1.0  0.43948  0.11788  0.33940  1.0000
  C   C28       1.0  0.56052  0.88212  0.66060  1.0000
  C   C29       1.0  0.50590  0.00067  0.33511  1.0000
  C   C30       1.0  0.49410  0.99933  0.66489  1.0000
  C   C31       1.0  0.45928  0.88762  0.22782  1.0000
  C   C32       1.0  0.54073  0.11238  0.77218  1.0000
  C   C33       1.0  0.34469  0.89095  0.12459  1.0000
  C   C34       1.0  0.65531  0.10905  0.87541  1.0000
  C   C35       1.0  0.27740  0.00748  0.12861  1.0000
  C   C36       1.0  0.72260  0.99252  0.87139  1.0000
  C   C37       1.0  0.23586  0.30788  0.10246  1.0000
  C   C38       1.0  0.76414  0.69212  0.89754  1.0000
  C   C39       1.0  0.37395  0.32457  0.08088  1.0000
  C   C40       1.0  0.62604  0.67543  0.91912  1.0000
  C   C41       1.0  0.37616  0.34822  0.97575  1.0000
  C   C42       1.0  0.62384  0.65178  0.02425  1.0000
  C   C43       1.0  0.24138  0.35836  0.89123  1.0000
  C   C44       1.0  0.75862  0.64164  0.10877  1.0000
  C   C45       1.0  0.10483  0.34565  0.91373  1.0000
  C   C46       1.0  0.89517  0.65435  0.08627  1.0000
  C   C47       1.0  0.10151  0.31962  0.01812  1.0000
  C   C48       1.0  0.89849  0.68039  0.98188  1.0000
  I   I1        1.0  0.37754  0.39819  0.60251  1.0000
  I   I2        1.0  0.62246  0.60181  0.39750  1.0000
  N   N1        1.0  0.24392  0.62452  0.41945  1.0000
  N   N2        1.0  0.75608  0.37548  0.58055  1.0000
