data_image0
_chemical_formula_structural       Zn4Ni4H48C56N32
_chemical_formula_sum              "Zn4 Ni4 H48 C56 N32"
_cell_length_a       7.52112
_cell_length_b       9.60603
_cell_length_c       24.796
_cell_angle_alpha    85.7258
_cell_angle_beta     81.2717
_cell_angle_gamma    66.9244

_space_group_name_H-M_alt    "P 1"
_space_group_IT_number       1

loop_
  _space_group_symop_operation_xyz
  'x, y, z'

loop_
  _atom_site_type_symbol
  _atom_site_label
  _atom_site_symmetry_multiplicity
  _atom_site_fract_x
  _atom_site_fract_y
  _atom_site_fract_z
  _atom_site_occupancy
  Zn  Zn1       1.0  0.00267  0.25001  0.74997  1.0000
  Zn  Zn2       1.0  0.99733  0.75000  0.25003  1.0000
  Zn  Zn3       1.0  1.00000  1.00000  0.00000  1.0000
  Zn  Zn4       1.0  0.00000  0.50000  0.50000  1.0000
  Ni  Ni1       1.0  0.50059  0.12782  0.87540  1.0000
  Ni  Ni2       1.0  0.50384  0.37225  0.62453  1.0000
  Ni  Ni3       1.0  0.49941  0.87219  0.12460  1.0000
  Ni  Ni4       1.0  0.49616  0.62775  0.37547  1.0000
  H   H1        1.0  0.93396  0.26893  0.87717  1.0000
  H   H2        1.0  0.08017  0.23097  0.62278  1.0000
  H   H3        1.0  0.06604  0.73107  0.12283  1.0000
  H   H4        1.0  0.91983  0.76903  0.37722  1.0000
  H   H5        1.0  0.16837  0.65189  0.99397  1.0000
  H   H6        1.0  0.81390  0.84776  0.50593  1.0000
  H   H7        1.0  0.83164  0.34811  0.00603  1.0000
  H   H8        1.0  0.18611  0.15224  0.49407  1.0000
  H   H9        1.0  0.82264  0.59777  0.75399  1.0000
  H   H10       1.0  0.17416  0.90227  0.74601  1.0000
  H   H11       1.0  0.17736  0.40224  0.24601  1.0000
  H   H12       1.0  0.82584  0.09773  0.25399  1.0000
  H   H13       1.0  0.68441  0.80116  0.82536  1.0000
  H   H14       1.0  0.31021  0.69882  0.67467  1.0000
  H   H15       1.0  0.31559  0.19884  0.17465  1.0000
  H   H16       1.0  0.68979  0.30118  0.32533  1.0000
  H   H17       1.0  0.30472  0.45139  0.92155  1.0000
  H   H18       1.0  0.67754  0.04846  0.57829  1.0000
  H   H19       1.0  0.69529  0.54861  0.07845  1.0000
  H   H20       1.0  0.32247  0.95154  0.42171  1.0000
  H   H21       1.0  0.07368  0.98553  0.87258  1.0000
  H   H22       1.0  0.93250  0.51439  0.62741  1.0000
  H   H23       1.0  0.92631  0.01447  0.12742  1.0000
  H   H24       1.0  0.06750  0.48562  0.37259  1.0000
  H   H25       1.0  0.31723  0.57071  0.77052  1.0000
  H   H26       1.0  0.65841  0.92960  0.72936  1.0000
  H   H27       1.0  0.68277  0.42930  0.22948  1.0000
  H   H28       1.0  0.34159  0.07040  0.27064  1.0000
  H   H29       1.0  0.27137  0.42767  0.81343  1.0000
  H   H30       1.0  0.51251  0.07242  0.68632  1.0000
  H   H31       1.0  0.72862  0.57233  0.18657  1.0000
  H   H32       1.0  0.48748  0.92758  0.31367  1.0000
  H   H33       1.0  0.49722  0.44527  0.80944  1.0000
  H   H34       1.0  0.75191  0.05489  0.69038  1.0000
  H   H35       1.0  0.50277  0.55473  0.19055  1.0000
  H   H36       1.0  0.24809  0.94511  0.30962  1.0000
  H   H37       1.0  0.69726  0.68932  0.97651  1.0000
  H   H38       1.0  0.36287  0.81033  0.52350  1.0000
  H   H39       1.0  0.30273  0.31068  0.02349  1.0000
  H   H40       1.0  0.63714  0.18967  0.47650  1.0000
  H   H41       1.0  0.50139  0.80351  0.94055  1.0000
  H   H42       1.0  0.24527  0.69625  0.55952  1.0000
  H   H43       1.0  0.49861  0.19648  0.05945  1.0000
  H   H44       1.0  0.75473  0.30375  0.44048  1.0000
  H   H45       1.0  0.71888  0.83591  0.93063  1.0000
  H   H46       1.0  0.48529  0.66389  0.56942  1.0000
  H   H47       1.0  0.28111  0.16409  0.06937  1.0000
  H   H48       1.0  0.51471  0.33611  0.43058  1.0000
  C   C1        1.0  0.87787  0.38852  0.86569  1.0000
  C   C2        1.0  0.13207  0.11136  0.63426  1.0000
  C   C3        1.0  0.12213  0.61148  0.13431  1.0000
  C   C4        1.0  0.86793  0.88864  0.36574  1.0000
  C   C5        1.0  0.70421  0.12552  0.82390  1.0000
  C   C6        1.0  0.65350  0.37480  0.67604  1.0000
  C   C7        1.0  0.29579  0.87449  0.17611  1.0000
  C   C8        1.0  0.34650  0.62520  0.32396  1.0000
  C   C9        1.0  0.64935  0.13236  0.92692  1.0000
  C   C10       1.0  0.70874  0.36764  0.57303  1.0000
  C   C11       1.0  0.35064  0.86764  0.07308  1.0000
  C   C12       1.0  0.29126  0.63236  0.42697  1.0000
  C   C13       1.0  0.35213  0.12352  0.82378  1.0000
  C   C14       1.0  0.29946  0.37644  0.67612  1.0000
  C   C15       1.0  0.64786  0.87649  0.17622  1.0000
  C   C16       1.0  0.70055  0.62356  0.32388  1.0000
  C   C17       1.0  0.29790  0.12761  0.92688  1.0000
  C   C18       1.0  0.35275  0.37216  0.57300  1.0000
  C   C19       1.0  0.70211  0.87239  0.07312  1.0000
  C   C20       1.0  0.64724  0.62784  0.42700  1.0000
  C   C21       1.0  0.17824  0.68080  0.95040  1.0000
  C   C22       1.0  0.80941  0.81897  0.54952  1.0000
  C   C23       1.0  0.82176  0.31919  0.04960  1.0000
  C   C24       1.0  0.19060  0.18103  0.45047  1.0000
  C   C25       1.0  0.81594  0.57055  0.79771  1.0000
  C   C26       1.0  0.18393  0.92944  0.70227  1.0000
  C   C27       1.0  0.18406  0.42945  0.20229  1.0000
  C   C28       1.0  0.81607  0.07056  0.29773  1.0000
  C   C29       1.0  0.74043  0.68158  0.83706  1.0000
  C   C30       1.0  0.25854  0.81838  0.66294  1.0000
  C   C31       1.0  0.25956  0.31842  0.16294  1.0000
  C   C32       1.0  0.74146  0.18162  0.33706  1.0000
  C   C33       1.0  0.25309  0.57140  0.91046  1.0000
  C   C34       1.0  0.73510  0.92849  0.58942  1.0000
  C   C35       1.0  0.74692  0.42859  0.08954  1.0000
  C   C36       1.0  0.26491  0.07151  0.41058  1.0000
  C   C37       1.0  0.12580  0.86552  0.88343  1.0000
  C   C38       1.0  0.87537  0.63438  0.61654  1.0000
  C   C39       1.0  0.87420  0.13448  0.11657  1.0000
  C   C40       1.0  0.12463  0.36562  0.38346  1.0000
  C   C41       1.0  0.26056  0.61935  0.85553  1.0000
  C   C42       1.0  0.73581  0.88062  0.64437  1.0000
  C   C43       1.0  0.73945  0.38065  0.14447  1.0000
  C   C44       1.0  0.26419  0.11937  0.35563  1.0000
  C   C45       1.0  0.34008  0.51044  0.80967  1.0000
  C   C46       1.0  0.66028  0.98969  0.69017  1.0000
  C   C47       1.0  0.65992  0.48957  0.19033  1.0000
  C   C48       1.0  0.33972  0.01030  0.30983  1.0000
  C   C49       1.0  0.73881  0.63590  0.89224  1.0000
  C   C50       1.0  0.26663  0.86400  0.60775  1.0000
  C   C51       1.0  0.26118  0.36409  0.10776  1.0000
  C   C52       1.0  0.73337  0.13600  0.39225  1.0000
  C   C53       1.0  0.66085  0.74661  0.93750  1.0000
  C   C54       1.0  0.34472  0.75316  0.56253  1.0000
  C   C55       1.0  0.33915  0.25338  0.06250  1.0000
  C   C56       1.0  0.65528  0.24684  0.43747  1.0000
  N   N1        1.0  0.88532  0.42255  0.81214  1.0000
  N   N2        1.0  0.11995  0.07742  0.68783  1.0000
  N   N3        1.0  0.11469  0.57745  0.18786  1.0000
  N   N4        1.0  0.88005  0.92258  0.31218  1.0000
  N   N5        1.0  0.11402  0.82938  0.93681  1.0000
  N   N6        1.0  0.88043  0.67044  0.56316  1.0000
  N   N7        1.0  0.88598  0.17062  0.06319  1.0000
  N   N8        1.0  0.11958  0.32956  0.43684  1.0000
  N   N9        1.0  0.16735  0.11890  0.95739  1.0000
  N   N10       1.0  0.24414  0.38073  0.54247  1.0000
  N   N11       1.0  0.83265  0.88110  0.04262  1.0000
  N   N12       1.0  0.75586  0.61928  0.45753  1.0000
  N   N13       1.0  0.24512  0.12941  0.79311  1.0000
  N   N14       1.0  0.16766  0.37049  0.70678  1.0000
  N   N15       1.0  0.75488  0.87060  0.20688  1.0000
  N   N16       1.0  0.83234  0.62951  0.29322  1.0000
  N   N17       1.0  0.75708  0.12560  0.95750  1.0000
  N   N18       1.0  0.84040  0.37430  0.54247  1.0000
  N   N19       1.0  0.24291  0.87440  0.04250  1.0000
  N   N20       1.0  0.15960  0.62570  0.45752  1.0000
  N   N21       1.0  0.83644  0.13073  0.79325  1.0000
  N   N22       1.0  0.76035  0.36951  0.70667  1.0000
  N   N23       1.0  0.16356  0.86928  0.20675  1.0000
  N   N24       1.0  0.23965  0.63048  0.29332  1.0000
  N   N25       1.0  0.19556  0.76828  0.84239  1.0000
  N   N26       1.0  0.80687  0.73172  0.65755  1.0000
  N   N27       1.0  0.80445  0.23172  0.15761  1.0000
  N   N28       1.0  0.19313  0.26828  0.34245  1.0000
  N   N29       1.0  0.80870  0.48744  0.90619  1.0000
  N   N30       1.0  0.20229  0.01242  0.59377  1.0000
  N   N31       1.0  0.19129  0.51255  0.09381  1.0000
  N   N32       1.0  0.79771  0.98758  0.40623  1.0000
