data_image0
_chemical_formula_structural       Cd2H28C30N4O10
_chemical_formula_sum              "Cd2 H28 C30 N4 O10"
_cell_length_a       7.65097
_cell_length_b       8.3326
_cell_length_c       13.5766
_cell_angle_alpha    77.2432
_cell_angle_beta     73.8655
_cell_angle_gamma    63.3304

_space_group_name_H-M_alt    "P 1"
_space_group_IT_number       1

loop_
  _space_group_symop_operation_xyz
  'x, y, z'

loop_
  _atom_site_type_symbol
  _atom_site_label
  _atom_site_symmetry_multiplicity
  _atom_site_fract_x
  _atom_site_fract_y
  _atom_site_fract_z
  _atom_site_occupancy
  Cd  Cd1       1.0  0.23615  0.83755  0.56810  1.0000
  Cd  Cd2       1.0  0.76385  0.16244  0.43190  1.0000
  H   H1        1.0  0.58346  0.84503  0.41482  1.0000
  H   H2        1.0  0.41654  0.15497  0.58518  1.0000
  H   H3        1.0  0.52941  0.68326  0.40579  1.0000
  H   H4        1.0  0.47060  0.31674  0.59421  1.0000
  H   H5        1.0  0.83197  0.50344  0.59494  1.0000
  H   H6        1.0  0.16803  0.49656  0.40507  1.0000
  H   H7        1.0  0.07913  0.46429  0.59759  1.0000
  H   H8        1.0  0.92087  0.53570  0.40241  1.0000
  H   H9        1.0  0.80001  0.80922  0.64014  1.0000
  H   H10       1.0  0.19999  0.19078  0.35986  1.0000
  H   H11       1.0  0.48183  0.33361  0.80914  1.0000
  H   H12       1.0  0.51817  0.66639  0.19085  1.0000
  H   H13       1.0  0.66928  0.25924  0.70005  1.0000
  H   H14       1.0  0.33072  0.74076  0.29995  1.0000
  H   H15       1.0  0.56216  0.36136  0.95307  1.0000
  H   H16       1.0  0.43783  0.63865  0.04693  1.0000
  H   H17       1.0  0.19151  0.39842  0.74899  1.0000
  H   H18       1.0  0.80849  0.60157  0.25102  1.0000
  H   H19       1.0  0.52239  0.84882  0.79429  1.0000
  H   H20       1.0  0.47762  0.15117  0.20572  1.0000
  H   H21       1.0  0.12689  0.92351  0.79087  1.0000
  H   H22       1.0  0.87311  0.07650  0.20913  1.0000
  H   H23       1.0  0.85518  0.97951  0.95130  1.0000
  H   H24       1.0  0.14482  0.02050  0.04870  1.0000
  H   H25       1.0  0.80131  0.36323  0.04315  1.0000
  H   H26       1.0  0.19868  0.63677  0.95685  1.0000
  H   H27       1.0  0.12279  0.37554  0.94080  1.0000
  H   H28       1.0  0.87721  0.62445  0.05920  1.0000
  C   C1        1.0  0.04681  0.22961  0.58204  1.0000
  C   C2        1.0  0.95319  0.77039  0.41796  1.0000
  C   C3        1.0  0.96521  0.40951  0.62572  1.0000
  C   C4        1.0  0.03479  0.59049  0.37428  1.0000
  C   C5        1.0  0.80760  0.84541  0.71065  1.0000
  C   C6        1.0  0.19241  0.15459  0.28935  1.0000
  C   C7        1.0  0.73878  0.38048  0.80051  1.0000
  C   C8        1.0  0.26122  0.61952  0.19949  1.0000
  C   C9        1.0  0.47680  0.53975  0.68584  1.0000
  C   C10       1.0  0.52320  0.46025  0.31416  1.0000
  C   C11       1.0  0.59430  0.36892  0.74976  1.0000
  C   C12       1.0  0.40570  0.63109  0.25024  1.0000
  C   C13       1.0  0.91773  0.39201  0.74262  1.0000
  C   C14       1.0  0.08227  0.60799  0.25738  1.0000
  C   C15       1.0  0.69963  0.37196  0.90813  1.0000
  C   C16       1.0  0.30037  0.62804  0.09187  1.0000
  C   C17       1.0  0.66620  0.92334  0.88344  1.0000
  C   C18       1.0  0.33381  0.07665  0.11656  1.0000
  C   C19       1.0  0.05406  0.38886  0.79454  1.0000
  C   C20       1.0  0.94594  0.61114  0.20547  1.0000
  C   C21       1.0  0.65158  0.87010  0.79648  1.0000
  C   C22       1.0  0.34843  0.12990  0.20352  1.0000
  C   C23       1.0  0.98906  0.91081  0.79540  1.0000
  C   C24       1.0  0.01094  0.08920  0.20460  1.0000
  C   C25       1.0  0.83987  0.94153  0.88358  1.0000
  C   C26       1.0  0.16013  0.05847  0.11642  1.0000
  C   C27       1.0  0.83517  0.37113  0.95910  1.0000
  C   C28       1.0  0.16482  0.62886  0.04090  1.0000
  C   C29       1.0  0.01469  0.37765  0.90188  1.0000
  C   C30       1.0  0.98531  0.62235  0.09812  1.0000
  N   N1        1.0  0.97253  0.86577  0.70977  1.0000
  N   N2        1.0  0.02747  0.13424  0.29024  1.0000
  N   N3        1.0  0.50143  0.95449  0.96788  1.0000
  N   N4        1.0  0.49857  0.04551  0.03212  1.0000
  O   O1        1.0  0.39245  0.51949  0.62211  1.0000
  O   O2        1.0  0.60756  0.48051  0.37789  1.0000
  O   O3        1.0  0.21769  0.10927  0.59853  1.0000
  O   O4        1.0  0.78231  0.89072  0.40146  1.0000
  O   O5        1.0  0.46963  0.81228  0.42205  1.0000
  O   O6        1.0  0.53037  0.18772  0.57795  1.0000
  O   O7        1.0  0.45848  0.69306  0.69731  1.0000
  O   O8        1.0  0.54152  0.30694  0.30269  1.0000
  O   O9        1.0  0.94509  0.20235  0.53380  1.0000
  O   O10       1.0  0.05490  0.79765  0.46620  1.0000
