data_image0
_chemical_formula_structural       Zn2H24C30N4O8
_chemical_formula_sum              "Zn2 H24 C30 N4 O8"
_cell_length_a       8.49203
_cell_length_b       9.21217
_cell_length_c       9.70666
_cell_angle_alpha    64.8127
_cell_angle_beta     82.6799
_cell_angle_gamma    76.0971

_space_group_name_H-M_alt    "P 1"
_space_group_IT_number       1

loop_
  _space_group_symop_operation_xyz
  'x, y, z'

loop_
  _atom_site_type_symbol
  _atom_site_label
  _atom_site_symmetry_multiplicity
  _atom_site_fract_x
  _atom_site_fract_y
  _atom_site_fract_z
  _atom_site_occupancy
  Zn  Zn1       1.0  0.53800  0.07343  0.59676  1.0000
  Zn  Zn2       1.0  0.46199  0.92657  0.40323  1.0000
  H   H1        1.0  0.32284  0.58496  0.69735  1.0000
  H   H2        1.0  0.67716  0.41504  0.30266  1.0000
  H   H3        1.0  0.97727  0.98031  0.65541  1.0000
  H   H4        1.0  0.02274  0.01969  0.34459  1.0000
  H   H5        1.0  0.06187  0.78041  0.77817  1.0000
  H   H6        1.0  0.93813  0.21959  0.22182  1.0000
  H   H7        1.0  0.94868  0.73770  0.02068  1.0000
  H   H8        1.0  0.05133  0.26229  0.97932  1.0000
  H   H9        1.0  0.11878  0.18484  0.76187  1.0000
  H   H10       1.0  0.88122  0.81516  0.23813  1.0000
  H   H11       1.0  0.66608  0.02957  0.89472  1.0000
  H   H12       1.0  0.33392  0.97044  0.10527  1.0000
  H   H13       1.0  0.92351  0.28240  0.45125  1.0000
  H   H14       1.0  0.07649  0.71761  0.54874  1.0000
  H   H15       1.0  0.21082  0.64694  0.33903  1.0000
  H   H16       1.0  0.78918  0.35306  0.66097  1.0000
  H   H17       1.0  0.22241  0.51126  0.17089  1.0000
  H   H18       1.0  0.77759  0.48873  0.82911  1.0000
  H   H19       1.0  0.08500  0.38515  0.19430  1.0000
  H   H20       1.0  0.91500  0.61485  0.80569  1.0000
  H   H21       1.0  0.62568  0.19175  0.05252  1.0000
  H   H22       1.0  0.37433  0.80824  0.94748  1.0000
  H   H23       1.0  0.36833  0.40074  0.55861  1.0000
  H   H24       1.0  0.63166  0.59926  0.44140  1.0000
  C   C1        1.0  0.47401  0.40340  0.88344  1.0000
  C   C2        1.0  0.52600  0.59660  0.11657  1.0000
  C   C3        1.0  0.16686  0.41141  0.25553  1.0000
  C   C4        1.0  0.83313  0.58860  0.74446  1.0000
  C   C5        1.0  0.39772  0.46200  0.74492  1.0000
  C   C6        1.0  0.60228  0.53800  0.25509  1.0000
  C   C7        1.0  0.30214  0.25909  0.32072  1.0000
  C   C8        1.0  0.69785  0.74091  0.67927  1.0000
  C   C9        1.0  0.42479  0.36220  0.66664  1.0000
  C   C10       1.0  0.57520  0.63781  0.33336  1.0000
  C   C11       1.0  0.59091  0.15291  0.85581  1.0000
  C   C12       1.0  0.40910  0.84709  0.14419  1.0000
  C   C13       1.0  0.57064  0.24458  0.94174  1.0000
  C   C14       1.0  0.42937  0.75542  0.05827  1.0000
  C   C15       1.0  0.23426  0.92690  0.65590  1.0000
  C   C16       1.0  0.76575  0.07309  0.34411  1.0000
  C   C17       1.0  0.03835  0.95566  0.87437  1.0000
  C   C18       1.0  0.96164  0.04434  0.12563  1.0000
  C   C19       1.0  0.06648  0.10321  0.86577  1.0000
  C   C20       1.0  0.93352  0.89679  0.13423  1.0000
  C   C21       1.0  0.07161  0.90858  0.74124  1.0000
  C   C22       1.0  0.92839  0.09142  0.25877  1.0000
  C   C23       1.0  0.97174  0.85347  0.01084  1.0000
  C   C24       1.0  0.02826  0.14652  0.98916  1.0000
  C   C25       1.0  0.07806  0.45993  0.37905  1.0000
  C   C26       1.0  0.92194  0.54008  0.62094  1.0000
  C   C27       1.0  0.11885  0.58115  0.41024  1.0000
  C   C28       1.0  0.88115  0.41886  0.58975  1.0000
  C   C29       1.0  0.95789  0.37881  0.47091  1.0000
  C   C30       1.0  0.04211  0.62120  0.52909  1.0000
  N   N1        1.0  0.52056  0.21099  0.72015  1.0000
  N   N2        1.0  0.47944  0.78902  0.27985  1.0000
  N   N3        1.0  0.44353  0.51067  0.95812  1.0000
  N   N4        1.0  0.55648  0.48932  0.04189  1.0000
  O   O1        1.0  0.31750  0.14829  0.27174  1.0000
  O   O2        1.0  0.68250  0.85171  0.72825  1.0000
  O   O3        1.0  0.38877  0.25400  0.42104  1.0000
  O   O4        1.0  0.61122  0.74599  0.57896  1.0000
  O   O5        1.0  0.33257  0.98222  0.69877  1.0000
  O   O6        1.0  0.66743  0.01778  0.30124  1.0000
  O   O7        1.0  0.25863  0.88455  0.54417  1.0000
  O   O8        1.0  0.74138  0.11545  0.45584  1.0000
