data_image0
_chemical_formula_structural       Er4H36C24O36
_chemical_formula_sum              "Er4 H36 C24 O36"
_cell_length_a       9.77858
_cell_length_b       8.54836
_cell_length_c       11.703
_cell_angle_alpha    110.148
_cell_angle_beta     90.0001
_cell_angle_gamma    90.0001

_space_group_name_H-M_alt    "P 1"
_space_group_IT_number       1

loop_
  _space_group_symop_operation_xyz
  'x, y, z'

loop_
  _atom_site_type_symbol
  _atom_site_label
  _atom_site_symmetry_multiplicity
  _atom_site_fract_x
  _atom_site_fract_y
  _atom_site_fract_z
  _atom_site_occupancy
  Er  Er1       1.0  0.18169  0.96684  0.91745  1.0000
  Er  Er2       1.0  0.68169  0.03316  0.58255  1.0000
  Er  Er3       1.0  0.81831  0.03316  0.08255  1.0000
  Er  Er4       1.0  0.31831  0.96684  0.41745  1.0000
  H   H1        1.0  0.13654  0.51464  0.54037  1.0000
  H   H2        1.0  0.63653  0.48535  0.95963  1.0000
  H   H3        1.0  0.86347  0.48537  0.45963  1.0000
  H   H4        1.0  0.36347  0.51465  0.04037  1.0000
  H   H5        1.0  0.22606  0.45120  0.64708  1.0000
  H   H6        1.0  0.72604  0.54880  0.85292  1.0000
  H   H7        1.0  0.77394  0.54880  0.35292  1.0000
  H   H8        1.0  0.27396  0.45120  0.14709  1.0000
  H   H9        1.0  0.44596  0.53943  0.59670  1.0000
  H   H10       1.0  0.94595  0.46057  0.90330  1.0000
  H   H11       1.0  0.55404  0.46057  0.40330  1.0000
  H   H12       1.0  0.05404  0.53943  0.09671  1.0000
  H   H13       1.0  0.36164  0.58231  0.47639  1.0000
  H   H14       1.0  0.86163  0.41770  0.02361  1.0000
  H   H15       1.0  0.63837  0.41769  0.52361  1.0000
  H   H16       1.0  0.13836  0.58231  0.97640  1.0000
  H   H17       1.0  0.36957  0.67537  0.79792  1.0000
  H   H18       1.0  0.86957  0.32463  0.70208  1.0000
  H   H19       1.0  0.63044  0.32464  0.20207  1.0000
  H   H20       1.0  0.13043  0.67537  0.29793  1.0000
  H   H21       1.0  0.12558  0.22614  0.14858  1.0000
  H   H22       1.0  0.62558  0.77387  0.35142  1.0000
  H   H23       1.0  0.87442  0.77386  0.85142  1.0000
  H   H24       1.0  0.37443  0.22613  0.64858  1.0000
  H   H25       1.0  0.42751  0.18183  0.98174  1.0000
  H   H26       1.0  0.92752  0.81816  0.51824  1.0000
  H   H27       1.0  0.57250  0.81816  0.01825  1.0000
  H   H28       1.0  0.07249  0.18183  0.48175  1.0000
  H   H29       1.0  0.26171  0.14040  0.17334  1.0000
  H   H30       1.0  0.76170  0.85960  0.32666  1.0000
  H   H31       1.0  0.73829  0.85960  0.82667  1.0000
  H   H32       1.0  0.23830  0.14040  0.67333  1.0000
  H   H33       1.0  0.47291  0.04114  0.86161  1.0000
  H   H34       1.0  0.97292  0.95885  0.63837  1.0000
  H   H35       1.0  0.52709  0.95885  0.13838  1.0000
  H   H36       1.0  0.02709  0.04114  0.36163  1.0000
  C   C1        1.0  0.50215  0.77020  0.57725  1.0000
  C   C2        1.0  0.00214  0.22980  0.92275  1.0000
  C   C3        1.0  0.49786  0.22980  0.42275  1.0000
  C   C4        1.0  0.99785  0.77020  0.07726  1.0000
  C   C5        1.0  0.27482  0.70053  0.65378  1.0000
  C   C6        1.0  0.77481  0.29947  0.84623  1.0000
  C   C7        1.0  0.72519  0.29947  0.34623  1.0000
  C   C8        1.0  0.22518  0.70053  0.15378  1.0000
  C   C9        1.0  0.04717  0.59268  0.71797  1.0000
  C   C10       1.0  0.54716  0.40730  0.78203  1.0000
  C   C11       1.0  0.95283  0.40732  0.28203  1.0000
  C   C12       1.0  0.45284  0.59270  0.21797  1.0000
  C   C13       1.0  0.17208  0.55779  0.63533  1.0000
  C   C14       1.0  0.67208  0.44221  0.86466  1.0000
  C   C15       1.0  0.82792  0.44222  0.36467  1.0000
  C   C16       1.0  0.32792  0.55779  0.13534  1.0000
  C   C17       1.0  0.20234  0.84169  0.62652  1.0000
  C   C18       1.0  0.70233  0.15831  0.87348  1.0000
  C   C19       1.0  0.79767  0.15831  0.37348  1.0000
  C   C20       1.0  0.29766  0.84169  0.12652  1.0000
  C   C21       1.0  0.39783  0.63744  0.57068  1.0000
  C   C22       1.0  0.89782  0.36256  0.92932  1.0000
  C   C23       1.0  0.60218  0.36256  0.42932  1.0000
  C   C24       1.0  0.10217  0.63744  0.07069  1.0000
  O   O1        1.0  0.39262  0.09708  0.90842  1.0000
  O   O2        1.0  0.89263  0.90292  0.59157  1.0000
  O   O3        1.0  0.60738  0.90292  0.09157  1.0000
  O   O4        1.0  0.10738  0.09708  0.40843  1.0000
  O   O5        1.0  0.46104  0.90865  0.56476  1.0000
  O   O6        1.0  0.96104  0.09136  0.93525  1.0000
  O   O7        1.0  0.53897  0.09135  0.43525  1.0000
  O   O8        1.0  0.03896  0.90864  0.06476  1.0000
  O   O9        1.0  0.21683  0.17974  0.11297  1.0000
  O   O10       1.0  0.71683  0.82026  0.38702  1.0000
  O   O11       1.0  0.78317  0.82026  0.88703  1.0000
  O   O12       1.0  0.28318  0.17974  0.61297  1.0000
  O   O13       1.0  0.62689  0.75109  0.59333  1.0000
  O   O14       1.0  0.12689  0.24891  0.90667  1.0000
  O   O15       1.0  0.37312  0.24890  0.40666  1.0000
  O   O16       1.0  0.87311  0.75109  0.09334  1.0000
  O   O17       1.0  0.15645  0.96339  0.71617  1.0000
  O   O18       1.0  0.65645  0.03661  0.78382  1.0000
  O   O19       1.0  0.84356  0.03662  0.28382  1.0000
  O   O20       1.0  0.34356  0.96338  0.21618  1.0000
  O   O21       1.0  0.18516  0.82894  0.51656  1.0000
  O   O22       1.0  0.68516  0.17106  0.98343  1.0000
  O   O23       1.0  0.81484  0.17106  0.48344  1.0000
  O   O24       1.0  0.31483  0.82894  0.01657  1.0000
  O   O25       1.0  0.32146  0.76649  0.77777  1.0000
  O   O26       1.0  0.82146  0.23351  0.72223  1.0000
  O   O27       1.0  0.67854  0.23351  0.22223  1.0000
  O   O28       1.0  0.17854  0.76649  0.27777  1.0000
  O   O29       1.0  0.04066  0.72760  0.81242  1.0000
  O   O30       1.0  0.54067  0.27239  0.68757  1.0000
  O   O31       1.0  0.95933  0.27241  0.18757  1.0000
  O   O32       1.0  0.45933  0.72760  0.31244  1.0000
  O   O33       1.0  0.95436  0.48450  0.68921  1.0000
  O   O34       1.0  0.45434  0.51548  0.81079  1.0000
  O   O35       1.0  0.04565  0.51550  0.31080  1.0000
  O   O36       1.0  0.54567  0.48454  0.18920  1.0000
