data_image0
_chemical_formula_structural       Nd4H36C24O36
_chemical_formula_sum              "Nd4 H36 C24 O36"
_cell_length_a       10.0183
_cell_length_b       8.54077
_cell_length_c       12.0449
_cell_angle_alpha    110.271
_cell_angle_beta     89.9998
_cell_angle_gamma    90.0002

_space_group_name_H-M_alt    "P 1"
_space_group_IT_number       1

loop_
  _space_group_symop_operation_xyz
  'x, y, z'

loop_
  _atom_site_type_symbol
  _atom_site_label
  _atom_site_symmetry_multiplicity
  _atom_site_fract_x
  _atom_site_fract_y
  _atom_site_fract_z
  _atom_site_occupancy
  Nd  Nd1       1.0  0.18436  0.96727  0.91729  1.0000
  Nd  Nd2       1.0  0.68436  0.03273  0.58271  1.0000
  Nd  Nd3       1.0  0.81564  0.03273  0.08271  1.0000
  Nd  Nd4       1.0  0.31564  0.96727  0.41729  1.0000
  H   H1        1.0  0.14311  0.50815  0.54126  1.0000
  H   H2        1.0  0.64310  0.49184  0.95875  1.0000
  H   H3        1.0  0.85690  0.49186  0.45875  1.0000
  H   H4        1.0  0.35690  0.50815  0.04125  1.0000
  H   H5        1.0  0.22955  0.44421  0.64480  1.0000
  H   H6        1.0  0.72954  0.55578  0.85520  1.0000
  H   H7        1.0  0.77046  0.55578  0.35519  1.0000
  H   H8        1.0  0.27045  0.44422  0.14480  1.0000
  H   H9        1.0  0.44423  0.53303  0.59682  1.0000
  H   H10       1.0  0.94422  0.46697  0.90318  1.0000
  H   H11       1.0  0.55577  0.46697  0.40318  1.0000
  H   H12       1.0  0.05577  0.53304  0.09682  1.0000
  H   H13       1.0  0.36239  0.57636  0.47991  1.0000
  H   H14       1.0  0.86239  0.42364  0.02010  1.0000
  H   H15       1.0  0.63761  0.42364  0.52009  1.0000
  H   H16       1.0  0.13761  0.57636  0.97990  1.0000
  H   H17       1.0  0.37458  0.66873  0.79085  1.0000
  H   H18       1.0  0.87458  0.33126  0.70916  1.0000
  H   H19       1.0  0.62542  0.33127  0.20916  1.0000
  H   H20       1.0  0.12542  0.66874  0.29084  1.0000
  H   H21       1.0  0.12119  0.23346  0.15672  1.0000
  H   H22       1.0  0.62119  0.76654  0.34327  1.0000
  H   H23       1.0  0.87881  0.76654  0.84327  1.0000
  H   H24       1.0  0.37881  0.23346  0.65672  1.0000
  H   H25       1.0  0.44425  0.18716  0.98621  1.0000
  H   H26       1.0  0.94425  0.81283  0.51379  1.0000
  H   H27       1.0  0.55575  0.81284  0.01379  1.0000
  H   H28       1.0  0.05576  0.18716  0.48621  1.0000
  H   H29       1.0  0.25545  0.14651  0.17769  1.0000
  H   H30       1.0  0.75545  0.85349  0.32230  1.0000
  H   H31       1.0  0.74455  0.85349  0.82230  1.0000
  H   H32       1.0  0.24455  0.14651  0.67770  1.0000
  H   H33       1.0  0.48005  0.04912  0.86636  1.0000
  H   H34       1.0  0.98005  0.95088  0.63364  1.0000
  H   H35       1.0  0.51995  0.95087  0.13364  1.0000
  H   H36       1.0  0.01995  0.04913  0.36636  1.0000
  C   C1        1.0  0.49940  0.76447  0.57855  1.0000
  C   C2        1.0  0.99939  0.23554  0.92146  1.0000
  C   C3        1.0  0.50060  0.23554  0.42146  1.0000
  C   C4        1.0  0.00060  0.76446  0.07854  1.0000
  C   C5        1.0  0.27682  0.69476  0.65265  1.0000
  C   C6        1.0  0.77682  0.30523  0.84735  1.0000
  C   C7        1.0  0.72319  0.30524  0.34735  1.0000
  C   C8        1.0  0.22318  0.69477  0.15265  1.0000
  C   C9        1.0  0.05318  0.58125  0.71237  1.0000
  C   C10       1.0  0.55318  0.41874  0.78763  1.0000
  C   C11       1.0  0.94682  0.41876  0.28763  1.0000
  C   C12       1.0  0.44682  0.58125  0.21237  1.0000
  C   C13       1.0  0.17690  0.55119  0.63385  1.0000
  C   C14       1.0  0.67689  0.44880  0.86615  1.0000
  C   C15       1.0  0.82311  0.44881  0.36615  1.0000
  C   C16       1.0  0.32311  0.55120  0.13385  1.0000
  C   C17       1.0  0.20479  0.83520  0.62531  1.0000
  C   C18       1.0  0.70478  0.16479  0.87469  1.0000
  C   C19       1.0  0.79522  0.16480  0.37469  1.0000
  C   C20       1.0  0.29522  0.83521  0.12531  1.0000
  C   C21       1.0  0.39732  0.63150  0.57176  1.0000
  C   C22       1.0  0.89731  0.36849  0.92824  1.0000
  C   C23       1.0  0.60269  0.36849  0.42824  1.0000
  C   C24       1.0  0.10268  0.63151  0.07176  1.0000
  O   O1        1.0  0.40426  0.10486  0.91624  1.0000
  O   O2        1.0  0.90426  0.89514  0.58376  1.0000
  O   O3        1.0  0.59574  0.89514  0.08375  1.0000
  O   O4        1.0  0.09574  0.10486  0.41624  1.0000
  O   O5        1.0  0.45887  0.90092  0.56371  1.0000
  O   O6        1.0  0.95888  0.09908  0.93629  1.0000
  O   O7        1.0  0.54112  0.09908  0.43629  1.0000
  O   O8        1.0  0.04112  0.90092  0.06370  1.0000
  O   O9        1.0  0.21016  0.18845  0.12119  1.0000
  O   O10       1.0  0.71015  0.81156  0.37880  1.0000
  O   O11       1.0  0.78984  0.81155  0.87880  1.0000
  O   O12       1.0  0.28984  0.18844  0.62119  1.0000
  O   O13       1.0  0.62095  0.74577  0.59633  1.0000
  O   O14       1.0  0.12095  0.25423  0.90367  1.0000
  O   O15       1.0  0.37905  0.25423  0.40368  1.0000
  O   O16       1.0  0.87905  0.74577  0.09633  1.0000
  O   O17       1.0  0.16180  0.96022  0.71150  1.0000
  O   O18       1.0  0.66179  0.03978  0.78850  1.0000
  O   O19       1.0  0.83822  0.03979  0.28850  1.0000
  O   O20       1.0  0.33820  0.96023  0.21150  1.0000
  O   O21       1.0  0.18437  0.81699  0.51791  1.0000
  O   O22       1.0  0.68436  0.18300  0.98209  1.0000
  O   O23       1.0  0.81564  0.18301  0.48209  1.0000
  O   O24       1.0  0.31564  0.81700  0.01790  1.0000
  O   O25       1.0  0.32356  0.75939  0.77286  1.0000
  O   O26       1.0  0.82356  0.24060  0.72714  1.0000
  O   O27       1.0  0.67644  0.24060  0.22714  1.0000
  O   O28       1.0  0.17644  0.75940  0.27285  1.0000
  O   O29       1.0  0.04169  0.71534  0.80440  1.0000
  O   O30       1.0  0.54168  0.28466  0.69560  1.0000
  O   O31       1.0  0.95832  0.28467  0.19561  1.0000
  O   O32       1.0  0.45831  0.71534  0.30440  1.0000
  O   O33       1.0  0.96706  0.46706  0.68106  1.0000
  O   O34       1.0  0.46706  0.53293  0.81895  1.0000
  O   O35       1.0  0.03294  0.53294  0.31894  1.0000
  O   O36       1.0  0.53293  0.46707  0.18106  1.0000
