data_image0
_chemical_formula_structural       Cd4H44C48N12O24
_chemical_formula_sum              "Cd4 H44 C48 N12 O24"
_cell_length_a       7.83448
_cell_length_b       8.96134
_cell_length_c       19.6255
_cell_angle_alpha    89.9991
_cell_angle_beta     98.5267
_cell_angle_gamma    89.9993

_space_group_name_H-M_alt    "P 1"
_space_group_IT_number       1

loop_
  _space_group_symop_operation_xyz
  'x, y, z'

loop_
  _atom_site_type_symbol
  _atom_site_label
  _atom_site_symmetry_multiplicity
  _atom_site_fract_x
  _atom_site_fract_y
  _atom_site_fract_z
  _atom_site_occupancy
  Cd  Cd1       1.0  0.86696  0.44787  0.29190  1.0000
  Cd  Cd2       1.0  0.13305  0.94786  0.20810  1.0000
  Cd  Cd3       1.0  0.13305  0.55214  0.70810  1.0000
  Cd  Cd4       1.0  0.86695  0.05214  0.79190  1.0000
  H   H1        1.0  0.59505  0.21007  0.16222  1.0000
  H   H2        1.0  0.40495  0.71007  0.33779  1.0000
  H   H3        1.0  0.40495  0.78994  0.83779  1.0000
  H   H4        1.0  0.59506  0.28994  0.66221  1.0000
  H   H5        1.0  0.55214  0.07856  0.22519  1.0000
  H   H6        1.0  0.44788  0.57857  0.27482  1.0000
  H   H7        1.0  0.44786  0.92144  0.77481  1.0000
  H   H8        1.0  0.55213  0.42144  0.72518  1.0000
  H   H9        1.0  0.51482  0.25918  0.28923  1.0000
  H   H10       1.0  0.48519  0.75917  0.21078  1.0000
  H   H11       1.0  0.48518  0.74082  0.71077  1.0000
  H   H12       1.0  0.51481  0.24083  0.78922  1.0000
  H   H13       1.0  0.63511  0.69373  0.51002  1.0000
  H   H14       1.0  0.36489  0.19371  0.98997  1.0000
  H   H15       1.0  0.36489  0.30628  0.48998  1.0000
  H   H16       1.0  0.63509  0.80627  0.01002  1.0000
  H   H17       1.0  0.58093  0.94688  0.46179  1.0000
  H   H18       1.0  0.41907  0.44687  0.03821  1.0000
  H   H19       1.0  0.41907  0.05312  0.53821  1.0000
  H   H20       1.0  0.58092  0.55312  0.96179  1.0000
  H   H21       1.0  0.67436  0.00925  0.34830  1.0000
  H   H22       1.0  0.32565  0.50924  0.15170  1.0000
  H   H23       1.0  0.32564  0.99075  0.65170  1.0000
  H   H24       1.0  0.67436  0.49075  0.84830  1.0000
  H   H25       1.0  0.80878  0.80697  0.28514  1.0000
  H   H26       1.0  0.19123  0.30696  0.21486  1.0000
  H   H27       1.0  0.19122  0.19304  0.71486  1.0000
  H   H28       1.0  0.80878  0.69303  0.78514  1.0000
  H   H29       1.0  0.93963  0.15104  0.39052  1.0000
  H   H30       1.0  0.06039  0.65103  0.10949  1.0000
  H   H31       1.0  0.06037  0.84897  0.60948  1.0000
  H   H32       1.0  0.93962  0.34895  0.89051  1.0000
  H   H33       1.0  0.89761  0.05961  0.50918  1.0000
  H   H34       1.0  0.10238  0.55961  0.99082  1.0000
  H   H35       1.0  0.10240  0.94039  0.49082  1.0000
  H   H36       1.0  0.89760  0.44038  0.00917  1.0000
  H   H37       1.0  0.79808  0.23828  0.59067  1.0000
  H   H38       1.0  0.20190  0.73828  0.90934  1.0000
  H   H39       1.0  0.20193  0.76173  0.40933  1.0000
  H   H40       1.0  0.79808  0.26172  0.09066  1.0000
  H   H41       1.0  0.73124  0.50043  0.55313  1.0000
  H   H42       1.0  0.26876  0.00042  0.94687  1.0000
  H   H43       1.0  0.26877  0.49958  0.44687  1.0000
  H   H44       1.0  0.73123  0.99957  0.05313  1.0000
  C   C1        1.0  0.81951  0.12699  0.22534  1.0000
  C   C2        1.0  0.18051  0.62698  0.27467  1.0000
  C   C3        1.0  0.18049  0.87302  0.77466  1.0000
  C   C4        1.0  0.81951  0.37302  0.72533  1.0000
  C   C5        1.0  0.63140  0.17567  0.21635  1.0000
  C   C6        1.0  0.36861  0.67566  0.28366  1.0000
  C   C7        1.0  0.36860  0.82433  0.78366  1.0000
  C   C8        1.0  0.63140  0.32434  0.71634  1.0000
  C   C9        1.0  0.89011  0.22371  0.42778  1.0000
  C   C10       1.0  0.10990  0.72371  0.07223  1.0000
  C   C11       1.0  0.10989  0.77630  0.57222  1.0000
  C   C12       1.0  0.89010  0.27628  0.92777  1.0000
  C   C13       1.0  0.86975  0.17437  0.49342  1.0000
  C   C14       1.0  0.13023  0.67437  0.00658  1.0000
  C   C15       1.0  0.13025  0.82564  0.50658  1.0000
  C   C16       1.0  0.86975  0.32563  0.99342  1.0000
  C   C17       1.0  0.81099  0.27489  0.53879  1.0000
  C   C18       1.0  0.18900  0.77489  0.96121  1.0000
  C   C19       1.0  0.18902  0.72511  0.46121  1.0000
  C   C20       1.0  0.81098  0.22510  0.03879  1.0000
  C   C21       1.0  0.77209  0.42041  0.51706  1.0000
  C   C22       1.0  0.22791  0.92041  0.98294  1.0000
  C   C23       1.0  0.22791  0.57959  0.48294  1.0000
  C   C24       1.0  0.77208  0.07958  0.01705  1.0000
  C   C25       1.0  0.79046  0.46121  0.44951  1.0000
  C   C26       1.0  0.20954  0.96121  0.05049  1.0000
  C   C27       1.0  0.20953  0.53879  0.55049  1.0000
  C   C28       1.0  0.79045  0.03879  0.94951  1.0000
  C   C29       1.0  0.74992  0.61414  0.42258  1.0000
  C   C30       1.0  0.25009  0.11413  0.07743  1.0000
  C   C31       1.0  0.25008  0.38587  0.57743  1.0000
  C   C32       1.0  0.74990  0.88586  0.92257  1.0000
  C   C33       1.0  0.67237  0.72034  0.46026  1.0000
  C   C34       1.0  0.32764  0.22033  0.03974  1.0000
  C   C35       1.0  0.32764  0.27967  0.53974  1.0000
  C   C36       1.0  0.67235  0.77966  0.96026  1.0000
  C   C37       1.0  0.64296  0.86354  0.43348  1.0000
  C   C38       1.0  0.35704  0.36353  0.06652  1.0000
  C   C39       1.0  0.35704  0.13647  0.56652  1.0000
  C   C40       1.0  0.64295  0.63646  0.93348  1.0000
  C   C41       1.0  0.69466  0.89836  0.37053  1.0000
  C   C42       1.0  0.30535  0.39835  0.12947  1.0000
  C   C43       1.0  0.30534  0.10165  0.62947  1.0000
  C   C44       1.0  0.69465  0.60164  0.87053  1.0000
  C   C45       1.0  0.76935  0.78671  0.33526  1.0000
  C   C46       1.0  0.23067  0.28669  0.16474  1.0000
  C   C47       1.0  0.23066  0.21330  0.66474  1.0000
  C   C48       1.0  0.76934  0.71330  0.83526  1.0000
  N   N1        1.0  0.84991  0.36308  0.40641  1.0000
  N   N2        1.0  0.15010  0.86307  0.09359  1.0000
  N   N3        1.0  0.15009  0.63694  0.59359  1.0000
  N   N4        1.0  0.84990  0.13693  0.90641  1.0000
  N   N5        1.0  0.79285  0.64773  0.36010  1.0000
  N   N6        1.0  0.20716  0.14773  0.13990  1.0000
  N   N7        1.0  0.20715  0.35227  0.63990  1.0000
  N   N8        1.0  0.79284  0.85227  0.86010  1.0000
  N   N9        1.0  0.71561  0.56894  0.15230  1.0000
  N   N10       1.0  0.28439  0.06893  0.34770  1.0000
  N   N11       1.0  0.28439  0.43106  0.84769  1.0000
  N   N12       1.0  0.71560  0.93106  0.65230  1.0000
  O   O1        1.0  0.93547  0.20480  0.26067  1.0000
  O   O2        1.0  0.06455  0.70479  0.23934  1.0000
  O   O3        1.0  0.06454  0.79521  0.73933  1.0000
  O   O4        1.0  0.93546  0.29521  0.76067  1.0000
  O   O5        1.0  0.84666  0.00628  0.19426  1.0000
  O   O6        1.0  0.15337  0.50626  0.30574  1.0000
  O   O7        1.0  0.15334  0.99373  0.80574  1.0000
  O   O8        1.0  0.84665  0.49374  0.69426  1.0000
  O   O9        1.0  0.60019  0.29595  0.26075  1.0000
  O   O10       1.0  0.39983  0.79595  0.23926  1.0000
  O   O11       1.0  0.39982  0.70405  0.73926  1.0000
  O   O12       1.0  0.60018  0.20405  0.76074  1.0000
  O   O13       1.0  0.65613  0.62578  0.20361  1.0000
  O   O14       1.0  0.34388  0.12578  0.29639  1.0000
  O   O15       1.0  0.34388  0.37422  0.79639  1.0000
  O   O16       1.0  0.65611  0.87422  0.70361  1.0000
  O   O17       1.0  0.82921  0.46591  0.16466  1.0000
  O   O18       1.0  0.17079  0.96590  0.33533  1.0000
  O   O19       1.0  0.17079  0.53409  0.83534  1.0000
  O   O20       1.0  0.82920  0.03410  0.66467  1.0000
  O   O21       1.0  0.66496  0.61152  0.09216  1.0000
  O   O22       1.0  0.33503  0.11151  0.40784  1.0000
  O   O23       1.0  0.33504  0.38848  0.90784  1.0000
  O   O24       1.0  0.66495  0.88849  0.59216  1.0000
