data_image0
_chemical_formula_structural       K2B2H54C54N18O2
_chemical_formula_sum              "K2 B2 H54 C54 N18 O2"
_cell_length_a       8.80296
_cell_length_b       11.7098
_cell_length_c       13.2458
_cell_angle_alpha    75.2983
_cell_angle_beta     83.2848
_cell_angle_gamma    88.2829

_space_group_name_H-M_alt    "P 1"
_space_group_IT_number       1

loop_
  _space_group_symop_operation_xyz
  'x, y, z'

loop_
  _atom_site_type_symbol
  _atom_site_label
  _atom_site_symmetry_multiplicity
  _atom_site_fract_x
  _atom_site_fract_y
  _atom_site_fract_z
  _atom_site_occupancy
  K   K1        1.0  0.11883  0.77695  0.62268  1.0000
  K   K2        1.0  0.88117  0.22305  0.37732  1.0000
  B   B1        1.0  0.31350  0.58769  0.83805  1.0000
  B   B2        1.0  0.68650  0.41231  0.16195  1.0000
  H   H1        1.0  0.11845  0.90778  0.35444  1.0000
  H   H2        1.0  0.88155  0.09222  0.64556  1.0000
  H   H3        1.0  0.96988  0.95179  0.40734  1.0000
  H   H4        1.0  0.03012  0.04821  0.59266  1.0000
  H   H5        1.0  0.69247  0.88206  0.71164  1.0000
  H   H6        1.0  0.30754  0.11794  0.28837  1.0000
  H   H7        1.0  0.62899  0.78640  0.92380  1.0000
  H   H8        1.0  0.37101  0.21360  0.07621  1.0000
  H   H9        1.0  0.54259  0.64390  0.95710  1.0000
  H   H10       1.0  0.45741  0.35610  0.04290  1.0000
  H   H11       1.0  0.42601  0.77031  0.94888  1.0000
  H   H12       1.0  0.57399  0.22969  0.05112  1.0000
  H   H13       1.0  0.78143  0.93931  0.54373  1.0000
  H   H14       1.0  0.21857  0.06069  0.45627  1.0000
  H   H15       1.0  0.71963  0.02238  0.22945  1.0000
  H   H16       1.0  0.28037  0.97762  0.77055  1.0000
  H   H17       1.0  0.47906  0.90131  0.26639  1.0000
  H   H18       1.0  0.52094  0.09869  0.73361  1.0000
  H   H19       1.0  0.39267  0.79002  0.45057  1.0000
  H   H20       1.0  0.60733  0.20998  0.54943  1.0000
  H   H21       1.0  0.21538  0.27874  0.68380  1.0000
  H   H22       1.0  0.78463  0.72126  0.31620  1.0000
  H   H23       1.0  0.48998  0.28473  0.75790  1.0000
  H   H24       1.0  0.51002  0.71527  0.24210  1.0000
  H   H25       1.0  0.44497  0.31892  0.88161  1.0000
  H   H26       1.0  0.55503  0.68108  0.11839  1.0000
  H   H27       1.0  0.54422  0.42265  0.77490  1.0000
  H   H28       1.0  0.45578  0.57735  0.22510  1.0000
  H   H29       1.0  0.00747  0.28346  0.59317  1.0000
  H   H30       1.0  0.99254  0.71654  0.40683  1.0000
  H   H31       1.0  0.60817  0.43319  0.48482  1.0000
  H   H32       1.0  0.39183  0.56680  0.51518  1.0000
  H   H33       1.0  0.61813  0.59380  0.57972  1.0000
  H   H34       1.0  0.38186  0.40619  0.42028  1.0000
  H   H35       1.0  0.83878  0.59895  0.68057  1.0000
  H   H36       1.0  0.16122  0.40104  0.31944  1.0000
  H   H37       1.0  0.97490  0.68444  0.10849  1.0000
  H   H38       1.0  0.02510  0.31556  0.89151  1.0000
  H   H39       1.0  0.11829  0.47252  0.14771  1.0000
  H   H40       1.0  0.88170  0.52749  0.85229  1.0000
  H   H41       1.0  0.31227  0.50519  0.09249  1.0000
  H   H42       1.0  0.68773  0.49482  0.90751  1.0000
  H   H43       1.0  0.19461  0.42219  0.03696  1.0000
  H   H44       1.0  0.80539  0.57781  0.96304  1.0000
  H   H45       1.0  0.00639  0.93788  0.75312  1.0000
  H   H46       1.0  0.99361  0.06212  0.24688  1.0000
  H   H47       1.0  0.69491  0.16875  0.85370  1.0000
  H   H48       1.0  0.30509  0.83126  0.14630  1.0000
  H   H49       1.0  0.67479  0.04396  0.03868  1.0000
  H   H50       1.0  0.32521  0.95604  0.96132  1.0000
  H   H51       1.0  0.82881  0.85796  0.08022  1.0000
  H   H52       1.0  0.17120  0.14204  0.91978  1.0000
  H   H53       1.0  0.38998  0.52529  0.90069  1.0000
  H   H54       1.0  0.61001  0.47471  0.09931  1.0000
  C   C1        1.0  0.52363  0.74669  0.79977  1.0000
  C   C2        1.0  0.47637  0.25331  0.20023  1.0000
  C   C3        1.0  0.60446  0.81913  0.71175  1.0000
  C   C4        1.0  0.39554  0.18087  0.28825  1.0000
  C   C5        1.0  0.53993  0.79775  0.62522  1.0000
  C   C6        1.0  0.46007  0.20225  0.37478  1.0000
  C   C7        1.0  0.53138  0.73633  0.91328  1.0000
  C   C8        1.0  0.46862  0.26367  0.08672  1.0000
  C   C9        1.0  0.58105  0.85388  0.51410  1.0000
  C   C10       1.0  0.41895  0.14613  0.48590  1.0000
  C   C11       1.0  0.71208  0.92523  0.48474  1.0000
  C   C12       1.0  0.28792  0.07477  0.51526  1.0000
  C   C13       1.0  0.67845  0.97229  0.30891  1.0000
  C   C14       1.0  0.32155  0.02771  0.69109  1.0000
  C   C15       1.0  0.54536  0.90453  0.33015  1.0000
  C   C16       1.0  0.45464  0.09548  0.66985  1.0000
  C   C17       1.0  0.49640  0.84354  0.43311  1.0000
  C   C18       1.0  0.50360  0.15646  0.56689  1.0000
  C   C19       1.0  0.30518  0.40481  0.76130  1.0000
  C   C20       1.0  0.69482  0.59519  0.23870  1.0000
  C   C21       1.0  0.20257  0.36005  0.70898  1.0000
  C   C22       1.0  0.79743  0.63995  0.29102  1.0000
  C   C23       1.0  0.08255  0.44386  0.69505  1.0000
  C   C24       1.0  0.91745  0.55614  0.30495  1.0000
  C   C25       1.0  0.45385  0.35543  0.79608  1.0000
  C   C26       1.0  0.54615  0.64457  0.20392  1.0000
  C   C27       1.0  0.94550  0.44322  0.64295  1.0000
  C   C28       1.0  0.05450  0.55678  0.35705  1.0000
  C   C29       1.0  0.92409  0.35474  0.59146  1.0000
  C   C30       1.0  0.07592  0.64526  0.40853  1.0000
  C   C31       1.0  0.70043  0.43729  0.53215  1.0000
  C   C32       1.0  0.29957  0.56271  0.46785  1.0000
  C   C33       1.0  0.70791  0.52735  0.58300  1.0000
  C   C34       1.0  0.29209  0.47265  0.41700  1.0000
  C   C35       1.0  0.83112  0.53017  0.63923  1.0000
  C   C36       1.0  0.16888  0.46983  0.36077  1.0000
  C   C37       1.0  0.14010  0.60663  0.00584  1.0000
  C   C38       1.0  0.85990  0.39337  0.99416  1.0000
  C   C39       1.0  0.03543  0.68868  0.03145  1.0000
  C   C40       1.0  0.96457  0.31132  0.96855  1.0000
  C   C41       1.0  0.02548  0.77562  0.93648  1.0000
  C   C42       1.0  0.97452  0.22438  0.06352  1.0000
  C   C43       1.0  0.19515  0.49570  0.07429  1.0000
  C   C44       1.0  0.80484  0.50430  0.92571  1.0000
  C   C45       1.0  0.93113  0.88185  0.91901  1.0000
  C   C46       1.0  0.06887  0.11815  0.08099  1.0000
  C   C47       1.0  0.93230  0.95826  0.81823  1.0000
  C   C48       1.0  0.06770  0.04174  0.18177  1.0000
  C   C49       1.0  0.75906  0.08644  0.87400  1.0000
  C   C50       1.0  0.24094  0.91357  0.12600  1.0000
  C   C51       1.0  0.74891  0.01674  0.97712  1.0000
  C   C52       1.0  0.25109  0.98326  0.02289  1.0000
  C   C53       1.0  0.83491  0.91351  0.00009  1.0000
  C   C54       1.0  0.16509  0.08649  0.99991  1.0000
  N   N1        1.0  0.42782  0.71581  0.65858  1.0000
  N   N2        1.0  0.57217  0.28419  0.34142  1.0000
  N   N3        1.0  0.11085  0.53427  0.73613  1.0000
  N   N4        1.0  0.88915  0.46573  0.26387  1.0000
  N   N5        1.0  0.11888  0.74856  0.85701  1.0000
  N   N6        1.0  0.88112  0.25144  0.14299  1.0000
  N   N7        1.0  0.42024  0.68487  0.76498  1.0000
  N   N8        1.0  0.57976  0.31513  0.23502  1.0000
  N   N9        1.0  0.76128  0.98225  0.38544  1.0000
  N   N10       1.0  0.23871  0.01775  0.61456  1.0000
  N   N11       1.0  0.24595  0.50916  0.77707  1.0000
  N   N12       1.0  0.75405  0.49084  0.22292  1.0000
  N   N13       1.0  0.80573  0.35114  0.53725  1.0000
  N   N14       1.0  0.19428  0.64886  0.46275  1.0000
  N   N15       1.0  0.18823  0.64551  0.90069  1.0000
  N   N16       1.0  0.81177  0.35449  0.09931  1.0000
  N   N17       1.0  0.84886  0.05704  0.79506  1.0000
  N   N18       1.0  0.15114  0.94296  0.20494  1.0000
  O   O1        1.0  0.07290  0.92170  0.42254  1.0000
  O   O2        1.0  0.92709  0.07830  0.57747  1.0000
