data_image0
_chemical_formula_structural       Cd4H44C68N4O16
_chemical_formula_sum              "Cd4 H44 C68 N4 O16"
_cell_length_a       6.76414
_cell_length_b       14.0413
_cell_length_c       14.7357
_cell_angle_alpha    90.0004
_cell_angle_beta     89.9989
_cell_angle_gamma    90.0008

_space_group_name_H-M_alt    "P 1"
_space_group_IT_number       1

loop_
  _space_group_symop_operation_xyz
  'x, y, z'

loop_
  _atom_site_type_symbol
  _atom_site_label
  _atom_site_symmetry_multiplicity
  _atom_site_fract_x
  _atom_site_fract_y
  _atom_site_fract_z
  _atom_site_occupancy
  Cd  Cd1       1.0  0.15533  0.19304  0.46260  1.0000
  Cd  Cd2       1.0  0.34466  0.80696  0.96260  1.0000
  Cd  Cd3       1.0  0.65534  0.30696  0.53740  1.0000
  Cd  Cd4       1.0  0.84466  0.69304  0.03740  1.0000
  H   H1        1.0  0.21850  0.33160  0.75608  1.0000
  H   H2        1.0  0.28150  0.66840  0.25608  1.0000
  H   H3        1.0  0.71849  0.16840  0.24392  1.0000
  H   H4        1.0  0.78152  0.83159  0.74392  1.0000
  H   H5        1.0  0.18269  0.45576  0.87679  1.0000
  H   H6        1.0  0.31731  0.54425  0.37679  1.0000
  H   H7        1.0  0.68269  0.04425  0.12321  1.0000
  H   H8        1.0  0.81731  0.95575  0.62321  1.0000
  H   H9        1.0  0.06540  0.49284  0.47864  1.0000
  H   H10       1.0  0.43462  0.50716  0.97864  1.0000
  H   H11       1.0  0.56540  0.00716  0.52136  1.0000
  H   H12       1.0  0.93459  0.99283  0.02136  1.0000
  H   H13       1.0  0.00875  0.66084  0.43515  1.0000
  H   H14       1.0  0.49127  0.33915  0.93515  1.0000
  H   H15       1.0  0.50875  0.83915  0.56485  1.0000
  H   H16       1.0  0.99126  0.16084  0.06485  1.0000
  H   H17       1.0  0.00663  0.78814  0.55438  1.0000
  H   H18       1.0  0.49338  0.21186  0.05438  1.0000
  H   H19       1.0  0.50662  0.71186  0.44562  1.0000
  H   H20       1.0  0.99338  0.28814  0.94562  1.0000
  H   H21       1.0  0.06466  0.74565  0.71512  1.0000
  H   H22       1.0  0.43533  0.25436  0.21511  1.0000
  H   H23       1.0  0.56466  0.75436  0.28489  1.0000
  H   H24       1.0  0.93534  0.24564  0.78489  1.0000
  H   H25       1.0  0.21544  0.13817  0.25824  1.0000
  H   H26       1.0  0.28456  0.86183  0.75824  1.0000
  H   H27       1.0  0.71543  0.36183  0.74176  1.0000
  H   H28       1.0  0.78457  0.63817  0.24176  1.0000
  H   H29       1.0  0.20041  0.99779  0.15228  1.0000
  H   H30       1.0  0.29960  0.00221  0.65229  1.0000
  H   H31       1.0  0.70039  0.50221  0.84771  1.0000
  H   H32       1.0  0.79960  0.49779  0.34771  1.0000
  H   H33       1.0  0.10639  0.83840  0.21488  1.0000
  H   H34       1.0  0.39362  0.16160  0.71489  1.0000
  H   H35       1.0  0.60639  0.66160  0.78511  1.0000
  H   H36       1.0  0.89362  0.33840  0.28511  1.0000
  H   H37       1.0  0.03719  0.82519  0.38269  1.0000
  H   H38       1.0  0.46281  0.17480  0.88270  1.0000
  H   H39       1.0  0.53721  0.67480  0.61730  1.0000
  H   H40       1.0  0.96281  0.32520  0.11730  1.0000
  H   H41       1.0  0.06210  0.97215  0.47885  1.0000
  H   H42       1.0  0.43790  0.02784  0.97884  1.0000
  H   H43       1.0  0.56211  0.52784  0.52115  1.0000
  H   H44       1.0  0.93789  0.47216  0.02115  1.0000
  C   C1        1.0  0.15008  0.34567  0.58222  1.0000
  C   C2        1.0  0.34991  0.65433  0.08221  1.0000
  C   C3        1.0  0.65008  0.15433  0.41779  1.0000
  C   C4        1.0  0.84991  0.84567  0.91779  1.0000
  C   C5        1.0  0.14322  0.42619  0.64804  1.0000
  C   C6        1.0  0.35678  0.57382  0.14804  1.0000
  C   C7        1.0  0.64322  0.07382  0.35196  1.0000
  C   C8        1.0  0.85679  0.92618  0.85196  1.0000
  C   C9        1.0  0.17983  0.40458  0.73824  1.0000
  C   C10       1.0  0.32018  0.59543  0.23824  1.0000
  C   C11       1.0  0.67982  0.09543  0.26176  1.0000
  C   C12       1.0  0.82018  0.90457  0.76176  1.0000
  C   C13       1.0  0.16293  0.47446  0.80558  1.0000
  C   C14       1.0  0.33707  0.52554  0.30558  1.0000
  C   C15       1.0  0.66293  0.02555  0.19442  1.0000
  C   C16       1.0  0.83707  0.97445  0.69442  1.0000
  C   C17       1.0  0.12552  0.56840  0.78291  1.0000
  C   C18       1.0  0.37448  0.43160  0.28291  1.0000
  C   C19       1.0  0.62552  0.93160  0.21709  1.0000
  C   C20       1.0  0.87448  0.06840  0.71709  1.0000
  C   C21       1.0  0.09874  0.59502  0.69016  1.0000
  C   C22       1.0  0.40127  0.40498  0.19016  1.0000
  C   C23       1.0  0.59874  0.90498  0.30984  1.0000
  C   C24       1.0  0.90126  0.09502  0.80984  1.0000
  C   C25       1.0  0.10013  0.52200  0.62171  1.0000
  C   C26       1.0  0.39987  0.47800  0.12171  1.0000
  C   C27       1.0  0.60013  0.97800  0.37829  1.0000
  C   C28       1.0  0.89987  0.02200  0.87829  1.0000
  C   C29       1.0  0.06654  0.54862  0.52988  1.0000
  C   C30       1.0  0.43347  0.45139  0.02987  1.0000
  C   C31       1.0  0.56654  0.95138  0.47013  1.0000
  C   C32       1.0  0.93346  0.04861  0.97013  1.0000
  C   C33       1.0  0.03481  0.64242  0.50612  1.0000
  C   C34       1.0  0.46522  0.35758  0.00612  1.0000
  C   C35       1.0  0.53480  0.85758  0.49388  1.0000
  C   C36       1.0  0.96520  0.14242  0.99388  1.0000
  C   C37       1.0  0.03366  0.71416  0.57330  1.0000
  C   C38       1.0  0.46634  0.28585  0.07330  1.0000
  C   C39       1.0  0.53366  0.78585  0.42670  1.0000
  C   C40       1.0  0.96634  0.21415  0.92670  1.0000
  C   C41       1.0  0.06443  0.69076  0.66310  1.0000
  C   C42       1.0  0.43556  0.30924  0.16309  1.0000
  C   C43       1.0  0.56443  0.80924  0.33690  1.0000
  C   C44       1.0  0.93557  0.19076  0.83690  1.0000
  C   C45       1.0  0.11898  0.63863  0.85979  1.0000
  C   C46       1.0  0.38102  0.36137  0.35979  1.0000
  C   C47       1.0  0.61899  0.86137  0.14021  1.0000
  C   C48       1.0  0.88101  0.13863  0.64021  1.0000
  C   C49       1.0  0.17727  0.06710  0.28236  1.0000
  C   C50       1.0  0.32272  0.93290  0.78236  1.0000
  C   C51       1.0  0.67727  0.43290  0.71764  1.0000
  C   C52       1.0  0.82273  0.56710  0.21764  1.0000
  C   C53       1.0  0.16741  0.98923  0.22414  1.0000
  C   C54       1.0  0.33260  0.01078  0.72414  1.0000
  C   C55       1.0  0.66740  0.51077  0.77585  1.0000
  C   C56       1.0  0.83260  0.48923  0.27585  1.0000
  C   C57       1.0  0.11644  0.90033  0.25940  1.0000
  C   C58       1.0  0.38356  0.09967  0.75940  1.0000
  C   C59       1.0  0.61644  0.59966  0.74060  1.0000
  C   C60       1.0  0.88356  0.40034  0.24059  1.0000
  C   C61       1.0  0.07900  0.89293  0.35217  1.0000
  C   C62       1.0  0.42101  0.10706  0.85217  1.0000
  C   C63       1.0  0.57900  0.60706  0.64783  1.0000
  C   C64       1.0  0.92101  0.39294  0.14783  1.0000
  C   C65       1.0  0.09290  0.97397  0.40627  1.0000
  C   C66       1.0  0.40711  0.02602  0.90627  1.0000
  C   C67       1.0  0.59291  0.52601  0.59373  1.0000
  C   C68       1.0  0.90710  0.47398  0.09373  1.0000
  N   N1        1.0  0.14068  0.05975  0.37192  1.0000
  N   N2        1.0  0.35933  0.94025  0.87192  1.0000
  N   N3        1.0  0.64067  0.44025  0.62808  1.0000
  N   N4        1.0  0.85932  0.55975  0.12808  1.0000
  O   O1        1.0  0.28075  0.28114  0.59334  1.0000
  O   O2        1.0  0.21922  0.71886  0.09334  1.0000
  O   O3        1.0  0.78076  0.21886  0.40667  1.0000
  O   O4        1.0  0.71925  0.78114  0.90667  1.0000
  O   O5        1.0  0.02342  0.34137  0.51767  1.0000
  O   O6        1.0  0.47657  0.65864  0.01767  1.0000
  O   O7        1.0  0.52341  0.15863  0.48234  1.0000
  O   O8        1.0  0.97658  0.84137  0.98234  1.0000
  O   O9        1.0  0.02547  0.61133  0.92995  1.0000
  O   O10       1.0  0.47452  0.38867  0.42995  1.0000
  O   O11       1.0  0.52547  0.88867  0.07005  1.0000
  O   O12       1.0  0.97452  0.11133  0.57005  1.0000
  O   O13       1.0  0.21186  0.71675  0.84905  1.0000
  O   O14       1.0  0.28813  0.28325  0.34904  1.0000
  O   O15       1.0  0.71187  0.78325  0.15096  1.0000
  O   O16       1.0  0.78812  0.21675  0.65096  1.0000
