data_image0
_chemical_formula_structural       Cd6H44C60O36
_chemical_formula_sum              "Cd6 H44 C60 O36"
_cell_length_a       6.56522
_cell_length_b       14.7
_cell_length_c       20.0472
_cell_angle_alpha    86.3379
_cell_angle_beta     80.573
_cell_angle_gamma    77.0824

_space_group_name_H-M_alt    "P 1"
_space_group_IT_number       1

loop_
  _space_group_symop_operation_xyz
  'x, y, z'

loop_
  _atom_site_type_symbol
  _atom_site_label
  _atom_site_symmetry_multiplicity
  _atom_site_fract_x
  _atom_site_fract_y
  _atom_site_fract_z
  _atom_site_occupancy
  Cd  Cd1       1.0  0.46870  0.25000  0.74998  1.0000
  Cd  Cd2       1.0  0.53132  0.75000  0.25002  1.0000
  Cd  Cd3       1.0  0.06702  0.03752  0.74296  1.0000
  Cd  Cd4       1.0  0.84688  0.46245  0.75708  1.0000
  Cd  Cd5       1.0  0.93302  0.96248  0.25704  1.0000
  Cd  Cd6       1.0  0.15314  0.53755  0.24292  1.0000
  H   H1        1.0  0.12379  0.73467  0.87613  1.0000
  H   H2        1.0  0.73328  0.76524  0.62394  1.0000
  H   H3        1.0  0.87622  0.26533  0.12387  1.0000
  H   H4        1.0  0.26673  0.23476  0.37606  1.0000
  H   H5        1.0  0.19951  0.55967  0.87834  1.0000
  H   H6        1.0  0.63601  0.94035  0.62176  1.0000
  H   H7        1.0  0.80049  0.44033  0.12167  1.0000
  H   H8        1.0  0.36402  0.05965  0.37824  1.0000
  H   H9        1.0  0.30099  0.73803  0.66036  1.0000
  H   H10       1.0  0.69996  0.76195  0.83965  1.0000
  H   H11       1.0  0.69902  0.26197  0.33964  1.0000
  H   H12       1.0  0.30004  0.23805  0.16035  1.0000
  H   H13       1.0  0.08216  0.64131  0.59759  1.0000
  H   H14       1.0  0.32176  0.85877  0.90247  1.0000
  H   H15       1.0  0.91781  0.35870  0.40241  1.0000
  H   H16       1.0  0.67823  0.14122  0.09753  1.0000
  H   H17       1.0  0.11095  0.71145  0.47972  1.0000
  H   H18       1.0  0.30250  0.78898  0.02038  1.0000
  H   H19       1.0  0.88903  0.28855  0.52028  1.0000
  H   H20       1.0  0.69751  0.21101  0.97962  1.0000
  H   H21       1.0  0.78738  0.60641  0.45224  1.0000
  H   H22       1.0  0.84648  0.89382  0.04786  1.0000
  H   H23       1.0  0.21260  0.39360  0.54776  1.0000
  H   H24       1.0  0.15352  0.10618  0.95213  1.0000
  H   H25       1.0  0.75614  0.53880  0.57064  1.0000
  H   H26       1.0  0.86591  0.96149  0.92945  1.0000
  H   H27       1.0  0.24385  0.46121  0.42936  1.0000
  H   H28       1.0  0.13408  0.03852  0.07054  1.0000
  H   H29       1.0  0.09781  0.15093  0.85010  1.0000
  H   H30       1.0  0.09890  0.34916  0.64997  1.0000
  H   H31       1.0  0.90221  0.84907  0.14990  1.0000
  H   H32       1.0  0.90109  0.65083  0.35003  1.0000
  H   H33       1.0  0.85001  0.15522  0.85225  1.0000
  H   H34       1.0  0.85755  0.34482  0.64779  1.0000
  H   H35       1.0  0.15001  0.84479  0.14774  1.0000
  H   H36       1.0  0.14244  0.65518  0.35221  1.0000
  H   H37       1.0  0.93311  0.17881  0.63813  1.0000
  H   H38       1.0  0.74977  0.32139  0.86192  1.0000
  H   H39       1.0  0.06689  0.82119  0.36188  1.0000
  H   H40       1.0  0.25023  0.67862  0.13809  1.0000
  H   H41       1.0  0.17601  0.17149  0.63977  1.0000
  H   H42       1.0  0.98713  0.32855  0.86020  1.0000
  H   H43       1.0  0.82398  0.82851  0.36023  1.0000
  H   H44       1.0  0.01288  0.67146  0.13979  1.0000
  C   C1        1.0  0.15906  0.84989  0.76484  1.0000
  C   C2        1.0  0.77350  0.65005  0.73519  1.0000
  C   C3        1.0  0.84096  0.15010  0.23516  1.0000
  C   C4        1.0  0.22648  0.34994  0.26481  1.0000
  C   C5        1.0  0.20893  0.74542  0.76791  1.0000
  C   C6        1.0  0.72189  0.75455  0.73213  1.0000
  C   C7        1.0  0.79108  0.25458  0.23209  1.0000
  C   C8        1.0  0.27810  0.24545  0.26788  1.0000
  C   C9        1.0  0.18176  0.69619  0.82967  1.0000
  C   C10       1.0  0.70664  0.80373  0.67038  1.0000
  C   C11       1.0  0.81824  0.30382  0.17033  1.0000
  C   C12       1.0  0.29337  0.19627  0.32961  1.0000
  C   C13       1.0  0.22399  0.59894  0.83078  1.0000
  C   C14       1.0  0.65279  0.90100  0.66928  1.0000
  C   C15       1.0  0.77601  0.40106  0.16922  1.0000
  C   C16       1.0  0.34723  0.09900  0.33072  1.0000
  C   C17       1.0  0.29859  0.55089  0.77065  1.0000
  C   C18       1.0  0.61998  0.94906  0.72938  1.0000
  C   C19       1.0  0.70139  0.44911  0.22935  1.0000
  C   C20       1.0  0.38004  0.05093  0.27062  1.0000
  C   C21       1.0  0.32781  0.60087  0.70907  1.0000
  C   C22       1.0  0.63817  0.89910  0.79095  1.0000
  C   C23       1.0  0.67219  0.39913  0.29093  1.0000
  C   C24       1.0  0.36181  0.10089  0.20905  1.0000
  C   C25       1.0  0.28121  0.69781  0.70744  1.0000
  C   C26       1.0  0.68670  0.80216  0.79256  1.0000
  C   C27       1.0  0.71881  0.30218  0.29256  1.0000
  C   C28       1.0  0.31328  0.19784  0.20744  1.0000
  C   C29       1.0  0.34954  0.44707  0.76812  1.0000
  C   C30       1.0  0.56465  0.05288  0.73187  1.0000
  C   C31       1.0  0.65044  0.55292  0.23188  1.0000
  C   C32       1.0  0.43537  0.94711  0.26813  1.0000
  C   C33       1.0  0.41908  0.58847  0.58919  1.0000
  C   C34       1.0  0.59743  0.91167  0.91082  1.0000
  C   C35       1.0  0.58091  0.41153  0.41081  1.0000
  C   C36       1.0  0.40255  0.08833  0.08918  1.0000
  C   C37       1.0  0.23482  0.63584  0.56499  1.0000
  C   C38       1.0  0.43633  0.86435  0.93505  1.0000
  C   C39       1.0  0.76516  0.36416  0.43501  1.0000
  C   C40       1.0  0.56368  0.13565  0.06495  1.0000
  C   C41       1.0  0.25240  0.67397  0.49960  1.0000
  C   C42       1.0  0.42649  0.82635  0.00048  1.0000
  C   C43       1.0  0.74758  0.32604  0.50040  1.0000
  C   C44       1.0  0.57353  0.17365  0.99952  1.0000
  C   C45       1.0  0.45145  0.66531  0.45885  1.0000
  C   C46       1.0  0.57621  0.83490  0.04123  1.0000
  C   C47       1.0  0.54853  0.33469  0.54115  1.0000
  C   C48       1.0  0.42380  0.16511  0.95877  1.0000
  C   C49       1.0  0.63341  0.61576  0.48417  1.0000
  C   C50       1.0  0.73394  0.88444  0.01589  1.0000
  C   C51       1.0  0.36657  0.38424  0.51583  1.0000
  C   C52       1.0  0.26607  0.11557  0.98410  1.0000
  C   C53       1.0  0.61797  0.57688  0.54938  1.0000
  C   C54       1.0  0.74480  0.92330  0.95067  1.0000
  C   C55       1.0  0.38201  0.42312  0.45062  1.0000
  C   C56       1.0  0.25520  0.07671  0.04932  1.0000
  C   C57       1.0  0.46788  0.70582  0.38932  1.0000
  C   C58       1.0  0.56355  0.79426  0.11074  1.0000
  C   C59       1.0  0.53211  0.29418  0.61068  1.0000
  C   C60       1.0  0.43648  0.20575  0.88925  1.0000
  O   O1        1.0  0.12343  0.89531  0.81883  1.0000
  O   O2        1.0  0.83676  0.60461  0.68119  1.0000
  O   O3        1.0  0.87659  0.10469  0.18117  1.0000
  O   O4        1.0  0.16325  0.39538  0.31881  1.0000
  O   O5        1.0  0.99342  0.11435  0.84284  1.0000
  O   O6        1.0  0.95060  0.38564  0.65727  1.0000
  O   O7        1.0  0.00659  0.88565  0.15716  1.0000
  O   O8        1.0  0.04939  0.61436  0.34273  1.0000
  O   O9        1.0  0.15305  0.89061  0.70614  1.0000
  O   O10       1.0  0.74996  0.60933  0.79391  1.0000
  O   O11       1.0  0.84696  0.10939  0.29386  1.0000
  O   O12       1.0  0.25002  0.39067  0.20609  1.0000
  O   O13       1.0  0.06778  0.13454  0.64287  1.0000
  O   O14       1.0  0.84499  0.36559  0.85721  1.0000
  O   O15       1.0  0.93222  0.86546  0.35713  1.0000
  O   O16       1.0  0.15501  0.63442  0.14278  1.0000
  O   O17       1.0  0.54253  0.40249  0.76067  1.0000
  O   O18       1.0  0.70549  0.09742  0.73945  1.0000
  O   O19       1.0  0.45747  0.59751  0.23933  1.0000
  O   O20       1.0  0.29451  0.90258  0.26056  1.0000
  O   O21       1.0  0.20235  0.40262  0.77150  1.0000
  O   O22       1.0  0.37641  0.09740  0.72837  1.0000
  O   O23       1.0  0.79765  0.59738  0.22851  1.0000
  O   O24       1.0  0.62361  0.90259  0.27162  1.0000
  O   O25       1.0  0.40926  0.54665  0.65315  1.0000
  O   O26       1.0  0.61010  0.95333  0.84681  1.0000
  O   O27       1.0  0.59072  0.45335  0.34685  1.0000
  O   O28       1.0  0.38985  0.04668  0.15319  1.0000
  O   O29       1.0  0.30224  0.73026  0.36031  1.0000
  O   O30       1.0  0.39331  0.76978  0.13969  1.0000
  O   O31       1.0  0.69775  0.26973  0.63969  1.0000
  O   O32       1.0  0.60672  0.23022  0.86030  1.0000
  O   O33       1.0  0.64806  0.71533  0.35669  1.0000
  O   O34       1.0  0.72064  0.78458  0.14337  1.0000
  O   O35       1.0  0.35193  0.28467  0.64331  1.0000
  O   O36       1.0  0.27939  0.21541  0.85662  1.0000
