data_image0
_chemical_formula_structural       Ba4H40C48N16O40
_chemical_formula_sum              "Ba4 H40 C48 N16 O40"
_cell_length_a       8.89469
_cell_length_b       10.8937
_cell_length_c       15.6357
_cell_angle_alpha    89.9997
_cell_angle_beta     89.9998
_cell_angle_gamma    90.0002

_space_group_name_H-M_alt    "P 1"
_space_group_IT_number       1

loop_
  _space_group_symop_operation_xyz
  'x, y, z'

loop_
  _atom_site_type_symbol
  _atom_site_label
  _atom_site_symmetry_multiplicity
  _atom_site_fract_x
  _atom_site_fract_y
  _atom_site_fract_z
  _atom_site_occupancy
  Ba  Ba1       1.0  0.39880  0.97874  0.54148  1.0000
  Ba  Ba2       1.0  0.89879  0.02126  0.45852  1.0000
  Ba  Ba3       1.0  0.89880  0.47873  0.95851  1.0000
  Ba  Ba4       1.0  0.39879  0.52127  0.04148  1.0000
  H   H1        1.0  0.76260  0.96106  0.82305  1.0000
  H   H2        1.0  0.26261  0.03893  0.17696  1.0000
  H   H3        1.0  0.26261  0.46107  0.67695  1.0000
  H   H4        1.0  0.76261  0.53893  0.32304  1.0000
  H   H5        1.0  0.11584  0.77836  0.45834  1.0000
  H   H6        1.0  0.61585  0.22164  0.54166  1.0000
  H   H7        1.0  0.61585  0.27836  0.04166  1.0000
  H   H8        1.0  0.11585  0.72163  0.95834  1.0000
  H   H9        1.0  0.07716  0.66190  0.74507  1.0000
  H   H10       1.0  0.57716  0.33809  0.25493  1.0000
  H   H11       1.0  0.57717  0.16191  0.75493  1.0000
  H   H12       1.0  0.07716  0.83809  0.24507  1.0000
  H   H13       1.0  0.23563  0.67232  0.60764  1.0000
  H   H14       1.0  0.73564  0.32768  0.39236  1.0000
  H   H15       1.0  0.73564  0.17232  0.89236  1.0000
  H   H16       1.0  0.23564  0.82768  0.10764  1.0000
  H   H17       1.0  0.08945  0.61533  0.54130  1.0000
  H   H18       1.0  0.58945  0.38467  0.45870  1.0000
  H   H19       1.0  0.58945  0.11533  0.95870  1.0000
  H   H20       1.0  0.08945  0.88467  0.04130  1.0000
  H   H21       1.0  0.38814  0.69487  0.38989  1.0000
  H   H22       1.0  0.88814  0.30513  0.61011  1.0000
  H   H23       1.0  0.88814  0.19487  0.11011  1.0000
  H   H24       1.0  0.38814  0.80513  0.88989  1.0000
  H   H25       1.0  0.46068  0.99548  0.06319  1.0000
  H   H26       1.0  0.96069  0.00452  0.93681  1.0000
  H   H27       1.0  0.96069  0.49548  0.43681  1.0000
  H   H28       1.0  0.46069  0.50452  0.56319  1.0000
  H   H29       1.0  0.69854  0.94884  0.24106  1.0000
  H   H30       1.0  0.19854  0.05117  0.75893  1.0000
  H   H31       1.0  0.19854  0.44883  0.25894  1.0000
  H   H32       1.0  0.69854  0.55117  0.74106  1.0000
  H   H33       1.0  0.67781  0.81294  0.02154  1.0000
  H   H34       1.0  0.17782  0.18707  0.97845  1.0000
  H   H35       1.0  0.17781  0.31293  0.47846  1.0000
  H   H36       1.0  0.67782  0.68707  0.52154  1.0000
  H   H37       1.0  0.73702  0.94725  0.07772  1.0000
  H   H38       1.0  0.23702  0.05276  0.92228  1.0000
  H   H39       1.0  0.23702  0.44724  0.42228  1.0000
  H   H40       1.0  0.73702  0.55276  0.57772  1.0000
  C   C1        1.0  0.74398  0.97980  0.68235  1.0000
  C   C2        1.0  0.24398  0.02020  0.31766  1.0000
  C   C3        1.0  0.24399  0.47981  0.81765  1.0000
  C   C4        1.0  0.74398  0.52019  0.18234  1.0000
  C   C5        1.0  0.85974  0.88151  0.68369  1.0000
  C   C6        1.0  0.35974  0.11848  0.31631  1.0000
  C   C7        1.0  0.35974  0.38152  0.81632  1.0000
  C   C8        1.0  0.85973  0.61848  0.18368  1.0000
  C   C9        1.0  0.91501  0.81092  0.75186  1.0000
  C   C10       1.0  0.41500  0.18908  0.24815  1.0000
  C   C11       1.0  0.41501  0.31092  0.74815  1.0000
  C   C12       1.0  0.91501  0.68908  0.25185  1.0000
  C   C13       1.0  0.89133  0.81360  0.84429  1.0000
  C   C14       1.0  0.39133  0.18640  0.15571  1.0000
  C   C15       1.0  0.39134  0.31360  0.65571  1.0000
  C   C16       1.0  0.89133  0.68640  0.34429  1.0000
  C   C17       1.0  0.02406  0.75668  0.63051  1.0000
  C   C18       1.0  0.52406  0.24332  0.36949  1.0000
  C   C19       1.0  0.52407  0.25668  0.86950  1.0000
  C   C20       1.0  0.02407  0.74332  0.13050  1.0000
  C   C21       1.0  0.13535  0.69916  0.57112  1.0000
  C   C22       1.0  0.63535  0.30083  0.42888  1.0000
  C   C23       1.0  0.63536  0.19916  0.92888  1.0000
  C   C24       1.0  0.13536  0.80083  0.07112  1.0000
  C   C25       1.0  0.36954  0.62239  0.27116  1.0000
  C   C26       1.0  0.86954  0.37761  0.72884  1.0000
  C   C27       1.0  0.86954  0.12240  0.22884  1.0000
  C   C28       1.0  0.36954  0.87761  0.77116  1.0000
  C   C29       1.0  0.46925  0.72063  0.24039  1.0000
  C   C30       1.0  0.96926  0.27937  0.75961  1.0000
  C   C31       1.0  0.96925  0.22063  0.25961  1.0000
  C   C32       1.0  0.46925  0.77937  0.74039  1.0000
  C   C33       1.0  0.54724  0.81059  0.28624  1.0000
  C   C34       1.0  0.04724  0.18942  0.71376  1.0000
  C   C35       1.0  0.04724  0.31059  0.21376  1.0000
  C   C36       1.0  0.54724  0.68942  0.78624  1.0000
  C   C37       1.0  0.55272  0.83933  0.37827  1.0000
  C   C38       1.0  0.05272  0.16068  0.62173  1.0000
  C   C39       1.0  0.05272  0.33933  0.12174  1.0000
  C   C40       1.0  0.55272  0.66068  0.87826  1.0000
  C   C41       1.0  0.58902  0.83039  0.14721  1.0000
  C   C42       1.0  0.08903  0.16961  0.85279  1.0000
  C   C43       1.0  0.08902  0.33039  0.35279  1.0000
  C   C44       1.0  0.58902  0.66961  0.64721  1.0000
  C   C45       1.0  0.64123  0.88587  0.06512  1.0000
  C   C46       1.0  0.14123  0.11414  0.93487  1.0000
  C   C47       1.0  0.14123  0.38586  0.43488  1.0000
  C   C48       1.0  0.64123  0.61414  0.56512  1.0000
  N   N1        1.0  0.92802  0.84586  0.60913  1.0000
  N   N2        1.0  0.42802  0.15414  0.39087  1.0000
  N   N3        1.0  0.42802  0.34586  0.89087  1.0000
  N   N4        1.0  0.92802  0.65414  0.10913  1.0000
  N   N5        1.0  0.01701  0.73159  0.71542  1.0000
  N   N6        1.0  0.51701  0.26841  0.28458  1.0000
  N   N7        1.0  0.51702  0.23159  0.78458  1.0000
  N   N8        1.0  0.01701  0.76841  0.21542  1.0000
  N   N9        1.0  0.49693  0.73354  0.15449  1.0000
  N   N10       1.0  0.99694  0.26646  0.84551  1.0000
  N   N11       1.0  0.99693  0.23354  0.34552  1.0000
  N   N12       1.0  0.49694  0.76646  0.65448  1.0000
  N   N13       1.0  0.62156  0.87820  0.22565  1.0000
  N   N14       1.0  0.12156  0.12180  0.77435  1.0000
  N   N15       1.0  0.12156  0.37820  0.27435  1.0000
  N   N16       1.0  0.62156  0.62180  0.72565  1.0000
  O   O1        1.0  0.69575  0.01618  0.61101  1.0000
  O   O2        1.0  0.19574  0.98382  0.38900  1.0000
  O   O3        1.0  0.19575  0.51618  0.88900  1.0000
  O   O4        1.0  0.69574  0.48382  0.11100  1.0000
  O   O5        1.0  0.69916  0.02304  0.75514  1.0000
  O   O6        1.0  0.19916  0.97695  0.24487  1.0000
  O   O7        1.0  0.19917  0.52305  0.74487  1.0000
  O   O8        1.0  0.69916  0.47695  0.25513  1.0000
  O   O9        1.0  0.81258  0.90701  0.87496  1.0000
  O   O10       1.0  0.31258  0.09298  0.12504  1.0000
  O   O11       1.0  0.31258  0.40702  0.62504  1.0000
  O   O12       1.0  0.81258  0.59298  0.37495  1.0000
  O   O13       1.0  0.94670  0.73396  0.89204  1.0000
  O   O14       1.0  0.44670  0.26603  0.10796  1.0000
  O   O15       1.0  0.44670  0.23397  0.60796  1.0000
  O   O16       1.0  0.94670  0.76603  0.39204  1.0000
  O   O17       1.0  0.18155  0.78632  0.50859  1.0000
  O   O18       1.0  0.68156  0.21367  0.49141  1.0000
  O   O19       1.0  0.68156  0.28632  0.99141  1.0000
  O   O20       1.0  0.18156  0.71368  0.00858  1.0000
  O   O21       1.0  0.32460  0.54281  0.21876  1.0000
  O   O22       1.0  0.82459  0.45718  0.78124  1.0000
  O   O23       1.0  0.82458  0.04282  0.28124  1.0000
  O   O24       1.0  0.32458  0.95718  0.71876  1.0000
  O   O25       1.0  0.32792  0.62102  0.35074  1.0000
  O   O26       1.0  0.82792  0.37898  0.64926  1.0000
  O   O27       1.0  0.82792  0.12103  0.14926  1.0000
  O   O28       1.0  0.32791  0.87897  0.85074  1.0000
  O   O29       1.0  0.46395  0.77857  0.42789  1.0000
  O   O30       1.0  0.96395  0.22143  0.57211  1.0000
  O   O31       1.0  0.96396  0.27857  0.07211  1.0000
  O   O32       1.0  0.46395  0.72143  0.92789  1.0000
  O   O33       1.0  0.63576  0.92372  0.40650  1.0000
  O   O34       1.0  0.13577  0.07628  0.59350  1.0000
  O   O35       1.0  0.13576  0.42373  0.09351  1.0000
  O   O36       1.0  0.63576  0.57628  0.90649  1.0000
  O   O37       1.0  0.52197  0.94975  0.02196  1.0000
  O   O38       1.0  0.02197  0.05025  0.97804  1.0000
  O   O39       1.0  0.02197  0.44975  0.47804  1.0000
  O   O40       1.0  0.52197  0.55025  0.52196  1.0000
