data_image0
_chemical_formula_structural       Zn2H12C8N2O14
_chemical_formula_sum              "Zn2 H12 C8 N2 O14"
_cell_length_a       7.11026
_cell_length_b       7.17637
_cell_length_c       8.19093
_cell_angle_alpha    84.8784
_cell_angle_beta     83.0246
_cell_angle_gamma    62.1704

_space_group_name_H-M_alt    "P 1"
_space_group_IT_number       1

loop_
  _space_group_symop_operation_xyz
  'x, y, z'

loop_
  _atom_site_type_symbol
  _atom_site_label
  _atom_site_symmetry_multiplicity
  _atom_site_fract_x
  _atom_site_fract_y
  _atom_site_fract_z
  _atom_site_occupancy
  Zn  Zn1       1.0  0.00000  0.00000  0.00000  1.0000
  Zn  Zn2       1.0  0.50000  0.50000  0.50000  1.0000
  H   H1        1.0  0.28638  0.60658  0.08617  1.0000
  H   H2        1.0  0.71362  0.39342  0.91383  1.0000
  H   H3        1.0  0.42339  0.72230  0.01022  1.0000
  H   H4        1.0  0.57661  0.27770  0.98978  1.0000
  H   H5        1.0  0.31029  0.05699  0.80624  1.0000
  H   H6        1.0  0.68971  0.94301  0.19376  1.0000
  H   H7        1.0  0.20340  0.22371  0.94653  1.0000
  H   H8        1.0  0.79660  0.77629  0.05347  1.0000
  H   H9        1.0  0.38067  0.90748  0.39306  1.0000
  H   H10       1.0  0.61933  0.09252  0.60694  1.0000
  H   H11       1.0  0.30525  0.79368  0.28105  1.0000
  H   H12       1.0  0.69475  0.20632  0.71895  1.0000
  C   C1        1.0  0.13265  0.69054  0.72377  1.0000
  C   C2        1.0  0.86735  0.30947  0.27623  1.0000
  C   C3        1.0  0.05881  0.59062  0.60756  1.0000
  C   C4        1.0  0.94119  0.40939  0.39243  1.0000
  C   C5        1.0  0.85125  0.61115  0.62281  1.0000
  C   C6        1.0  0.14875  0.38885  0.37719  1.0000
  C   C7        1.0  0.67570  0.73623  0.75363  1.0000
  C   C8        1.0  0.32430  0.26377  0.24637  1.0000
  N   N1        1.0  0.20273  0.47972  0.48661  1.0000
  N   N2        1.0  0.79727  0.52028  0.51339  1.0000
  O   O1        1.0  0.29031  0.74432  0.08085  1.0000
  O   O2        1.0  0.70969  0.25568  0.91915  1.0000
  O   O3        1.0  0.98480  0.83133  0.81203  1.0000
  O   O4        1.0  0.01520  0.16867  0.18797  1.0000
  O   O5        1.0  0.16922  0.15405  0.86523  1.0000
  O   O6        1.0  0.83078  0.84595  0.13477  1.0000
  O   O7        1.0  0.33098  0.62584  0.72426  1.0000
  O   O8        1.0  0.66902  0.37416  0.27574  1.0000
  O   O9        1.0  0.32589  0.80292  0.39760  1.0000
  O   O10       1.0  0.67411  0.19708  0.60240  1.0000
  O   O11       1.0  0.67484  0.65080  0.89653  1.0000
  O   O12       1.0  0.32516  0.34920  0.10348  1.0000
  O   O13       1.0  0.53754  0.91320  0.70306  1.0000
  O   O14       1.0  0.46246  0.08680  0.29694  1.0000
