data_image0
_chemical_formula_structural       Mn2H4C8N2O10
_chemical_formula_sum              "Mn2 H4 C8 N2 O10"
_cell_length_a       4.8809
_cell_length_b       6.6337
_cell_length_c       8.36054
_cell_angle_alpha    88.0249
_cell_angle_beta     103.307
_cell_angle_gamma    102.669

_space_group_name_H-M_alt    "P 1"
_space_group_IT_number       1

loop_
  _space_group_symop_operation_xyz
  'x, y, z'

loop_
  _atom_site_type_symbol
  _atom_site_label
  _atom_site_symmetry_multiplicity
  _atom_site_fract_x
  _atom_site_fract_y
  _atom_site_fract_z
  _atom_site_occupancy
  Mn  Mn1       1.0  0.50000  1.00000  0.50001  1.0000
  Mn  Mn2       1.0  0.00001  0.50000  1.00000  1.0000
  H   H1        1.0  0.26896  0.86928  0.84953  1.0000
  H   H2        1.0  0.73104  0.13072  0.15047  1.0000
  H   H3        1.0  0.50074  0.77488  0.98198  1.0000
  H   H4        1.0  0.49925  0.22512  0.01801  1.0000
  C   C1        1.0  0.09711  0.36681  0.61448  1.0000
  C   C2        1.0  0.90289  0.63319  0.38552  1.0000
  C   C3        1.0  0.42836  0.36718  0.30604  1.0000
  C   C4        1.0  0.57164  0.63282  0.69396  1.0000
  C   C5        1.0  0.73212  0.43791  0.40504  1.0000
  C   C6        1.0  0.26788  0.56209  0.59496  1.0000
  C   C7        1.0  0.19969  0.22082  0.74605  1.0000
  C   C8        1.0  0.80031  0.77918  0.25395  1.0000
  N   N1        1.0  0.83163  0.30665  0.51896  1.0000
  N   N2        1.0  0.16837  0.69335  0.48104  1.0000
  O   O1        1.0  0.32405  0.49940  0.21260  1.0000
  O   O2        1.0  0.67594  0.50060  0.78740  1.0000
  O   O3        1.0  0.29486  0.18509  0.32788  1.0000
  O   O4        1.0  0.70515  0.81491  0.67212  1.0000
  O   O5        1.0  0.29619  0.07314  0.70409  1.0000
  O   O6        1.0  0.70381  0.92685  0.29591  1.0000
  O   O7        1.0  0.17213  0.25231  0.88966  1.0000
  O   O8        1.0  0.82787  0.74769  0.11034  1.0000
  O   O9        1.0  0.29581  0.74924  0.92109  1.0000
  O   O10       1.0  0.70419  0.25076  0.07891  1.0000
