data_image0
_chemical_formula_structural       Cd2H30C48N4O10
_chemical_formula_sum              "Cd2 H30 C48 N4 O10"
_cell_length_a       7.62616
_cell_length_b       12.0835
_cell_length_c       12.3358
_cell_angle_alpha    80.4985
_cell_angle_beta     74.9146
_cell_angle_gamma    84.6558

_space_group_name_H-M_alt    "P 1"
_space_group_IT_number       1

loop_
  _space_group_symop_operation_xyz
  'x, y, z'

loop_
  _atom_site_type_symbol
  _atom_site_label
  _atom_site_symmetry_multiplicity
  _atom_site_fract_x
  _atom_site_fract_y
  _atom_site_fract_z
  _atom_site_occupancy
  Cd  Cd1       1.0  0.74081  0.03079  0.49575  1.0000
  Cd  Cd2       1.0  0.25920  0.96920  0.50425  1.0000
  H   H1        1.0  0.94281  0.07332  0.69220  1.0000
  H   H2        1.0  0.05718  0.92667  0.30780  1.0000
  H   H3        1.0  0.44910  0.91060  0.76178  1.0000
  H   H4        1.0  0.55089  0.08940  0.23823  1.0000
  H   H5        1.0  0.56833  0.88819  0.96003  1.0000
  H   H6        1.0  0.43167  0.11182  0.03998  1.0000
  H   H7        1.0  0.95254  0.79633  0.83664  1.0000
  H   H8        1.0  0.04748  0.20367  0.16335  1.0000
  H   H9        1.0  0.16588  0.64004  0.88078  1.0000
  H   H10       1.0  0.83412  0.35996  0.11922  1.0000
  H   H11       1.0  0.35003  0.65127  0.01832  1.0000
  H   H12       1.0  0.64997  0.34873  0.98168  1.0000
  H   H13       1.0  0.31938  0.81870  0.11333  1.0000
  H   H14       1.0  0.68063  0.18130  0.88667  1.0000
  H   H15       1.0  0.32920  0.21133  0.40635  1.0000
  H   H16       1.0  0.67080  0.78867  0.59365  1.0000
  H   H17       1.0  0.54661  0.35353  0.29752  1.0000
  H   H18       1.0  0.45339  0.64646  0.70248  1.0000
  H   H19       1.0  0.89789  0.40062  0.28133  1.0000
  H   H20       1.0  0.10211  0.59938  0.71867  1.0000
  H   H21       1.0  0.11582  0.54781  0.17427  1.0000
  H   H22       1.0  0.88418  0.45219  0.82573  1.0000
  H   H23       1.0  0.31879  0.57162  0.38214  1.0000
  H   H24       1.0  0.68121  0.42839  0.61786  1.0000
  H   H25       1.0  0.40691  0.72193  0.46943  1.0000
  H   H26       1.0  0.59309  0.27807  0.53057  1.0000
  H   H27       1.0  0.79726  0.83038  0.15784  1.0000
  H   H28       1.0  0.20274  0.16962  0.84216  1.0000
  H   H29       1.0  0.71226  0.67780  0.06865  1.0000
  H   H30       1.0  0.28774  0.32220  0.93134  1.0000
  C   C1        1.0  0.82189  0.02810  0.73563  1.0000
  C   C2        1.0  0.17811  0.97190  0.26437  1.0000
  C   C3        1.0  0.56944  0.94073  0.77618  1.0000
  C   C4        1.0  0.43054  0.05927  0.22383  1.0000
  C   C5        1.0  0.62503  0.92942  0.87488  1.0000
  C   C6        1.0  0.37497  0.07059  0.12513  1.0000
  C   C7        1.0  0.89499  0.99299  0.92410  1.0000
  C   C8        1.0  0.10501  0.00701  0.07590  1.0000
  C   C9        1.0  0.01287  0.90108  0.94845  1.0000
  C   C10       1.0  0.98714  0.09893  0.05154  1.0000
  C   C11       1.0  0.03168  0.80182  0.89713  1.0000
  C   C12       1.0  0.96832  0.19819  0.10287  1.0000
  C   C13       1.0  0.15082  0.71481  0.92178  1.0000
  C   C14       1.0  0.84918  0.28519  0.07821  1.0000
  C   C15       1.0  0.25607  0.72115  0.99991  1.0000
  C   C16       1.0  0.74393  0.27885  0.00009  1.0000
  C   C17       1.0  0.24018  0.81479  0.05226  1.0000
  C   C18       1.0  0.75982  0.18521  0.94774  1.0000
  C   C19       1.0  0.87919  0.09189  0.97262  1.0000
  C   C20       1.0  0.12081  0.90811  0.02737  1.0000
  C   C21       1.0  0.97291  0.20477  0.40875  1.0000
  C   C22       1.0  0.02709  0.79523  0.59125  1.0000
  C   C23       1.0  0.09980  0.29540  0.34912  1.0000
  C   C24       1.0  0.90019  0.70459  0.65088  1.0000
  C   C25       1.0  0.28209  0.28363  0.35435  1.0000
  C   C26       1.0  0.71790  0.71637  0.64565  1.0000
  C   C27       1.0  0.40453  0.36389  0.29394  1.0000
  C   C28       1.0  0.59547  0.63611  0.70606  1.0000
  C   C29       1.0  0.04032  0.39089  0.28388  1.0000
  C   C30       1.0  0.95968  0.60911  0.71612  1.0000
  C   C31       1.0  0.16117  0.47263  0.22392  1.0000
  C   C32       1.0  0.83883  0.52737  0.77609  1.0000
  C   C33       1.0  0.34290  0.45751  0.22895  1.0000
  C   C34       1.0  0.65710  0.54249  0.77104  1.0000
  C   C35       1.0  0.51075  0.61621  0.22022  1.0000
  C   C36       1.0  0.48924  0.38379  0.77978  1.0000
  C   C37       1.0  0.42427  0.62769  0.33308  1.0000
  C   C38       1.0  0.57572  0.37231  0.66691  1.0000
  C   C39       1.0  0.47406  0.71200  0.38178  1.0000
  C   C40       1.0  0.52594  0.28800  0.61822  1.0000
  C   C41       1.0  0.60804  0.78561  0.31898  1.0000
  C   C42       1.0  0.39196  0.21439  0.68102  1.0000
  C   C43       1.0  0.69342  0.77279  0.20596  1.0000
  C   C44       1.0  0.30658  0.22721  0.79404  1.0000
  C   C45       1.0  0.64621  0.68853  0.15627  1.0000
  C   C46       1.0  0.35378  0.31148  0.84373  1.0000
  C   C47       1.0  0.65713  0.87711  0.37066  1.0000
  C   C48       1.0  0.34288  0.12288  0.62933  1.0000
  N   N1        1.0  0.69373  0.00207  0.69033  1.0000
  N   N2        1.0  0.30627  0.99792  0.30967  1.0000
  N   N3        1.0  0.78555  0.98505  0.84786  1.0000
  N   N4        1.0  0.21445  0.01495  0.15214  1.0000
  O   O1        1.0  0.02068  0.12609  0.48051  1.0000
  O   O2        1.0  0.97932  0.87392  0.51950  1.0000
  O   O3        1.0  0.81934  0.20642  0.38498  1.0000
  O   O4        1.0  0.18066  0.79358  0.61501  1.0000
  O   O5        1.0  0.56641  0.88970  0.47318  1.0000
  O   O6        1.0  0.43359  0.11030  0.52681  1.0000
  O   O7        1.0  0.78299  0.94111  0.31692  1.0000
  O   O8        1.0  0.21701  0.05889  0.68308  1.0000
  O   O9        1.0  0.46690  0.53636  0.16494  1.0000
  O   O10       1.0  0.53310  0.46364  0.83506  1.0000
