data_image0
_chemical_formula_structural       Ca4H56C48N8O20
_chemical_formula_sum              "Ca4 H56 C48 N8 O20"
_cell_length_a       7.49971
_cell_length_b       11.1441
_cell_length_c       15.768
_cell_angle_alpha    90.0003
_cell_angle_beta     90.0016
_cell_angle_gamma    89.9985

_space_group_name_H-M_alt    "P 1"
_space_group_IT_number       1

loop_
  _space_group_symop_operation_xyz
  'x, y, z'

loop_
  _atom_site_type_symbol
  _atom_site_label
  _atom_site_symmetry_multiplicity
  _atom_site_fract_x
  _atom_site_fract_y
  _atom_site_fract_z
  _atom_site_occupancy
  Ca  Ca1       1.0  0.98928  0.79658  0.23196  1.0000
  Ca  Ca2       1.0  0.01071  0.29658  0.76804  1.0000
  Ca  Ca3       1.0  0.51071  0.29658  0.73194  1.0000
  Ca  Ca4       1.0  0.48928  0.79657  0.26805  1.0000
  H   H1        1.0  0.14858  0.39288  0.00582  1.0000
  H   H2        1.0  0.85142  0.89288  0.99420  1.0000
  H   H3        1.0  0.35142  0.89287  0.50581  1.0000
  H   H4        1.0  0.64856  0.39287  0.49417  1.0000
  H   H5        1.0  0.15146  0.48969  0.09056  1.0000
  H   H6        1.0  0.84853  0.98969  0.90946  1.0000
  H   H7        1.0  0.34855  0.98967  0.59056  1.0000
  H   H8        1.0  0.65143  0.48968  0.40943  1.0000
  H   H9        1.0  0.41411  0.58138  0.14425  1.0000
  H   H10       1.0  0.58591  0.08142  0.85579  1.0000
  H   H11       1.0  0.08591  0.08140  0.64424  1.0000
  H   H12       1.0  0.91408  0.58138  0.35574  1.0000
  H   H13       1.0  0.43164  0.32183  0.94024  1.0000
  H   H14       1.0  0.56832  0.82182  0.05976  1.0000
  H   H15       1.0  0.06836  0.82184  0.44024  1.0000
  H   H16       1.0  0.93164  0.32184  0.55975  1.0000
  H   H17       1.0  0.91420  0.48809  0.02900  1.0000
  H   H18       1.0  0.08580  0.98814  0.97099  1.0000
  H   H19       1.0  0.58581  0.98810  0.52902  1.0000
  H   H20       1.0  0.41417  0.48811  0.47099  1.0000
  H   H21       1.0  0.03109  0.22935  0.36933  1.0000
  H   H22       1.0  0.96895  0.72936  0.63068  1.0000
  H   H23       1.0  0.46894  0.72936  0.86933  1.0000
  H   H24       1.0  0.53106  0.22936  0.13069  1.0000
  H   H25       1.0  0.99244  0.07635  0.39796  1.0000
  H   H26       1.0  0.00760  0.57636  0.60203  1.0000
  H   H27       1.0  0.50757  0.57636  0.89796  1.0000
  H   H28       1.0  0.49244  0.07636  0.10204  1.0000
  H   H29       1.0  0.81186  0.17331  0.37267  1.0000
  H   H30       1.0  0.18818  0.67332  0.62732  1.0000
  H   H31       1.0  0.68816  0.67331  0.87269  1.0000
  H   H32       1.0  0.31185  0.17332  0.12732  1.0000
  H   H33       1.0  0.84782  0.32737  0.28538  1.0000
  H   H34       1.0  0.15219  0.82738  0.71462  1.0000
  H   H35       1.0  0.65217  0.82738  0.78538  1.0000
  H   H36       1.0  0.34779  0.32738  0.21462  1.0000
  H   H37       1.0  0.75986  0.33350  0.18080  1.0000
  H   H38       1.0  0.24013  0.83352  0.81920  1.0000
  H   H39       1.0  0.74011  0.83353  0.68081  1.0000
  H   H40       1.0  0.25989  0.33353  0.31921  1.0000
  H   H41       1.0  0.98471  0.37336  0.19865  1.0000
  H   H42       1.0  0.01527  0.87336  0.80135  1.0000
  H   H43       1.0  0.51525  0.87336  0.69866  1.0000
  H   H44       1.0  0.48474  0.37336  0.30134  1.0000
  H   H45       1.0  0.01671  0.06744  0.10990  1.0000
  H   H46       1.0  0.98331  0.56743  0.89009  1.0000
  H   H47       1.0  0.48332  0.56744  0.60990  1.0000
  H   H48       1.0  0.51669  0.06744  0.39010  1.0000
  H   H49       1.0  0.00733  0.22244  0.07809  1.0000
  H   H50       1.0  0.99266  0.72243  0.92190  1.0000
  H   H51       1.0  0.49270  0.72243  0.57809  1.0000
  H   H52       1.0  0.50732  0.22244  0.42191  1.0000
  H   H53       1.0  0.80820  0.13658  0.08775  1.0000
  H   H54       1.0  0.19181  0.63658  0.91226  1.0000
  H   H55       1.0  0.69183  0.63657  0.58776  1.0000
  H   H56       1.0  0.30819  0.13659  0.41226  1.0000
  C   C1        1.0  0.67519  0.54094  0.09394  1.0000
  C   C2        1.0  0.32481  0.04098  0.90608  1.0000
  C   C3        1.0  0.82481  0.04095  0.59394  1.0000
  C   C4        1.0  0.17516  0.54095  0.40605  1.0000
  C   C5        1.0  0.77708  0.62495  0.14963  1.0000
  C   C6        1.0  0.22295  0.12499  0.85037  1.0000
  C   C7        1.0  0.72294  0.12497  0.64963  1.0000
  C   C8        1.0  0.27705  0.62496  0.35035  1.0000
  C   C9        1.0  0.49037  0.52817  0.09895  1.0000
  C   C10       1.0  0.50964  0.02819  0.90107  1.0000
  C   C11       1.0  0.00965  0.02818  0.59894  1.0000
  C   C12       1.0  0.99034  0.52817  0.40104  1.0000
  C   C13       1.0  0.40022  0.44635  0.04559  1.0000
  C   C14       1.0  0.59979  0.94636  0.95443  1.0000
  C   C15       1.0  0.09980  0.94636  0.54558  1.0000
  C   C16       1.0  0.90019  0.44636  0.45441  1.0000
  C   C17       1.0  0.49928  0.38238  0.98415  1.0000
  C   C18       1.0  0.50070  0.88239  0.01586  1.0000
  C   C19       1.0  0.00072  0.88239  0.48415  1.0000
  C   C20       1.0  0.99928  0.38239  0.51584  1.0000
  C   C21       1.0  0.68414  0.39792  0.97868  1.0000
  C   C22       1.0  0.31584  0.89793  0.02132  1.0000
  C   C23       1.0  0.81586  0.89793  0.47868  1.0000
  C   C24       1.0  0.18414  0.39793  0.52131  1.0000
  C   C25       1.0  0.77178  0.47507  0.03447  1.0000
  C   C26       1.0  0.22822  0.97509  0.96554  1.0000
  C   C27       1.0  0.72822  0.97508  0.53447  1.0000
  C   C28       1.0  0.27176  0.47508  0.46552  1.0000
  C   C29       1.0  0.96443  0.10809  0.26588  1.0000
  C   C30       1.0  0.03563  0.60811  0.73412  1.0000
  C   C31       1.0  0.53561  0.60811  0.76588  1.0000
  C   C32       1.0  0.46438  0.10810  0.23413  1.0000
  C   C33       1.0  0.79452  0.34174  0.91040  1.0000
  C   C34       1.0  0.20545  0.84175  0.08960  1.0000
  C   C35       1.0  0.70546  0.84174  0.41041  1.0000
  C   C36       1.0  0.29453  0.34175  0.58959  1.0000
  C   C37       1.0  0.94989  0.14953  0.35657  1.0000
  C   C38       1.0  0.05016  0.64955  0.64342  1.0000
  C   C39       1.0  0.55013  0.64954  0.85658  1.0000
  C   C40       1.0  0.44987  0.14954  0.14343  1.0000
  C   C41       1.0  0.87839  0.31174  0.21857  1.0000
  C   C42       1.0  0.12161  0.81174  0.78143  1.0000
  C   C43       1.0  0.62159  0.81175  0.71858  1.0000
  C   C44       1.0  0.37840  0.31175  0.28143  1.0000
  C   C45       1.0  0.94173  0.15123  0.11465  1.0000
  C   C46       1.0  0.05828  0.65123  0.88534  1.0000
  C   C47       1.0  0.55830  0.65123  0.61466  1.0000
  C   C48       1.0  0.44172  0.15124  0.38535  1.0000
  N   N1        1.0  0.21947  0.42788  0.05550  1.0000
  N   N2        1.0  0.78053  0.92789  0.94452  1.0000
  N   N3        1.0  0.28054  0.92787  0.55550  1.0000
  N   N4        1.0  0.71945  0.42789  0.44449  1.0000
  N   N5        1.0  0.92963  0.18740  0.20344  1.0000
  N   N6        1.0  0.07040  0.68740  0.79655  1.0000
  N   N7        1.0  0.57039  0.68741  0.70345  1.0000
  N   N8        1.0  0.42959  0.18741  0.29656  1.0000
  O   O1        1.0  0.93758  0.60065  0.16863  1.0000
  O   O2        1.0  0.06246  0.10067  0.83135  1.0000
  O   O3        1.0  0.56245  0.10066  0.66864  1.0000
  O   O4        1.0  0.43754  0.60064  0.33134  1.0000
  O   O5        1.0  0.70052  0.72197  0.17510  1.0000
  O   O6        1.0  0.29949  0.22200  0.82491  1.0000
  O   O7        1.0  0.79948  0.22199  0.67509  1.0000
  O   O8        1.0  0.20052  0.72198  0.32491  1.0000
  O   O9        1.0  0.71831  0.29994  0.84375  1.0000
  O   O10       1.0  0.28166  0.79993  0.15625  1.0000
  O   O11       1.0  0.78166  0.79993  0.34375  1.0000
  O   O12       1.0  0.21834  0.29994  0.65626  1.0000
  O   O13       1.0  0.00857  0.00154  0.24931  1.0000
  O   O14       1.0  0.99148  0.50154  0.75067  1.0000
  O   O15       1.0  0.49148  0.50154  0.74932  1.0000
  O   O16       1.0  0.50852  0.00154  0.25069  1.0000
  O   O17       1.0  0.96365  0.34209  0.91773  1.0000
  O   O18       1.0  0.03632  0.84208  0.08226  1.0000
  O   O19       1.0  0.53634  0.84207  0.41775  1.0000
  O   O20       1.0  0.46365  0.34207  0.58225  1.0000
