data_image0
_chemical_formula_structural       Cu4H24C20Br4N8
_chemical_formula_sum              "Cu4 H24 C20 Br4 N8"
_cell_length_a       3.94226
_cell_length_b       10.7355
_cell_length_c       15.4493
_cell_angle_alpha    89.9962
_cell_angle_beta     89.9997
_cell_angle_gamma    90.0019

_space_group_name_H-M_alt    "P 1"
_space_group_IT_number       1

loop_
  _space_group_symop_operation_xyz
  'x, y, z'

loop_
  _atom_site_type_symbol
  _atom_site_label
  _atom_site_symmetry_multiplicity
  _atom_site_fract_x
  _atom_site_fract_y
  _atom_site_fract_z
  _atom_site_occupancy
  Cu  Cu1       1.0  0.81833  0.51316  0.80561  1.0000
  Cu  Cu2       1.0  0.31820  0.48692  0.69437  1.0000
  Cu  Cu3       1.0  0.18168  0.98683  0.30561  1.0000
  Cu  Cu4       1.0  0.68180  0.01310  0.19439  1.0000
  H   H1        1.0  0.68384  0.70259  0.93798  1.0000
  H   H2        1.0  0.18359  0.29743  0.56203  1.0000
  H   H3        1.0  0.31616  0.79741  0.43800  1.0000
  H   H4        1.0  0.81641  0.20257  0.06203  1.0000
  H   H5        1.0  0.80184  0.73520  0.09491  1.0000
  H   H6        1.0  0.30169  0.26474  0.40509  1.0000
  H   H7        1.0  0.19817  0.76478  0.59494  1.0000
  H   H8        1.0  0.69831  0.23527  0.90509  1.0000
  H   H9        1.0  0.30320  0.51744  0.22467  1.0000
  H   H10       1.0  0.80326  0.48250  0.27532  1.0000
  H   H11       1.0  0.69677  0.98258  0.72466  1.0000
  H   H12       1.0  0.19674  0.01750  0.77536  1.0000
  H   H13       1.0  0.11562  0.66077  0.21921  1.0000
  H   H14       1.0  0.61558  0.33913  0.28080  1.0000
  H   H15       1.0  0.88437  0.83922  0.71922  1.0000
  H   H16       1.0  0.38438  0.16088  0.78081  1.0000
  H   H17       1.0  0.29777  0.37534  0.09582  1.0000
  H   H18       1.0  0.79783  0.62463  0.40415  1.0000
  H   H19       1.0  0.70220  0.12467  0.59580  1.0000
  H   H20       1.0  0.20224  0.87536  0.90418  1.0000
  H   H21       1.0  0.17024  0.36053  0.93905  1.0000
  H   H22       1.0  0.67011  0.63947  0.56092  1.0000
  H   H23       1.0  0.82976  0.13945  0.43902  1.0000
  H   H24       1.0  0.32994  0.86052  0.06096  1.0000
  C   C1        1.0  0.82200  0.63281  0.97537  1.0000
  C   C2        1.0  0.32183  0.36720  0.52464  1.0000
  C   C3        1.0  0.17797  0.86719  0.47536  1.0000
  C   C4        1.0  0.67818  0.13281  0.02466  1.0000
  C   C5        1.0  0.88754  0.65081  0.06232  1.0000
  C   C6        1.0  0.38740  0.34915  0.43769  1.0000
  C   C7        1.0  0.11245  0.84919  0.56232  1.0000
  C   C8        1.0  0.61262  0.15085  0.93769  1.0000
  C   C9        1.0  0.06037  0.55789  0.10946  1.0000
  C   C10       1.0  0.56037  0.44206  0.39054  1.0000
  C   C11       1.0  0.93959  0.94210  0.60945  1.0000
  C   C12       1.0  0.43964  0.05795  0.89056  1.0000
  C   C13       1.0  0.16034  0.45034  0.06359  1.0000
  C   C14       1.0  0.66031  0.54964  0.43641  1.0000
  C   C15       1.0  0.83965  0.04968  0.56357  1.0000
  C   C16       1.0  0.33975  0.95035  0.93643  1.0000
  C   C17       1.0  0.08781  0.44154  0.97615  1.0000
  C   C18       1.0  0.58773  0.55844  0.52385  1.0000
  C   C19       1.0  0.91214  0.05844  0.47612  1.0000
  C   C20       1.0  0.41229  0.94156  0.02388  1.0000
  Br  Br1       1.0  0.41954  0.67954  0.76563  1.0000
  Br  Br2       1.0  0.91946  0.32052  0.73435  1.0000
  Br  Br3       1.0  0.58029  0.82043  0.26560  1.0000
  Br  Br4       1.0  0.08064  0.17948  0.23433  1.0000
  N   N1        1.0  0.91861  0.53000  0.93121  1.0000
  N   N2        1.0  0.41841  0.47001  0.56881  1.0000
  N   N3        1.0  0.08141  0.96999  0.43118  1.0000
  N   N4        1.0  0.58163  0.02998  0.06883  1.0000
  N   N5        1.0  0.11916  0.57154  0.19636  1.0000
  N   N6        1.0  0.61919  0.42838  0.30364  1.0000
  N   N7        1.0  0.88081  0.92848  0.69636  1.0000
  N   N8        1.0  0.38081  0.07162  0.80365  1.0000
