data_image0
_chemical_formula_structural       Zn4H28C36N4O28
_chemical_formula_sum              "Zn4 H28 C36 N4 O28"
_cell_length_a       5.19007
_cell_length_b       9.31881
_cell_length_c       21.3237
_cell_angle_alpha    90
_cell_angle_beta     90.0002
_cell_angle_gamma    103.202

_space_group_name_H-M_alt    "P 1"
_space_group_IT_number       1

loop_
  _space_group_symop_operation_xyz
  'x, y, z'

loop_
  _atom_site_type_symbol
  _atom_site_label
  _atom_site_symmetry_multiplicity
  _atom_site_fract_x
  _atom_site_fract_y
  _atom_site_fract_z
  _atom_site_occupancy
  Zn  Zn1       1.0  0.42544  0.26589  0.37418  1.0000
  Zn  Zn2       1.0  0.07458  0.23411  0.87418  1.0000
  Zn  Zn3       1.0  0.57457  0.73410  0.62582  1.0000
  Zn  Zn4       1.0  0.92540  0.76588  0.12582  1.0000
  H   H1        1.0  0.24626  0.38369  0.47968  1.0000
  H   H2        1.0  0.25375  0.11632  0.97969  1.0000
  H   H3        1.0  0.75375  0.61632  0.52031  1.0000
  H   H4        1.0  0.74625  0.88367  0.02031  1.0000
  H   H5        1.0  0.02877  0.25403  0.44817  1.0000
  H   H6        1.0  0.47124  0.24600  0.94817  1.0000
  H   H7        1.0  0.97124  0.74598  0.55183  1.0000
  H   H8        1.0  0.52875  0.75400  0.05183  1.0000
  H   H9        1.0  0.28523  0.35410  0.18402  1.0000
  H   H10       1.0  0.21477  0.14588  0.68402  1.0000
  H   H11       1.0  0.71477  0.64588  0.81598  1.0000
  H   H12       1.0  0.78522  0.85412  0.31599  1.0000
  H   H13       1.0  0.57375  0.02647  0.22618  1.0000
  H   H14       1.0  0.92624  0.47352  0.72618  1.0000
  H   H15       1.0  0.42624  0.97353  0.77382  1.0000
  H   H16       1.0  0.07375  0.52648  0.27382  1.0000
  H   H17       1.0  0.74345  0.21310  0.04063  1.0000
  H   H18       1.0  0.75654  0.28690  0.54063  1.0000
  H   H19       1.0  0.25655  0.78691  0.95937  1.0000
  H   H20       1.0  0.24346  0.71310  0.45937  1.0000
  H   H21       1.0  0.16782  0.34565  0.02044  1.0000
  H   H22       1.0  0.33217  0.15434  0.52044  1.0000
  H   H23       1.0  0.83218  0.65435  0.97956  1.0000
  H   H24       1.0  0.66783  0.84565  0.47957  1.0000
  H   H25       1.0  0.39651  0.40461  0.08241  1.0000
  H   H26       1.0  0.10348  0.09538  0.58240  1.0000
  H   H27       1.0  0.60348  0.59539  0.91759  1.0000
  H   H28       1.0  0.89652  0.90461  0.41760  1.0000
  C   C1        1.0  0.09931  0.27979  0.17091  1.0000
  C   C2        1.0  0.40072  0.22019  0.67091  1.0000
  C   C3        1.0  0.90070  0.72021  0.82909  1.0000
  C   C4        1.0  0.59929  0.77981  0.32909  1.0000
  C   C5        1.0  0.94206  0.18637  0.21347  1.0000
  C   C6        1.0  0.55794  0.31362  0.71348  1.0000
  C   C7        1.0  0.05794  0.81362  0.78652  1.0000
  C   C8        1.0  0.44205  0.68639  0.28652  1.0000
  C   C9        1.0  0.69950  0.10023  0.19340  1.0000
  C   C10       1.0  0.80047  0.39977  0.69339  1.0000
  C   C11       1.0  0.30048  0.89976  0.80660  1.0000
  C   C12       1.0  0.19952  0.60024  0.30661  1.0000
  C   C13       1.0  0.62103  0.10792  0.13085  1.0000
  C   C14       1.0  0.87896  0.39207  0.63085  1.0000
  C   C15       1.0  0.37896  0.89208  0.86915  1.0000
  C   C16       1.0  0.12104  0.60793  0.36915  1.0000
  C   C17       1.0  0.78819  0.20164  0.09000  1.0000
  C   C18       1.0  0.71183  0.29835  0.59001  1.0000
  C   C19       1.0  0.21181  0.79836  0.90999  1.0000
  C   C20       1.0  0.28818  0.70165  0.41000  1.0000
  C   C21       1.0  0.04244  0.17861  0.27965  1.0000
  C   C22       1.0  0.45753  0.32137  0.77966  1.0000
  C   C23       1.0  0.95756  0.82138  0.72034  1.0000
  C   C24       1.0  0.54247  0.67863  0.22034  1.0000
  C   C25       1.0  0.36328  0.01375  0.10643  1.0000
  C   C26       1.0  0.13673  0.48625  0.60643  1.0000
  C   C27       1.0  0.63672  0.98625  0.89357  1.0000
  C   C28       1.0  0.86326  0.51376  0.39357  1.0000
  C   C29       1.0  0.18928  0.39012  0.06812  1.0000
  C   C30       1.0  0.31072  0.10987  0.56812  1.0000
  C   C31       1.0  0.81072  0.60988  0.93188  1.0000
  C   C32       1.0  0.68929  0.89012  0.43189  1.0000
  C   C33       1.0  0.12315  0.54167  0.06921  1.0000
  C   C34       1.0  0.37685  0.95834  0.56920  1.0000
  C   C35       1.0  0.87685  0.45833  0.93080  1.0000
  C   C36       1.0  0.62316  0.04167  0.43080  1.0000
  N   N1        1.0  0.02114  0.28504  0.11070  1.0000
  N   N2        1.0  0.47889  0.21495  0.61071  1.0000
  N   N3        1.0  0.97888  0.71496  0.88929  1.0000
  N   N4        1.0  0.52112  0.78505  0.38930  1.0000
  O   O1        1.0  0.26996  0.26659  0.29005  1.0000
  O   O2        1.0  0.23005  0.23340  0.79006  1.0000
  O   O3        1.0  0.73004  0.73340  0.70994  1.0000
  O   O4        1.0  0.76994  0.76660  0.20994  1.0000
  O   O5        1.0  0.90817  0.09144  0.31771  1.0000
  O   O6        1.0  0.59180  0.40857  0.81770  1.0000
  O   O7        1.0  0.09183  0.90856  0.68229  1.0000
  O   O8        1.0  0.40820  0.59143  0.18230  1.0000
  O   O9        1.0  0.25471  0.91021  0.14422  1.0000
  O   O10       1.0  0.24530  0.58978  0.64423  1.0000
  O   O11       1.0  0.74528  0.08979  0.85578  1.0000
  O   O12       1.0  0.75471  0.41022  0.35577  1.0000
  O   O13       1.0  0.27427  0.04150  0.05433  1.0000
  O   O14       1.0  0.22573  0.45850  0.55433  1.0000
  O   O15       1.0  0.72574  0.95850  0.94567  1.0000
  O   O16       1.0  0.77426  0.54150  0.44567  1.0000
  O   O17       1.0  0.93237  0.55862  0.10387  1.0000
  O   O18       1.0  0.56764  0.94138  0.60387  1.0000
  O   O19       1.0  0.06762  0.44138  0.89613  1.0000
  O   O20       1.0  0.43237  0.05863  0.39614  1.0000
  O   O21       1.0  0.26313  0.63766  0.03435  1.0000
  O   O22       1.0  0.23685  0.86234  0.53435  1.0000
  O   O23       1.0  0.73686  0.36234  0.96566  1.0000
  O   O24       1.0  0.76317  0.13766  0.46565  1.0000
  O   O25       1.0  0.20072  0.32663  0.44049  1.0000
  O   O26       1.0  0.29928  0.17340  0.94050  1.0000
  O   O27       1.0  0.79929  0.67338  0.55951  1.0000
  O   O28       1.0  0.70072  0.82660  0.05950  1.0000
