data_image0
_chemical_formula_structural       Cu4H32C48N16
_chemical_formula_sum              "Cu4 H32 C48 N16"
_cell_length_a       8.0115
_cell_length_b       8.89314
_cell_length_c       16.3694
_cell_angle_alpha    90.0041
_cell_angle_beta     89.9934
_cell_angle_gamma    114.378

_space_group_name_H-M_alt    "P 1"
_space_group_IT_number       1

loop_
  _space_group_symop_operation_xyz
  'x, y, z'

loop_
  _atom_site_type_symbol
  _atom_site_label
  _atom_site_symmetry_multiplicity
  _atom_site_fract_x
  _atom_site_fract_y
  _atom_site_fract_z
  _atom_site_occupancy
  Cu  Cu1       1.0  0.47639  0.32989  0.14911  1.0000
  Cu  Cu2       1.0  0.02357  0.67006  0.64906  1.0000
  Cu  Cu3       1.0  0.52353  0.67008  0.85092  1.0000
  Cu  Cu4       1.0  0.97635  0.32991  0.35091  1.0000
  H   H1        1.0  0.58194  0.17667  0.99879  1.0000
  H   H2        1.0  0.91806  0.82336  0.49884  1.0000
  H   H3        1.0  0.41801  0.82337  0.00118  1.0000
  H   H4        1.0  0.08188  0.17666  0.50119  1.0000
  H   H5        1.0  0.79104  0.27964  0.88045  1.0000
  H   H6        1.0  0.70900  0.72035  0.38050  1.0000
  H   H7        1.0  0.20899  0.72038  0.11954  1.0000
  H   H8        1.0  0.29102  0.27966  0.61951  1.0000
  H   H9        1.0  0.97748  0.58875  0.86567  1.0000
  H   H10       1.0  0.52257  0.41123  0.36571  1.0000
  H   H11       1.0  0.02254  0.41126  0.13433  1.0000
  H   H12       1.0  0.47745  0.58877  0.63429  1.0000
  H   H13       1.0  0.94877  0.77430  0.97380  1.0000
  H   H14       1.0  0.55131  0.22569  0.47383  1.0000
  H   H15       1.0  0.05129  0.22572  0.02620  1.0000
  H   H16       1.0  0.44876  0.77430  0.52617  1.0000
  H   H17       1.0  0.89727  0.91308  0.06173  1.0000
  H   H18       1.0  0.60268  0.08694  0.56175  1.0000
  H   H19       1.0  0.10270  0.08694  0.93826  1.0000
  H   H20       1.0  0.39728  0.91308  0.43827  1.0000
  H   H21       1.0  0.81925  0.06446  0.17337  1.0000
  H   H22       1.0  0.68068  0.93555  0.67337  1.0000
  H   H23       1.0  0.18070  0.93555  0.82661  1.0000
  H   H24       1.0  0.31928  0.06446  0.32664  1.0000
  H   H25       1.0  0.58864  0.90151  0.27889  1.0000
  H   H26       1.0  0.91130  0.09850  0.77887  1.0000
  H   H27       1.0  0.41133  0.09849  0.72110  1.0000
  H   H28       1.0  0.08868  0.90151  0.22115  1.0000
  H   H29       1.0  0.44272  0.59257  0.26666  1.0000
  H   H30       1.0  0.05740  0.40744  0.76661  1.0000
  H   H31       1.0  0.55740  0.40743  0.73337  1.0000
  H   H32       1.0  0.94273  0.59258  0.23336  1.0000
  C   C1        1.0  0.32551  0.11884  0.09871  1.0000
  C   C2        1.0  0.17452  0.88101  0.59860  1.0000
  C   C3        1.0  0.67451  0.88103  0.90140  1.0000
  C   C4        1.0  0.82549  0.11885  0.40130  1.0000
  C   C5        1.0  0.78988  0.30127  0.26867  1.0000
  C   C6        1.0  0.71002  0.69879  0.76865  1.0000
  C   C7        1.0  0.20999  0.69876  0.73135  1.0000
  C   C8        1.0  0.28986  0.30125  0.23133  1.0000
  C   C9        1.0  0.66341  0.30835  0.99040  1.0000
  C   C10       1.0  0.83657  0.69167  0.49044  1.0000
  C   C11       1.0  0.33655  0.69167  0.00958  1.0000
  C   C12       1.0  0.16339  0.30835  0.50958  1.0000
  C   C13       1.0  0.78096  0.36803  0.92389  1.0000
  C   C14       1.0  0.71905  0.63197  0.42394  1.0000
  C   C15       1.0  0.21905  0.63198  0.07609  1.0000
  C   C16       1.0  0.28093  0.36804  0.57607  1.0000
  C   C17       1.0  0.88368  0.53749  0.91670  1.0000
  C   C18       1.0  0.61637  0.46249  0.41673  1.0000
  C   C19       1.0  0.11634  0.46251  0.08330  1.0000
  C   C20       1.0  0.38364  0.53751  0.58328  1.0000
  C   C21       1.0  0.86679  0.64193  0.97641  1.0000
  C   C22       1.0  0.63328  0.35807  0.47642  1.0000
  C   C23       1.0  0.13324  0.35809  0.02359  1.0000
  C   C24       1.0  0.36675  0.64193  0.52358  1.0000
  C   C25       1.0  0.79706  0.84603  0.10788  1.0000
  C   C26       1.0  0.70297  0.15398  0.60788  1.0000
  C   C27       1.0  0.20297  0.15398  0.89212  1.0000
  C   C28       1.0  0.29705  0.84603  0.39212  1.0000
  C   C29       1.0  0.75382  0.93020  0.17019  1.0000
  C   C30       1.0  0.74617  0.06981  0.67017  1.0000
  C   C31       1.0  0.24617  0.06980  0.82981  1.0000
  C   C32       1.0  0.25382  0.93020  0.32983  1.0000
  C   C33       1.0  0.62517  0.84032  0.22884  1.0000
  C   C34       1.0  0.87483  0.15969  0.72882  1.0000
  C   C35       1.0  0.37485  0.15969  0.77116  1.0000
  C   C36       1.0  0.12519  0.84031  0.27118  1.0000
  C   C37       1.0  0.54521  0.66881  0.22293  1.0000
  C   C38       1.0  0.95485  0.33120  0.72290  1.0000
  C   C39       1.0  0.45486  0.33120  0.77709  1.0000
  C   C40       1.0  0.04522  0.66880  0.27708  1.0000
  C   C41       1.0  0.74404  0.57415  0.04093  1.0000
  C   C42       1.0  0.75600  0.42585  0.54095  1.0000
  C   C43       1.0  0.25599  0.42587  0.95906  1.0000
  C   C44       1.0  0.24401  0.57415  0.45906  1.0000
  C   C45       1.0  0.71100  0.67353  0.10552  1.0000
  C   C46       1.0  0.78907  0.32649  0.60552  1.0000
  C   C47       1.0  0.28906  0.32649  0.89448  1.0000
  C   C48       1.0  0.21098  0.67352  0.39448  1.0000
  N   N1        1.0  0.22700  0.99488  0.06750  1.0000
  N   N2        1.0  0.27309  0.00505  0.56747  1.0000
  N   N3        1.0  0.77308  0.00503  0.93255  1.0000
  N   N4        1.0  0.72698  0.99485  0.43247  1.0000
  N   N5        1.0  0.67628  0.29137  0.22111  1.0000
  N   N6        1.0  0.82361  0.70868  0.72107  1.0000
  N   N7        1.0  0.32355  0.70864  0.77892  1.0000
  N   N8        1.0  0.17623  0.29132  0.27890  1.0000
  N   N9        1.0  0.64415  0.40891  0.04697  1.0000
  N   N10       1.0  0.85585  0.59111  0.54701  1.0000
  N   N11       1.0  0.35581  0.59111  0.95300  1.0000
  N   N12       1.0  0.14411  0.40890  0.45302  1.0000
  N   N13       1.0  0.58700  0.58700  0.16312  1.0000
  N   N14       1.0  0.91310  0.41305  0.66310  1.0000
  N   N15       1.0  0.41309  0.41303  0.83689  1.0000
  N   N16       1.0  0.08698  0.58698  0.33689  1.0000
