data_image0
_chemical_formula_structural       Cu2P2H22C27N2
_chemical_formula_sum              "Cu2 P2 H22 C27 N2"
_cell_length_a       8.17446
_cell_length_b       9.10043
_cell_length_c       9.35013
_cell_angle_alpha    105.107
_cell_angle_beta     115.899
_cell_angle_gamma    89.9908

_space_group_name_H-M_alt    "P 1"
_space_group_IT_number       1

loop_
  _space_group_symop_operation_xyz
  'x, y, z'

loop_
  _atom_site_type_symbol
  _atom_site_label
  _atom_site_symmetry_multiplicity
  _atom_site_fract_x
  _atom_site_fract_y
  _atom_site_fract_z
  _atom_site_occupancy
  Cu  Cu1       1.0  0.79230  0.03296  0.35660  1.0000
  Cu  Cu2       1.0  0.43572  0.96694  0.64350  1.0000
  P   P1        1.0  0.62778  0.86752  0.83709  1.0000
  P   P2        1.0  0.79080  0.13261  0.16312  1.0000
  H   H1        1.0  0.88274  0.06443  0.93820  1.0000
  H   H2        1.0  0.94459  0.93563  0.06174  1.0000
  H   H3        1.0  0.45963  0.17560  0.19510  1.0000
  H   H4        1.0  0.26455  0.82441  0.80460  1.0000
  H   H5        1.0  0.17106  0.27411  0.03639  1.0000
  H   H6        1.0  0.13406  0.72582  0.96293  1.0000
  H   H7        1.0  0.13255  0.35710  0.79128  1.0000
  H   H8        1.0  0.34012  0.64278  0.20817  1.0000
  H   H9        1.0  0.38145  0.34348  0.70596  1.0000
  H   H10       1.0  0.67441  0.65642  0.29392  1.0000
  H   H11       1.0  0.67320  0.25362  0.86898  1.0000
  H   H12       1.0  0.80363  0.74639  0.13126  1.0000
  H   H13       1.0  0.82120  0.46467  0.17294  1.0000
  H   H14       1.0  0.64838  0.53560  0.82731  1.0000
  H   H15       1.0  0.09155  0.66598  0.31048  1.0000
  H   H16       1.0  0.78115  0.33413  0.68976  1.0000
  H   H17       1.0  0.40498  0.60029  0.46121  1.0000
  H   H18       1.0  0.94387  0.39953  0.53885  1.0000
  H   H19       1.0  0.44753  0.33097  0.47033  1.0000
  H   H20       1.0  0.97764  0.66885  0.52985  1.0000
  H   H21       1.0  0.18038  0.13256  0.34201  1.0000
  H   H22       1.0  0.83898  0.86749  0.65828  1.0000
  C   C1        1.0  0.64535  0.04797  0.46620  1.0000
  C   C2        1.0  0.17925  0.95187  0.53376  1.0000
  C   C3        1.0  0.83457  0.00007  0.00007  1.0000
  C   C4        1.0  0.58549  0.20923  0.04402  1.0000
  C   C5        1.0  0.54126  0.79084  0.95602  1.0000
  C   C6        1.0  0.44268  0.21468  0.08918  1.0000
  C   C7        1.0  0.35324  0.78533  0.91059  1.0000
  C   C8        1.0  0.28016  0.26811  0.99850  1.0000
  C   C9        1.0  0.28107  0.73189  0.00108  1.0000
  C   C10       1.0  0.25883  0.31489  0.86152  1.0000
  C   C11       1.0  0.39639  0.68506  0.13813  1.0000
  C   C12       1.0  0.39959  0.30843  0.81428  1.0000
  C   C13       1.0  0.58442  0.69151  0.18558  1.0000
  C   C14       1.0  0.56282  0.25615  0.90507  1.0000
  C   C15       1.0  0.65716  0.74385  0.09500  1.0000
  C   C16       1.0  0.98173  0.28493  0.24714  1.0000
  C   C17       1.0  0.73490  0.71525  0.75312  1.0000
  C   C18       1.0  0.95846  0.43536  0.23791  1.0000
  C   C19       1.0  0.72073  0.56481  0.76231  1.0000
  C   C20       1.0  0.11050  0.54825  0.31456  1.0000
  C   C21       1.0  0.79612  0.45182  0.68564  1.0000
  C   C22       1.0  0.28645  0.51176  0.39963  1.0000
  C   C23       1.0  0.88702  0.48816  0.60047  1.0000
  C   C24       1.0  0.31069  0.36127  0.40630  1.0000
  C   C25       1.0  0.90473  0.63865  0.59387  1.0000
  C   C26       1.0  0.15952  0.24846  0.33167  1.0000
  C   C27       1.0  0.82826  0.75158  0.66857  1.0000
  N   N1        1.0  0.56438  0.04629  0.54360  1.0000
  N   N2        1.0  0.02092  0.95364  0.45633  1.0000
