data_image0
_chemical_formula_structural       K4H44C40O12F48
_chemical_formula_sum              "K4 H44 C40 O12 F48"
_cell_length_a       8.00386
_cell_length_b       13.7891
_cell_length_c       14.4904
_cell_angle_alpha    90
_cell_angle_beta     90
_cell_angle_gamma    93.4872

_space_group_name_H-M_alt    "P 1"
_space_group_IT_number       1

loop_
  _space_group_symop_operation_xyz
  'x, y, z'

loop_
  _atom_site_type_symbol
  _atom_site_label
  _atom_site_symmetry_multiplicity
  _atom_site_fract_x
  _atom_site_fract_y
  _atom_site_fract_z
  _atom_site_occupancy
  K   K1        1.0  0.65554  0.39560  0.53493  1.0000
  K   K2        1.0  0.34446  0.10440  0.03493  1.0000
  K   K3        1.0  0.34446  0.60440  0.46507  1.0000
  K   K4        1.0  0.65554  0.89560  0.96507  1.0000
  H   H1        1.0  0.68838  0.07143  0.47146  1.0000
  H   H2        1.0  0.31162  0.42857  0.97146  1.0000
  H   H3        1.0  0.31162  0.92857  0.52854  1.0000
  H   H4        1.0  0.68838  0.57143  0.02853  1.0000
  H   H5        1.0  0.63279  0.08875  0.58934  1.0000
  H   H6        1.0  0.36721  0.41125  0.08934  1.0000
  H   H7        1.0  0.36721  0.91125  0.41066  1.0000
  H   H8        1.0  0.63279  0.58875  0.91066  1.0000
  H   H9        1.0  0.94455  0.10992  0.56417  1.0000
  H   H10       1.0  0.05545  0.39008  0.06417  1.0000
  H   H11       1.0  0.05546  0.89008  0.43583  1.0000
  H   H12       1.0  0.94455  0.60992  0.93583  1.0000
  H   H13       1.0  0.86548  0.21872  0.60548  1.0000
  H   H14       1.0  0.13451  0.28128  0.10548  1.0000
  H   H15       1.0  0.13452  0.78128  0.39452  1.0000
  H   H16       1.0  0.86549  0.71872  0.89452  1.0000
  H   H17       1.0  0.91469  0.20679  0.48613  1.0000
  H   H18       1.0  0.08531  0.29320  0.98613  1.0000
  H   H19       1.0  0.08531  0.79321  0.51387  1.0000
  H   H20       1.0  0.91469  0.70679  0.01387  1.0000
  H   H21       1.0  0.35147  0.13289  0.53114  1.0000
  H   H22       1.0  0.64853  0.36711  0.03114  1.0000
  H   H23       1.0  0.64853  0.86711  0.46886  1.0000
  H   H24       1.0  0.35147  0.63289  0.96886  1.0000
  H   H25       1.0  0.43217  0.10821  0.41931  1.0000
  H   H26       1.0  0.56783  0.39179  0.91931  1.0000
  H   H27       1.0  0.56783  0.89179  0.58069  1.0000
  H   H28       1.0  0.43217  0.60821  0.08069  1.0000
  H   H29       1.0  0.19848  0.22233  0.41273  1.0000
  H   H30       1.0  0.80152  0.27767  0.91273  1.0000
  H   H31       1.0  0.80152  0.77767  0.58727  1.0000
  H   H32       1.0  0.19848  0.72233  0.08727  1.0000
  H   H33       1.0  0.38803  0.27797  0.36915  1.0000
  H   H34       1.0  0.61197  0.22203  0.86915  1.0000
  H   H35       1.0  0.61197  0.72203  0.63085  1.0000
  H   H36       1.0  0.38803  0.77797  0.13085  1.0000
  H   H37       1.0  0.31569  0.30705  0.48211  1.0000
  H   H38       1.0  0.68431  0.19295  0.98211  1.0000
  H   H39       1.0  0.68431  0.69296  0.51789  1.0000
  H   H40       1.0  0.31569  0.80705  0.01789  1.0000
  H   H41       1.0  0.12176  0.41223  0.55719  1.0000
  H   H42       1.0  0.87824  0.08777  0.05719  1.0000
  H   H43       1.0  0.87824  0.58777  0.44281  1.0000
  H   H44       1.0  0.12176  0.91223  0.94281  1.0000
  C   C1        1.0  0.27244  0.44802  0.67230  1.0000
  C   C2        1.0  0.72756  0.05198  0.17230  1.0000
  C   C3        1.0  0.72756  0.55198  0.32770  1.0000
  C   C4        1.0  0.27244  0.94802  0.82770  1.0000
  C   C5        1.0  0.32269  0.34534  0.70962  1.0000
  C   C6        1.0  0.67731  0.15466  0.20962  1.0000
  C   C7        1.0  0.67732  0.65466  0.29038  1.0000
  C   C8        1.0  0.32269  0.84534  0.79038  1.0000
  C   C9        1.0  0.36760  0.52930  0.73186  1.0000
  C   C10       1.0  0.63240  0.97070  0.23185  1.0000
  C   C11       1.0  0.63240  0.47070  0.26815  1.0000
  C   C12       1.0  0.36760  0.02930  0.76815  1.0000
  C   C13       1.0  0.06313  0.45404  0.67499  1.0000
  C   C14       1.0  0.93687  0.04596  0.17499  1.0000
  C   C15       1.0  0.93687  0.54596  0.32501  1.0000
  C   C16       1.0  0.06313  0.95404  0.82501  1.0000
  C   C17       1.0  0.00479  0.56063  0.66687  1.0000
  C   C18       1.0  0.99521  0.93938  0.16687  1.0000
  C   C19       1.0  0.99521  0.43938  0.33313  1.0000
  C   C20       1.0  0.00478  0.06062  0.83313  1.0000
  C   C21       1.0  0.96475  0.40321  0.75662  1.0000
  C   C22       1.0  0.03525  0.09679  0.25662  1.0000
  C   C23       1.0  0.03525  0.59679  0.24338  1.0000
  C   C24       1.0  0.96475  0.90321  0.74338  1.0000
  C   C25       1.0  0.68710  0.12563  0.52753  1.0000
  C   C26       1.0  0.31290  0.37437  0.02753  1.0000
  C   C27       1.0  0.31290  0.87438  0.47247  1.0000
  C   C28       1.0  0.68710  0.62563  0.97247  1.0000
  C   C29       1.0  0.86234  0.16823  0.54689  1.0000
  C   C30       1.0  0.13765  0.33177  0.04689  1.0000
  C   C31       1.0  0.13766  0.83177  0.45311  1.0000
  C   C32       1.0  0.86235  0.66823  0.95311  1.0000
  C   C33       1.0  0.41936  0.16577  0.47141  1.0000
  C   C34       1.0  0.58064  0.33423  0.97141  1.0000
  C   C35       1.0  0.58064  0.83423  0.52859  1.0000
  C   C36       1.0  0.41936  0.66577  0.02859  1.0000
  C   C37       1.0  0.32619  0.24839  0.43152  1.0000
  C   C38       1.0  0.67381  0.25161  0.93152  1.0000
  C   C39       1.0  0.67381  0.75161  0.56848  1.0000
  C   C40       1.0  0.32619  0.74839  0.06848  1.0000
  O   O1        1.0  0.31672  0.45395  0.58299  1.0000
  O   O2        1.0  0.68328  0.04605  0.08299  1.0000
  O   O3        1.0  0.68328  0.54605  0.41701  1.0000
  O   O4        1.0  0.31672  0.95395  0.91701  1.0000
  O   O5        1.0  0.01204  0.40760  0.59324  1.0000
  O   O6        1.0  0.98796  0.09240  0.09324  1.0000
  O   O7        1.0  0.98796  0.59240  0.40676  1.0000
  O   O8        1.0  0.01204  0.90760  0.90676  1.0000
  O   O9        1.0  0.58351  0.20218  0.49993  1.0000
  O   O10       1.0  0.41649  0.29782  0.99993  1.0000
  O   O11       1.0  0.41649  0.79782  0.50007  1.0000
  O   O12       1.0  0.58351  0.70218  0.00007  1.0000
  F   F1        1.0  0.48948  0.33354  0.69366  1.0000
  F   F2        1.0  0.51052  0.16646  0.19366  1.0000
  F   F3        1.0  0.51052  0.66646  0.30634  1.0000
  F   F4        1.0  0.48948  0.83354  0.80634  1.0000
  F   F5        1.0  0.29916  0.33084  0.80160  1.0000
  F   F6        1.0  0.70084  0.16916  0.30160  1.0000
  F   F7        1.0  0.70084  0.66916  0.19840  1.0000
  F   F8        1.0  0.29916  0.83084  0.69840  1.0000
  F   F9        1.0  0.23992  0.27214  0.66288  1.0000
  F   F10       1.0  0.76007  0.22787  0.16288  1.0000
  F   F11       1.0  0.76008  0.72787  0.33712  1.0000
  F   F12       1.0  0.23993  0.77213  0.83712  1.0000
  F   F13       1.0  0.53402  0.51418  0.73734  1.0000
  F   F14       1.0  0.46598  0.98582  0.23734  1.0000
  F   F15       1.0  0.46598  0.48582  0.26266  1.0000
  F   F16       1.0  0.53402  0.01418  0.76266  1.0000
  F   F17       1.0  0.35890  0.61851  0.69277  1.0000
  F   F18       1.0  0.64110  0.88149  0.19277  1.0000
  F   F19       1.0  0.64110  0.38149  0.30723  1.0000
  F   F20       1.0  0.35890  0.11851  0.80723  1.0000
  F   F21       1.0  0.31108  0.53531  0.82019  1.0000
  F   F22       1.0  0.68892  0.96469  0.32019  1.0000
  F   F23       1.0  0.68892  0.46469  0.17981  1.0000
  F   F24       1.0  0.31108  0.03531  0.67981  1.0000
  F   F25       1.0  0.84019  0.55961  0.64065  1.0000
  F   F26       1.0  0.15981  0.94039  0.14065  1.0000
  F   F27       1.0  0.15981  0.44039  0.35935  1.0000
  F   F28       1.0  0.84019  0.05961  0.85935  1.0000
  F   F29       1.0  0.08896  0.61196  0.59918  1.0000
  F   F30       1.0  0.91104  0.88804  0.09918  1.0000
  F   F31       1.0  0.91104  0.38804  0.40082  1.0000
  F   F32       1.0  0.08896  0.11196  0.90082  1.0000
  F   F33       1.0  0.01979  0.61192  0.74609  1.0000
  F   F34       1.0  0.98021  0.88808  0.24609  1.0000
  F   F35       1.0  0.98021  0.38808  0.25392  1.0000
  F   F36       1.0  0.01979  0.11192  0.75392  1.0000
  F   F37       1.0  0.79710  0.41588  0.74948  1.0000
  F   F38       1.0  0.20290  0.08412  0.24948  1.0000
  F   F39       1.0  0.20289  0.58412  0.25052  1.0000
  F   F40       1.0  0.79711  0.91588  0.75052  1.0000
  F   F41       1.0  0.01350  0.43848  0.84059  1.0000
  F   F42       1.0  0.98649  0.06152  0.34059  1.0000
  F   F43       1.0  0.98649  0.56152  0.15941  1.0000
  F   F44       1.0  0.01351  0.93848  0.65941  1.0000
  F   F45       1.0  0.97819  0.30603  0.75713  1.0000
  F   F46       1.0  0.02181  0.19397  0.25713  1.0000
  F   F47       1.0  0.02181  0.69397  0.24287  1.0000
  F   F48       1.0  0.97819  0.80603  0.74287  1.0000
