data_image0
_chemical_formula_structural       Mo4H36C52S4N4O16F24
_chemical_formula_sum              "Mo4 H36 C52 S4 N4 O16 F24"
_cell_length_a       13.199
_cell_length_b       13.1954
_cell_length_c       14.8164
_cell_angle_alpha    100.38
_cell_angle_beta     105.361
_cell_angle_gamma    120.051

_space_group_name_H-M_alt    "P 1"
_space_group_IT_number       1

loop_
  _space_group_symop_operation_xyz
  'x, y, z'

loop_
  _atom_site_type_symbol
  _atom_site_label
  _atom_site_symmetry_multiplicity
  _atom_site_fract_x
  _atom_site_fract_y
  _atom_site_fract_z
  _atom_site_occupancy
  Mo  Mo1       1.0  0.02445  0.57724  0.47459  1.0000
  Mo  Mo2       1.0  0.60262  0.54978  0.02537  1.0000
  Mo  Mo3       1.0  0.97552  0.42275  0.52539  1.0000
  Mo  Mo4       1.0  0.39737  0.45022  0.97464  1.0000
  H   H1        1.0  0.39361  0.25118  0.45948  1.0000
  H   H2        1.0  0.29144  0.93390  0.04034  1.0000
  H   H3        1.0  0.60639  0.74882  0.54051  1.0000
  H   H4        1.0  0.70857  0.06611  0.95966  1.0000
  H   H5        1.0  0.23418  0.11173  0.39361  1.0000
  H   H6        1.0  0.21791  0.84028  0.10618  1.0000
  H   H7        1.0  0.76582  0.88827  0.60639  1.0000
  H   H8        1.0  0.78210  0.15973  0.89382  1.0000
  H   H9        1.0  0.31364  0.19676  0.32650  1.0000
  H   H10       1.0  0.37014  0.98690  0.17334  1.0000
  H   H11       1.0  0.68636  0.80324  0.67350  1.0000
  H   H12       1.0  0.62987  0.01310  0.82666  1.0000
  H   H13       1.0  0.28933  0.72180  0.33679  1.0000
  H   H14       1.0  0.88479  0.95195  0.16271  1.0000
  H   H15       1.0  0.71068  0.27820  0.66321  1.0000
  H   H16       1.0  0.11521  0.04805  0.83730  1.0000
  H   H17       1.0  0.42005  0.76687  0.30265  1.0000
  H   H18       1.0  0.96378  0.11685  0.19693  1.0000
  H   H19       1.0  0.57996  0.23313  0.69735  1.0000
  H   H20       1.0  0.03623  0.88315  0.80308  1.0000
  H   H21       1.0  0.27476  0.73270  0.21706  1.0000
  H   H22       1.0  0.01520  0.05714  0.28252  1.0000
  H   H23       1.0  0.72525  0.26731  0.78293  1.0000
  H   H24       1.0  0.98480  0.94286  0.71749  1.0000
  H   H25       1.0  0.61430  0.92056  0.41766  1.0000
  H   H26       1.0  0.00306  0.19667  0.08239  1.0000
  H   H27       1.0  0.38571  0.07945  0.58233  1.0000
  H   H28       1.0  0.99695  0.80334  0.91763  1.0000
  H   H29       1.0  0.71714  0.08716  0.47849  1.0000
  H   H30       1.0  0.10880  0.23877  0.02158  1.0000
  H   H31       1.0  0.28287  0.91285  0.52150  1.0000
  H   H32       1.0  0.89121  0.76124  0.97843  1.0000
  H   H33       1.0  0.66716  0.01766  0.34758  1.0000
  H   H34       1.0  0.17025  0.31955  0.15255  1.0000
  H   H35       1.0  0.33285  0.98235  0.65242  1.0000
  H   H36       1.0  0.82976  0.68045  0.84747  1.0000
  C   C1        1.0  0.37828  0.08813  0.37773  1.0000
  C   C2        1.0  0.21033  0.00038  0.12213  1.0000
  C   C3        1.0  0.62173  0.91187  0.62226  1.0000
  C   C4        1.0  0.78967  0.99962  0.87787  1.0000
  C   C5        1.0  0.31034  0.95761  0.33301  1.0000
  C   C6        1.0  0.12447  0.97707  0.16673  1.0000
  C   C7        1.0  0.68967  0.04240  0.66699  1.0000
  C   C8        1.0  0.87553  0.02293  0.83328  1.0000
  C   C9        1.0  0.39163  0.91337  0.34062  1.0000
  C   C10       1.0  0.07266  0.05077  0.15918  1.0000
  C   C11       1.0  0.60838  0.08663  0.65937  1.0000
  C   C12       1.0  0.92734  0.94923  0.84082  1.0000
  C   C13       1.0  0.52031  0.01218  0.38882  1.0000
  C   C14       1.0  0.12333  0.13136  0.11109  1.0000
  C   C15       1.0  0.47969  0.98783  0.61118  1.0000
  C   C16       1.0  0.87667  0.86864  0.88891  1.0000
  C   C17       1.0  0.16956  0.87287  0.28543  1.0000
  C   C18       1.0  0.08733  0.88388  0.21425  1.0000
  C   C19       1.0  0.83044  0.12713  0.71457  1.0000
  C   C20       1.0  0.91268  0.11612  0.78575  1.0000
  C   C21       1.0  0.11325  0.77570  0.32283  1.0000
  C   C22       1.0  0.95273  0.79025  0.17696  1.0000
  C   C23       1.0  0.88676  0.22430  0.67717  1.0000
  C   C24       1.0  0.04727  0.20975  0.82304  1.0000
  C   C25       1.0  0.32795  0.16626  0.39021  1.0000
  C   C26       1.0  0.27588  0.93750  0.10962  1.0000
  C   C27       1.0  0.67205  0.83374  0.60979  1.0000
  C   C28       1.0  0.72413  0.06251  0.89038  1.0000
  C   C29       1.0  0.34144  0.77706  0.29737  1.0000
  C   C30       1.0  0.97941  0.04360  0.20224  1.0000
  C   C31       1.0  0.65857  0.22295  0.70263  1.0000
  C   C32       1.0  0.02059  0.95640  0.79777  1.0000
  C   C33       1.0  0.63556  0.00904  0.40896  1.0000
  C   C34       1.0  0.10020  0.22661  0.09105  1.0000
  C   C35       1.0  0.36445  0.99097  0.59103  1.0000
  C   C36       1.0  0.89981  0.77340  0.90896  1.0000
  C   C37       1.0  0.19462  0.66599  0.68313  1.0000
  C   C38       1.0  0.48276  0.51196  0.81700  1.0000
  C   C39       1.0  0.80535  0.33399  0.31685  1.0000
  C   C40       1.0  0.51725  0.48805  0.18301  1.0000
  C   C41       1.0  0.30136  0.75753  0.78954  1.0000
  C   C42       1.0  0.46801  0.51229  0.71062  1.0000
  C   C43       1.0  0.69862  0.24244  0.21044  1.0000
  C   C44       1.0  0.53202  0.48773  0.28939  1.0000
  C   C45       1.0  0.83870  0.53424  0.55816  1.0000
  C   C46       1.0  0.47573  0.28027  0.94164  1.0000
  C   C47       1.0  0.16130  0.46577  0.44184  1.0000
  C   C48       1.0  0.52428  0.71974  0.05836  1.0000
  C   C49       1.0  0.74633  0.55063  0.59306  1.0000
  C   C50       1.0  0.45695  0.15282  0.90674  1.0000
  C   C51       1.0  0.25367  0.44938  0.40695  1.0000
  C   C52       1.0  0.54305  0.84719  0.09326  1.0000
  S   S1        1.0  0.54034  0.15547  0.42650  1.0000
  S   S2        1.0  0.22896  0.11375  0.07347  1.0000
  S   S3        1.0  0.45967  0.84454  0.57350  1.0000
  S   S4        1.0  0.77104  0.88625  0.92654  1.0000
  N   N1        1.0  0.07146  0.70471  0.36190  1.0000
  N   N2        1.0  0.84262  0.70954  0.13804  1.0000
  N   N3        1.0  0.92853  0.29527  0.63809  1.0000
  N   N4        1.0  0.15738  0.29045  0.86196  1.0000
  O   O1        1.0  0.17683  0.71116  0.61587  1.0000
  O   O2        1.0  0.59517  0.56126  0.88423  1.0000
  O   O3        1.0  0.82315  0.28882  0.38411  1.0000
  O   O4        1.0  0.40484  0.43875  0.11578  1.0000
  O   O5        1.0  0.12725  0.54976  0.66970  1.0000
  O   O6        1.0  0.37995  0.45796  0.83037  1.0000
  O   O7        1.0  0.87271  0.45022  0.33028  1.0000
  O   O8        1.0  0.62005  0.54205  0.16963  1.0000
  O   O9        1.0  0.90095  0.60866  0.51897  1.0000
  O   O10       1.0  0.58942  0.38168  0.98079  1.0000
  O   O11       1.0  0.09904  0.39134  0.48102  1.0000
  O   O12       1.0  0.41058  0.61832  0.01922  1.0000
  O   O13       1.0  0.84701  0.44539  0.57099  1.0000
  O   O14       1.0  0.37418  0.27593  0.92889  1.0000
  O   O15       1.0  0.15297  0.55460  0.42900  1.0000
  O   O16       1.0  0.62582  0.72407  0.07112  1.0000
  F   F1        1.0  0.39327  0.86803  0.78912  1.0000
  F   F2        1.0  0.57893  0.60478  0.71121  1.0000
  F   F3        1.0  0.60671  0.13192  0.21085  1.0000
  F   F4        1.0  0.42110  0.39522  0.28881  1.0000
  F   F5        1.0  0.24969  0.78463  0.85098  1.0000
  F   F6        1.0  0.43389  0.39917  0.64931  1.0000
  F   F7        1.0  0.75029  0.21535  0.14900  1.0000
  F   F8        1.0  0.56610  0.60084  0.35068  1.0000
  F   F9        1.0  0.35864  0.70587  0.83107  1.0000
  F   F10       1.0  0.37474  0.52785  0.66883  1.0000
  F   F11       1.0  0.64132  0.29409  0.16892  1.0000
  F   F12       1.0  0.62530  0.47221  0.33119  1.0000
  F   F13       1.0  0.75794  0.53762  0.68360  1.0000
  F   F14       1.0  0.35289  0.07360  0.81647  1.0000
  F   F15       1.0  0.24206  0.46238  0.31641  1.0000
  F   F16       1.0  0.64712  0.92641  0.18352  1.0000
  F   F17       1.0  0.77007  0.66527  0.60299  1.0000
  F   F18       1.0  0.56127  0.16628  0.89629  1.0000
  F   F19       1.0  0.22993  0.33474  0.39703  1.0000
  F   F20       1.0  0.43873  0.83372  0.10372  1.0000
  F   F21       1.0  0.62128  0.46083  0.52599  1.0000
  F   F22       1.0  0.43488  0.09528  0.97414  1.0000
  F   F23       1.0  0.37872  0.53918  0.47403  1.0000
  F   F24       1.0  0.56511  0.90471  0.02586  1.0000
