data_image0
_chemical_formula_structural       Mo4H36C52S4N4O16F24
_chemical_formula_sum              "Mo4 H36 C52 S4 N4 O16 F24"
_cell_length_a       11.9232
_cell_length_b       12.4982
_cell_length_c       13.0168
_cell_angle_alpha    112.884
_cell_angle_beta     106.996
_cell_angle_gamma    95.2826

_space_group_name_H-M_alt    "P 1"
_space_group_IT_number       1

loop_
  _space_group_symop_operation_xyz
  'x, y, z'

loop_
  _atom_site_type_symbol
  _atom_site_label
  _atom_site_symmetry_multiplicity
  _atom_site_fract_x
  _atom_site_fract_y
  _atom_site_fract_z
  _atom_site_occupancy
  Mo  Mo1       1.0  0.56334  0.05626  0.08898  1.0000
  Mo  Mo2       1.0  0.43666  0.94373  0.91101  1.0000
  Mo  Mo3       1.0  0.41942  0.50119  0.52092  1.0000
  Mo  Mo4       1.0  0.58054  0.49881  0.47910  1.0000
  H   H1        1.0  0.87568  0.37194  0.85560  1.0000
  H   H2        1.0  0.12433  0.62806  0.14440  1.0000
  H   H3        1.0  0.77529  0.23447  0.74047  1.0000
  H   H4        1.0  0.22472  0.76554  0.25953  1.0000
  H   H5        1.0  0.79309  0.36278  0.71312  1.0000
  H   H6        1.0  0.20691  0.63722  0.28688  1.0000
  H   H7        1.0  0.78730  0.88567  0.43443  1.0000
  H   H8        1.0  0.21270  0.11433  0.56557  1.0000
  H   H9        1.0  0.83978  0.96531  0.36455  1.0000
  H   H10       1.0  0.16022  0.03469  0.63544  1.0000
  H   H11       1.0  0.70710  0.98525  0.39616  1.0000
  H   H12       1.0  0.29291  0.01475  0.60384  1.0000
  H   H13       1.0  0.84788  0.87946  0.62510  1.0000
  H   H14       1.0  0.15213  0.12055  0.37491  1.0000
  H   H15       1.0  0.99603  0.94147  0.73451  1.0000
  H   H16       1.0  0.00398  0.05853  0.26549  1.0000
  H   H17       1.0  0.97427  0.88150  0.58021  1.0000
  H   H18       1.0  0.02574  0.11849  0.41979  1.0000
  H   H19       1.0  0.19078  0.29590  0.74016  1.0000
  H   H20       1.0  0.80923  0.70410  0.25984  1.0000
  H   H21       1.0  0.20599  0.42353  0.71024  1.0000
  H   H22       1.0  0.79402  0.57647  0.28976  1.0000
  H   H23       1.0  0.10733  0.28656  0.59733  1.0000
  H   H24       1.0  0.89268  0.71344  0.40267  1.0000
  H   H25       1.0  0.04440  0.75576  0.75734  1.0000
  H   H26       1.0  0.95560  0.24424  0.24266  1.0000
  H   H27       1.0  0.89114  0.67498  0.68709  1.0000
  H   H28       1.0  0.10886  0.32502  0.31290  1.0000
  H   H29       1.0  0.99163  0.64323  0.60843  1.0000
  H   H30       1.0  0.00836  0.35677  0.39157  1.0000
  H   H31       1.0  0.20442  0.73543  0.03426  1.0000
  H   H32       1.0  0.79558  0.26457  0.96574  1.0000
  H   H33       1.0  0.06036  0.76507  0.98880  1.0000
  H   H34       1.0  0.93965  0.23493  0.01120  1.0000
  H   H35       1.0  0.16674  0.79285  0.92622  1.0000
  H   H36       1.0  0.83326  0.20715  0.07378  1.0000
  C   C1        1.0  0.85777  0.25268  0.50709  1.0000
  C   C2        1.0  0.14223  0.74732  0.49290  1.0000
  C   C3        1.0  0.89401  0.38445  0.55749  1.0000
  C   C4        1.0  0.10598  0.61554  0.44252  1.0000
  C   C5        1.0  0.79556  0.19147  0.38295  1.0000
  C   C6        1.0  0.20445  0.80853  0.61704  1.0000
  C   C7        1.0  0.83305  0.43832  0.48834  1.0000
  C   C8        1.0  0.16694  0.56168  0.51166  1.0000
  C   C9        1.0  0.94302  0.27552  0.71424  1.0000
  C   C10       1.0  0.05699  0.72448  0.28576  1.0000
  C   C11       1.0  0.88637  0.19552  0.58031  1.0000
  C   C12       1.0  0.11363  0.80448  0.41969  1.0000
  C   C13       1.0  0.86991  0.07121  0.55148  1.0000
  C   C14       1.0  0.13010  0.92879  0.44852  1.0000
  C   C15       1.0  0.93041  0.05133  0.64819  1.0000
  C   C16       1.0  0.06961  0.94867  0.35182  1.0000
  C   C17       1.0  0.03874  0.38144  0.73665  1.0000
  C   C18       1.0  0.96127  0.61856  0.26335  1.0000
  C   C19       1.0  0.97762  0.45094  0.67212  1.0000
  C   C20       1.0  0.02238  0.54906  0.32788  1.0000
  C   C21       1.0  0.01639  0.57687  0.74156  1.0000
  C   C22       1.0  0.98360  0.42313  0.25844  1.0000
  C   C23       1.0  0.08363  0.60807  0.85968  1.0000
  C   C24       1.0  0.91638  0.39193  0.14032  1.0000
  C   C25       1.0  0.84024  0.31383  0.75941  1.0000
  C   C26       1.0  0.15977  0.68618  0.24059  1.0000
  C   C27       1.0  0.79763  0.97198  0.43077  1.0000
  C   C28       1.0  0.20238  0.02802  0.56923  1.0000
  C   C29       1.0  0.93774  0.93253  0.64775  1.0000
  C   C30       1.0  0.06227  0.06747  0.35225  1.0000
  C   C31       1.0  0.14294  0.34415  0.69379  1.0000
  C   C32       1.0  0.85707  0.65585  0.30621  1.0000
  C   C33       1.0  0.98429  0.66752  0.69631  1.0000
  C   C34       1.0  0.01570  0.33248  0.30369  1.0000
  C   C35       1.0  0.13205  0.73151  0.95730  1.0000
  C   C36       1.0  0.86795  0.26849  0.04270  1.0000
  C   C37       1.0  0.31834  0.05522  0.08104  1.0000
  C   C38       1.0  0.68166  0.94478  0.91897  1.0000
  C   C39       1.0  0.21313  0.07911  0.12534  1.0000
  C   C40       1.0  0.78687  0.92088  0.87466  1.0000
  C   C41       1.0  0.50828  0.18949  0.94857  1.0000
  C   C42       1.0  0.49173  0.81052  0.05143  1.0000
  C   C43       1.0  0.51602  0.29460  0.91542  1.0000
  C   C44       1.0  0.48398  0.70540  0.08458  1.0000
  C   C45       1.0  0.36831  0.42765  0.26734  1.0000
  C   C46       1.0  0.63167  0.57235  0.73266  1.0000
  C   C47       1.0  0.70343  0.61014  0.86513  1.0000
  C   C48       1.0  0.29656  0.38987  0.13487  1.0000
  C   C49       1.0  0.48222  0.27164  0.47002  1.0000
  C   C50       1.0  0.51776  0.72836  0.52999  1.0000
  C   C51       1.0  0.52278  0.85482  0.53783  1.0000
  C   C52       1.0  0.47721  0.14518  0.46217  1.0000
  S   S1        1.0  0.00693  0.17830  0.78025  1.0000
  S   S2        1.0  0.99308  0.82171  0.21975  1.0000
  S   S3        1.0  0.10741  0.49020  0.89469  1.0000
  S   S4        1.0  0.89260  0.50981  0.10532  1.0000
  N   N1        1.0  0.74640  0.14846  0.27923  1.0000
  N   N2        1.0  0.25360  0.85154  0.72077  1.0000
  N   N3        1.0  0.77423  0.47835  0.42914  1.0000
  N   N4        1.0  0.22576  0.52165  0.57087  1.0000
  O   O1        1.0  0.42558  0.10259  0.15697  1.0000
  O   O2        1.0  0.57443  0.89742  0.84304  1.0000
  O   O3        1.0  0.70885  0.01459  0.02874  1.0000
  O   O4        1.0  0.29117  0.98541  0.97127  1.0000
  O   O5        1.0  0.57314  0.20644  0.05321  1.0000
  O   O6        1.0  0.42687  0.79356  0.94680  1.0000
  O   O7        1.0  0.56000  0.91040  0.13299  1.0000
  O   O8        1.0  0.44001  0.08961  0.86701  1.0000
  O   O9        1.0  0.48219  0.44126  0.29698  1.0000
  O   O10       1.0  0.51780  0.55875  0.70303  1.0000
  O   O11       1.0  0.31191  0.44560  0.33985  1.0000
  O   O12       1.0  0.68808  0.55440  0.66015  1.0000
  O   O13       1.0  0.57047  0.32024  0.45437  1.0000
  O   O14       1.0  0.42951  0.67977  0.54563  1.0000
  O   O15       1.0  0.40011  0.32258  0.49706  1.0000
  O   O16       1.0  0.59987  0.67742  0.50295  1.0000
  F   F1        1.0  0.11741  0.08524  0.04225  1.0000
  F   F2        1.0  0.88259  0.91475  0.95775  1.0000
  F   F3        1.0  0.24550  0.18255  0.22678  1.0000
  F   F4        1.0  0.75451  0.81744  0.77321  1.0000
  F   F5        1.0  0.17544  0.98867  0.15062  1.0000
  F   F6        1.0  0.82456  0.01132  0.84937  1.0000
  F   F7        1.0  0.40593  0.29739  0.84869  1.0000
  F   F8        1.0  0.59407  0.70261  0.15130  1.0000
  F   F9        1.0  0.58772  0.28115  0.84776  1.0000
  F   F10       1.0  0.41228  0.71886  0.15224  1.0000
  F   F11       1.0  0.56402  0.40049  0.01267  1.0000
  F   F12       1.0  0.43596  0.59951  0.98733  1.0000
  F   F13       1.0  0.67032  0.52447  0.89707  1.0000
  F   F14       1.0  0.32968  0.47553  0.10294  1.0000
  F   F15       1.0  0.68133  0.71343  0.93628  1.0000
  F   F16       1.0  0.31866  0.28658  0.06372  1.0000
  F   F17       1.0  0.82390  0.62845  0.88921  1.0000
  F   F18       1.0  0.17609  0.37155  0.11079  1.0000
  F   F19       1.0  0.45473  0.91191  0.59803  1.0000
  F   F20       1.0  0.54527  0.08810  0.40197  1.0000
  F   F21       1.0  0.63750  0.92291  0.59257  1.0000
  F   F22       1.0  0.36249  0.07708  0.40742  1.0000
  F   F23       1.0  0.48016  0.84798  0.42530  1.0000
  F   F24       1.0  0.51984  0.15201  0.57470  1.0000
