data_image0
_chemical_formula_structural       H36Rh4C52S4N4O16F24
_chemical_formula_sum              "H36 Rh4 C52 S4 N4 O16 F24"
_cell_length_a       12.2078
_cell_length_b       12.2089
_cell_length_c       16.2428
_cell_angle_alpha    95.1047
_cell_angle_beta     112.611
_cell_angle_gamma    111.731

_space_group_name_H-M_alt    "P 1"
_space_group_IT_number       1

loop_
  _space_group_symop_operation_xyz
  'x, y, z'

loop_
  _atom_site_type_symbol
  _atom_site_label
  _atom_site_symmetry_multiplicity
  _atom_site_fract_x
  _atom_site_fract_y
  _atom_site_fract_z
  _atom_site_occupancy
  H   H1        1.0  0.46354  0.48617  0.76617  1.0000
  H   H2        1.0  0.21993  0.69730  0.73399  1.0000
  H   H3        1.0  0.53646  0.51383  0.23383  1.0000
  H   H4        1.0  0.78007  0.30270  0.26601  1.0000
  H   H5        1.0  0.34293  0.37228  0.66005  1.0000
  H   H6        1.0  0.21221  0.68281  0.84012  1.0000
  H   H7        1.0  0.65707  0.62772  0.33995  1.0000
  H   H8        1.0  0.78779  0.31719  0.15988  1.0000
  H   H9        1.0  0.32978  0.35633  0.76385  1.0000
  H   H10       1.0  0.09251  0.56579  0.73633  1.0000
  H   H11       1.0  0.67022  0.64368  0.23615  1.0000
  H   H12       1.0  0.90749  0.43421  0.26367  1.0000
  H   H13       1.0  0.95620  0.27842  0.40984  1.0000
  H   H14       1.0  0.36845  0.54640  0.09034  1.0000
  H   H15       1.0  0.04380  0.72158  0.59016  1.0000
  H   H16       1.0  0.63155  0.45360  0.90966  1.0000
  H   H17       1.0  0.86920  0.28414  0.47452  1.0000
  H   H18       1.0  0.30952  0.39475  0.02561  1.0000
  H   H19       1.0  0.13081  0.71586  0.52548  1.0000
  H   H20       1.0  0.69047  0.60524  0.97439  1.0000
  H   H21       1.0  0.95141  0.18995  0.49017  1.0000
  H   H22       1.0  0.19963  0.46128  0.00997  1.0000
  H   H23       1.0  0.04859  0.81005  0.50983  1.0000
  H   H24       1.0  0.80037  0.53872  0.99002  1.0000
  H   H25       1.0  0.21430  0.58590  0.44350  1.0000
  H   H26       1.0  0.64246  0.77084  0.05670  1.0000
  H   H27       1.0  0.78570  0.41410  0.55650  1.0000
  H   H28       1.0  0.35754  0.22916  0.94330  1.0000
  H   H29       1.0  0.04803  0.47097  0.39511  1.0000
  H   H30       1.0  0.57597  0.65297  0.10509  1.0000
  H   H31       1.0  0.95197  0.52903  0.60489  1.0000
  H   H32       1.0  0.42404  0.34703  0.89492  1.0000
  H   H33       1.0  0.17746  0.43006  0.40656  1.0000
  H   H34       1.0  0.52364  0.77094  0.09372  1.0000
  H   H35       1.0  0.82254  0.56994  0.59344  1.0000
  H   H36       1.0  0.47637  0.22906  0.90628  1.0000
  Rh  Rh1       1.0  0.62077  0.05629  0.54286  1.0000
  Rh  Rh2       1.0  0.01349  0.07797  0.95722  1.0000
  Rh  Rh3       1.0  0.37923  0.94371  0.45714  1.0000
  Rh  Rh4       1.0  0.98650  0.92203  0.04278  1.0000
  C   C1        1.0  0.27146  0.49120  0.70629  1.0000
  C   C2        1.0  0.28501  0.56522  0.79392  1.0000
  C   C3        1.0  0.72854  0.50880  0.29371  1.0000
  C   C4        1.0  0.71499  0.43478  0.20608  1.0000
  C   C5        1.0  0.12880  0.39539  0.64965  1.0000
  C   C6        1.0  0.24579  0.47923  0.85053  1.0000
  C   C7        1.0  0.87121  0.60461  0.35035  1.0000
  C   C8        1.0  0.75422  0.52077  0.14947  1.0000
  C   C9        1.0  0.08311  0.38231  0.55236  1.0000
  C   C10       1.0  0.32993  0.53084  0.94784  1.0000
  C   C11       1.0  0.91689  0.61770  0.44764  1.0000
  C   C12       1.0  0.67007  0.46916  0.05216  1.0000
  C   C13       1.0  0.16802  0.47628  0.53325  1.0000
  C   C14       1.0  0.44304  0.63484  0.96698  1.0000
  C   C15       1.0  0.83198  0.52372  0.46674  1.0000
  C   C16       1.0  0.55697  0.36516  0.03302  1.0000
  C   C17       1.0  0.06717  0.33314  0.69875  1.0000
  C   C18       1.0  0.13445  0.36849  0.80140  1.0000
  C   C19       1.0  0.93284  0.66687  0.30126  1.0000
  C   C20       1.0  0.86555  0.63151  0.19860  1.0000
  C   C21       1.0  0.93742  0.23842  0.65369  1.0000
  C   C22       1.0  0.08478  0.28381  0.84645  1.0000
  C   C23       1.0  0.06258  0.76158  0.34631  1.0000
  C   C24       1.0  0.91523  0.71620  0.15356  1.0000
  C   C25       1.0  0.35870  0.42261  0.72592  1.0000
  C   C26       1.0  0.19671  0.63273  0.77425  1.0000
  C   C27       1.0  0.64130  0.57739  0.27408  1.0000
  C   C28       1.0  0.80329  0.36728  0.22575  1.0000
  C   C29       1.0  0.95884  0.27896  0.47810  1.0000
  C   C30       1.0  0.30076  0.48082  0.02206  1.0000
  C   C31       1.0  0.04117  0.72104  0.52190  1.0000
  C   C32       1.0  0.69924  0.51918  0.97794  1.0000
  C   C33       1.0  0.15123  0.49234  0.43986  1.0000
  C   C34       1.0  0.55255  0.71143  0.06037  1.0000
  C   C35       1.0  0.84877  0.50767  0.56014  1.0000
  C   C36       1.0  0.44745  0.28857  0.93964  1.0000
  C   C37       1.0  0.51996  0.79673  0.48013  1.0000
  C   C38       1.0  0.81660  0.03994  0.01979  1.0000
  C   C39       1.0  0.48005  0.20327  0.51986  1.0000
  C   C40       1.0  0.18339  0.96005  0.98021  1.0000
  C   C41       1.0  0.52768  0.67349  0.46358  1.0000
  C   C42       1.0  0.70990  0.06410  0.03639  1.0000
  C   C43       1.0  0.47232  0.32651  0.53642  1.0000
  C   C44       1.0  0.29010  0.93590  0.96361  1.0000
  C   C45       1.0  0.51384  0.01516  0.34613  1.0000
  C   C46       1.0  0.16908  0.16747  0.15406  1.0000
  C   C47       1.0  0.48617  0.98483  0.65387  1.0000
  C   C48       1.0  0.83092  0.83253  0.84595  1.0000
  C   C49       1.0  0.51934  0.01768  0.25255  1.0000
  C   C50       1.0  0.26525  0.26660  0.24763  1.0000
  C   C51       1.0  0.48066  0.98232  0.74745  1.0000
  C   C52       1.0  0.73475  0.73340  0.75237  1.0000
  S   S1        1.0  0.30783  0.58425  0.62886  1.0000
  S   S2        1.0  0.45550  0.67901  0.87140  1.0000
  S   S3        1.0  0.69217  0.41575  0.37114  1.0000
  S   S4        1.0  0.54450  0.32099  0.12860  1.0000
  N   N1        1.0  0.82895  0.16102  0.61769  1.0000
  N   N2        1.0  0.04349  0.21138  0.88251  1.0000
  N   N3        1.0  0.17106  0.83898  0.38231  1.0000
  N   N4        1.0  0.95651  0.78863  0.11749  1.0000
  O   O1        1.0  0.62867  0.89165  0.52438  1.0000
  O   O2        1.0  0.86731  0.10448  0.97559  1.0000
  O   O3        1.0  0.37133  0.10834  0.47563  1.0000
  O   O4        1.0  0.13268  0.89552  0.02440  1.0000
  O   O5        1.0  0.59742  0.21403  0.55369  1.0000
  O   O6        1.0  0.16033  0.04362  0.94644  1.0000
  O   O7        1.0  0.40258  0.78597  0.44631  1.0000
  O   O8        1.0  0.83967  0.95639  0.05357  1.0000
  O   O9        1.0  0.62415  0.06644  0.41825  1.0000
  O   O10       1.0  0.14817  0.20571  0.08196  1.0000
  O   O11       1.0  0.37586  0.93356  0.58175  1.0000
  O   O12       1.0  0.85183  0.79429  0.91804  1.0000
  O   O13       1.0  0.60175  0.04006  0.66166  1.0000
  O   O14       1.0  0.87840  0.94034  0.83823  1.0000
  O   O15       1.0  0.39825  0.95994  0.33834  1.0000
  O   O16       1.0  0.12161  0.05966  0.16177  1.0000
  F   F1        1.0  0.45855  0.61374  0.37172  1.0000
  F   F2        1.0  0.74211  0.08675  0.12826  1.0000
  F   F3        1.0  0.54146  0.38626  0.62828  1.0000
  F   F4        1.0  0.25787  0.91324  0.87174  1.0000
  F   F5        1.0  0.65350  0.68871  0.49263  1.0000
  F   F6        1.0  0.69593  0.16085  0.00741  1.0000
  F   F7        1.0  0.34650  0.31129  0.50736  1.0000
  F   F8        1.0  0.30407  0.83915  0.99259  1.0000
  F   F9        1.0  0.47298  0.60062  0.50925  1.0000
  F   F10       1.0  0.59137  0.96369  0.99073  1.0000
  F   F11       1.0  0.52702  0.39938  0.49075  1.0000
  F   F12       1.0  0.40862  0.03630  0.00927  1.0000
  F   F13       1.0  0.64219  0.08951  0.26438  1.0000
  F   F14       1.0  0.32528  0.37756  0.23573  1.0000
  F   F15       1.0  0.35781  0.91049  0.73562  1.0000
  F   F16       1.0  0.67471  0.62244  0.76427  1.0000
  F   F17       1.0  0.43533  0.05973  0.19984  1.0000
  F   F18       1.0  0.36004  0.23535  0.30037  1.0000
  F   F19       1.0  0.56466  0.94026  0.80016  1.0000
  F   F20       1.0  0.63996  0.76466  0.69963  1.0000
  F   F21       1.0  0.48246  0.90216  0.20462  1.0000
  F   F22       1.0  0.19773  0.27782  0.29557  1.0000
  F   F23       1.0  0.51754  0.09784  0.79538  1.0000
  F   F24       1.0  0.80226  0.72218  0.70443  1.0000
