data_image0
_chemical_formula_structural       Zn2H22C16S4N10
_chemical_formula_sum              "Zn2 H22 C16 S4 N10"
_cell_length_a       7.45842
_cell_length_b       8.21623
_cell_length_c       11.7515
_cell_angle_alpha    98.9757
_cell_angle_beta     107.669
_cell_angle_gamma    108.818

_space_group_name_H-M_alt    "P 1"
_space_group_IT_number       1

loop_
  _space_group_symop_operation_xyz
  'x, y, z'

loop_
  _atom_site_type_symbol
  _atom_site_label
  _atom_site_symmetry_multiplicity
  _atom_site_fract_x
  _atom_site_fract_y
  _atom_site_fract_z
  _atom_site_occupancy
  Zn  Zn1       1.0  0.63965  0.17004  0.73575  1.0000
  Zn  Zn2       1.0  0.36035  0.82996  0.26425  1.0000
  H   H1        1.0  0.49423  0.73065  0.68430  1.0000
  H   H2        1.0  0.50577  0.26935  0.31570  1.0000
  H   H3        1.0  0.14608  0.77220  0.90530  1.0000
  H   H4        1.0  0.85392  0.22780  0.09470  1.0000
  H   H5        1.0  0.35015  0.10969  0.88669  1.0000
  H   H6        1.0  0.64985  0.89031  0.11331  1.0000
  H   H7        1.0  0.20980  0.48145  0.85907  1.0000
  H   H8        1.0  0.79020  0.51855  0.14093  1.0000
  H   H9        1.0  0.35729  0.46579  0.76792  1.0000
  H   H10       1.0  0.64271  0.53421  0.23208  1.0000
  H   H11       1.0  0.06688  0.42828  0.57588  1.0000
  H   H12       1.0  0.93312  0.57172  0.42412  1.0000
  H   H13       1.0  0.91160  0.43513  0.66294  1.0000
  H   H14       1.0  0.08840  0.56487  0.33706  1.0000
  H   H15       1.0  0.84854  0.12613  0.54326  1.0000
  H   H16       1.0  0.15146  0.87387  0.45674  1.0000
  H   H17       1.0  0.09950  0.15529  0.63557  1.0000
  H   H18       1.0  0.90050  0.84471  0.36443  1.0000
  H   H19       1.0  0.86024  0.99322  0.71001  1.0000
  H   H20       1.0  0.13976  0.00678  0.28999  1.0000
  H   H21       1.0  0.00168  0.18555  0.81718  1.0000
  H   H22       1.0  0.99832  0.81446  0.18282  1.0000
  C   C1        1.0  0.42524  0.79009  0.73901  1.0000
  C   C2        1.0  0.57476  0.20991  0.26099  1.0000
  C   C3        1.0  0.24625  0.81480  0.85584  1.0000
  C   C4        1.0  0.75375  0.18520  0.14416  1.0000
  C   C5        1.0  0.34615  0.98051  0.84498  1.0000
  C   C6        1.0  0.65385  0.01949  0.15502  1.0000
  C   C7        1.0  0.23119  0.50383  0.77354  1.0000
  C   C8        1.0  0.76882  0.49617  0.22646  1.0000
  C   C9        1.0  0.03724  0.39599  0.65749  1.0000
  C   C10       1.0  0.96276  0.60401  0.34251  1.0000
  C   C11       1.0  0.97139  0.19453  0.63541  1.0000
  C   C12       1.0  0.02861  0.80547  0.36459  1.0000
  C   C13       1.0  0.37701  0.25171  0.50834  1.0000
  C   C14       1.0  0.62299  0.74829  0.49166  1.0000
  C   C15       1.0  0.76537  0.54293  0.91100  1.0000
  C   C16       1.0  0.23463  0.45706  0.08900  1.0000
  S   S1        1.0  0.22624  0.30293  0.40278  1.0000
  S   S2        1.0  0.77375  0.69707  0.59722  1.0000
  S   S3        1.0  0.81805  0.75258  0.96671  1.0000
  S   S4        1.0  0.18194  0.24742  0.03328  1.0000
  N   N1        1.0  0.45758  0.96344  0.77208  1.0000
  N   N2        1.0  0.54241  0.03656  0.22792  1.0000
  N   N3        1.0  0.29845  0.69662  0.78862  1.0000
  N   N4        1.0  0.70155  0.30338  0.21138  1.0000
  N   N5        1.0  0.89098  0.12878  0.72822  1.0000
  N   N6        1.0  0.10902  0.87122  0.27178  1.0000
  N   N7        1.0  0.48633  0.20863  0.58301  1.0000
  N   N8        1.0  0.51367  0.79137  0.41699  1.0000
  N   N9        1.0  0.72576  0.38848  0.86972  1.0000
  N   N10       1.0  0.27424  0.61152  0.13029  1.0000
