data_image0
_chemical_formula_structural       Mg6H24C24O36
_chemical_formula_sum              "Mg6 H24 C24 O36"
_cell_length_a       8.17044
_cell_length_b       8.17044
_cell_length_c       16.3327
_cell_angle_alpha    90.1499
_cell_angle_beta     90.15
_cell_angle_gamma    90.6112

_space_group_name_H-M_alt    "P 1"
_space_group_IT_number       1

loop_
  _space_group_symop_operation_xyz
  'x, y, z'

loop_
  _atom_site_type_symbol
  _atom_site_label
  _atom_site_symmetry_multiplicity
  _atom_site_fract_x
  _atom_site_fract_y
  _atom_site_fract_z
  _atom_site_occupancy
  Mg  Mg1       1.0  0.99682  0.00318  0.75000  1.0000
  Mg  Mg2       1.0  0.00318  0.99682  0.25000  1.0000
  Mg  Mg3       1.0  1.00000  0.50000  0.50000  1.0000
  Mg  Mg4       1.0  0.50000  1.00000  1.00000  1.0000
  Mg  Mg5       1.0  0.50000  1.00000  0.50000  1.0000
  Mg  Mg6       1.0  0.00000  0.50000  1.00000  1.0000
  H   H1        1.0  0.93706  0.80875  0.62036  1.0000
  H   H2        1.0  0.19125  0.06294  0.87964  1.0000
  H   H3        1.0  0.06294  0.19125  0.37964  1.0000
  H   H4        1.0  0.80875  0.93706  0.12036  1.0000
  H   H5        1.0  0.80477  0.95416  0.61962  1.0000
  H   H6        1.0  0.04584  0.19523  0.88038  1.0000
  H   H7        1.0  0.19523  0.04584  0.38038  1.0000
  H   H8        1.0  0.95416  0.80477  0.11962  1.0000
  H   H9        1.0  0.19066  0.24173  0.53244  1.0000
  H   H10       1.0  0.75827  0.80934  0.96756  1.0000
  H   H11       1.0  0.80934  0.75827  0.46756  1.0000
  H   H12       1.0  0.24173  0.19066  0.03244  1.0000
  H   H13       1.0  0.04004  0.23981  0.59598  1.0000
  H   H14       1.0  0.76019  0.95996  0.90402  1.0000
  H   H15       1.0  0.95996  0.76019  0.40402  1.0000
  H   H16       1.0  0.23981  0.04004  0.09598  1.0000
  H   H17       1.0  0.76073  0.06370  0.40515  1.0000
  H   H18       1.0  0.93630  0.23927  0.09485  1.0000
  H   H19       1.0  0.23927  0.93630  0.59485  1.0000
  H   H20       1.0  0.06370  0.76073  0.90515  1.0000
  H   H21       1.0  0.76262  0.19336  0.47982  1.0000
  H   H22       1.0  0.80664  0.23738  0.02018  1.0000
  H   H23       1.0  0.23738  0.80664  0.52018  1.0000
  H   H24       1.0  0.19336  0.76262  0.97982  1.0000
  C   C1        1.0  0.98640  0.38279  0.72771  1.0000
  C   C2        1.0  0.61722  0.01361  0.77229  1.0000
  C   C3        1.0  0.01361  0.61722  0.27229  1.0000
  C   C4        1.0  0.38278  0.98639  0.22771  1.0000
  C   C5        1.0  0.99222  0.45863  0.80979  1.0000
  C   C6        1.0  0.54137  0.00778  0.69021  1.0000
  C   C7        1.0  0.00778  0.54137  0.19021  1.0000
  C   C8        1.0  0.45863  0.99222  0.30978  1.0000
  C   C9        1.0  0.99926  0.62254  0.77206  1.0000
  C   C10       1.0  0.37746  0.00074  0.72794  1.0000
  C   C11       1.0  0.00074  0.37747  0.22794  1.0000
  C   C12       1.0  0.62253  0.99926  0.27206  1.0000
  C   C13       1.0  0.98974  0.54680  0.69004  1.0000
  C   C14       1.0  0.45320  0.01026  0.80996  1.0000
  C   C15       1.0  0.01026  0.45320  0.30996  1.0000
  C   C16       1.0  0.54680  0.98974  0.19004  1.0000
  C   C17       1.0  0.38027  0.54270  0.49660  1.0000
  C   C18       1.0  0.45730  0.61973  0.00340  1.0000
  C   C19       1.0  0.61973  0.45730  0.50340  1.0000
  C   C20       1.0  0.54270  0.38027  0.99660  1.0000
  C   C21       1.0  0.45570  0.38016  0.50482  1.0000
  C   C22       1.0  0.61985  0.54429  0.99517  1.0000
  C   C23       1.0  0.54429  0.61984  0.49518  1.0000
  C   C24       1.0  0.38016  0.45570  0.00482  1.0000
  O   O1        1.0  0.91467  0.92184  0.63915  1.0000
  O   O2        1.0  0.07816  0.08533  0.86085  1.0000
  O   O3        1.0  0.08533  0.07816  0.36085  1.0000
  O   O4        1.0  0.92184  0.91467  0.13915  1.0000
  O   O5        1.0  0.98155  0.23864  0.69989  1.0000
  O   O6        1.0  0.76136  0.01844  0.80011  1.0000
  O   O7        1.0  0.01845  0.76136  0.30011  1.0000
  O   O8        1.0  0.23864  0.98156  0.19989  1.0000
  O   O9        1.0  0.99151  0.40291  0.88175  1.0000
  O   O10       1.0  0.59709  0.00849  0.61825  1.0000
  O   O11       1.0  0.00850  0.59709  0.11825  1.0000
  O   O12       1.0  0.40291  0.99150  0.38175  1.0000
  O   O13       1.0  0.01197  0.76656  0.79993  1.0000
  O   O14       1.0  0.23344  0.98803  0.70007  1.0000
  O   O15       1.0  0.98803  0.23345  0.20007  1.0000
  O   O16       1.0  0.76655  0.01197  0.29993  1.0000
  O   O17       1.0  0.98577  0.60230  0.61796  1.0000
  O   O18       1.0  0.39771  0.01423  0.88204  1.0000
  O   O19       1.0  0.01423  0.39770  0.38204  1.0000
  O   O20       1.0  0.60230  0.98577  0.11796  1.0000
  O   O21       1.0  0.07662  0.27799  0.54141  1.0000
  O   O22       1.0  0.72201  0.92338  0.95859  1.0000
  O   O23       1.0  0.92338  0.72201  0.45859  1.0000
  O   O24       1.0  0.27799  0.07662  0.04141  1.0000
  O   O25       1.0  0.23651  0.59690  0.49207  1.0000
  O   O26       1.0  0.40310  0.76349  0.00793  1.0000
  O   O27       1.0  0.76349  0.40310  0.50793  1.0000
  O   O28       1.0  0.59690  0.23651  0.99207  1.0000
  O   O29       1.0  0.40014  0.23590  0.51118  1.0000
  O   O30       1.0  0.76410  0.59986  0.98882  1.0000
  O   O31       1.0  0.59986  0.76410  0.48883  1.0000
  O   O32       1.0  0.23590  0.40013  0.01117  1.0000
  O   O33       1.0  0.72300  0.08409  0.46183  1.0000
  O   O34       1.0  0.91591  0.27700  0.03817  1.0000
  O   O35       1.0  0.27700  0.91591  0.53817  1.0000
  O   O36       1.0  0.08409  0.72300  0.96183  1.0000
