data_image0
_chemical_formula_structural       Ag4H20C16N4O10
_chemical_formula_sum              "Ag4 H20 C16 N4 O10"
_cell_length_a       7.58214
_cell_length_b       8.55698
_cell_length_c       11.3225
_cell_angle_alpha    100.068
_cell_angle_beta     102.153
_cell_angle_gamma    115.765

_space_group_name_H-M_alt    "P 1"
_space_group_IT_number       1

loop_
  _space_group_symop_operation_xyz
  'x, y, z'

loop_
  _atom_site_type_symbol
  _atom_site_label
  _atom_site_symmetry_multiplicity
  _atom_site_fract_x
  _atom_site_fract_y
  _atom_site_fract_z
  _atom_site_occupancy
  Ag  Ag1       1.0  0.58594  0.14120  0.29789  1.0000
  Ag  Ag2       1.0  0.41407  0.85880  0.70211  1.0000
  Ag  Ag3       1.0  0.17937  0.96394  0.51457  1.0000
  Ag  Ag4       1.0  0.82063  0.03606  0.48543  1.0000
  H   H1        1.0  0.49862  0.79179  0.22894  1.0000
  H   H2        1.0  0.50139  0.20822  0.77106  1.0000
  H   H3        1.0  0.69298  0.92428  0.19606  1.0000
  H   H4        1.0  0.30703  0.07572  0.80394  1.0000
  H   H5        1.0  0.71827  0.57812  0.75408  1.0000
  H   H6        1.0  0.28173  0.42188  0.24592  1.0000
  H   H7        1.0  0.94610  0.46483  0.24485  1.0000
  H   H8        1.0  0.05389  0.53516  0.75514  1.0000
  H   H9        1.0  0.04348  0.70304  0.29063  1.0000
  H   H10       1.0  0.95651  0.29695  0.70937  1.0000
  H   H11       1.0  0.59448  0.41318  0.13640  1.0000
  H   H12       1.0  0.40550  0.58681  0.86359  1.0000
  H   H13       1.0  0.68574  0.64933  0.18610  1.0000
  H   H14       1.0  0.31425  0.35066  0.81390  1.0000
  H   H15       1.0  0.93647  0.69855  0.06146  1.0000
  H   H16       1.0  0.06352  0.30144  0.93853  1.0000
  H   H17       1.0  0.67682  0.55294  0.96327  1.0000
  H   H18       1.0  0.32317  0.44705  0.03673  1.0000
  H   H19       1.0  0.83766  0.45856  0.00849  1.0000
  H   H20       1.0  0.16233  0.54143  0.99150  1.0000
  C   C1        1.0  0.70372  0.46502  0.52727  1.0000
  C   C2        1.0  0.29628  0.53499  0.47273  1.0000
  C   C3        1.0  0.84022  0.65310  0.58044  1.0000
  C   C4        1.0  0.15978  0.34690  0.41956  1.0000
  C   C5        1.0  0.84773  0.56535  0.38828  1.0000
  C   C6        1.0  0.15227  0.43465  0.61172  1.0000
  C   C7        1.0  0.57030  0.32884  0.57819  1.0000
  C   C8        1.0  0.42971  0.67117  0.42181  1.0000
  C   C9        1.0  0.89811  0.78283  0.70458  1.0000
  C   C10       1.0  0.10190  0.21718  0.29542  1.0000
  C   C11       1.0  0.90413  0.57118  0.27042  1.0000
  C   C12       1.0  0.09586  0.42881  0.72958  1.0000
  C   C13       1.0  0.73173  0.54708  0.15775  1.0000
  C   C14       1.0  0.26826  0.45291  0.84224  1.0000
  C   C15       1.0  0.79988  0.56516  0.04139  1.0000
  C   C16       1.0  0.20011  0.43483  0.95861  1.0000
  N   N1        1.0  0.71056  0.41400  0.40696  1.0000
  N   N2        1.0  0.28944  0.58600  0.59304  1.0000
  N   N3        1.0  0.92695  0.71217  0.49068  1.0000
  N   N4        1.0  0.07305  0.28784  0.50932  1.0000
  O   O1        1.0  0.44881  0.16980  0.49981  1.0000
  O   O2        1.0  0.55120  0.83019  0.50019  1.0000
  O   O3        1.0  0.54611  0.88817  0.18583  1.0000
  O   O4        1.0  0.45389  0.11183  0.81417  1.0000
  O   O5        1.0  0.58322  0.37391  0.69479  1.0000
  O   O6        1.0  0.41679  0.62611  0.30521  1.0000
  O   O7        1.0  0.02324  0.94781  0.73048  1.0000
  O   O8        1.0  0.97677  0.05221  0.26952  1.0000
  O   O9        1.0  0.81341  0.71837  0.78860  1.0000
  O   O10       1.0  0.18660  0.28165  0.21140  1.0000
