data_image0
_chemical_formula_structural       Cu4H52C52N8O16
_chemical_formula_sum              "Cu4 H52 C52 N8 O16"
_cell_length_a       8.34853
_cell_length_b       9.95918
_cell_length_c       15.3053
_cell_angle_alpha    89.9992
_cell_angle_beta     89.9995
_cell_angle_gamma    101.203

_space_group_name_H-M_alt    "P 1"
_space_group_IT_number       1

loop_
  _space_group_symop_operation_xyz
  'x, y, z'

loop_
  _atom_site_type_symbol
  _atom_site_label
  _atom_site_symmetry_multiplicity
  _atom_site_fract_x
  _atom_site_fract_y
  _atom_site_fract_z
  _atom_site_occupancy
  Cu  Cu1       1.0  0.15087  0.72030  0.44206  1.0000
  Cu  Cu2       1.0  0.84913  0.77970  0.94206  1.0000
  Cu  Cu3       1.0  0.84913  0.27969  0.55794  1.0000
  Cu  Cu4       1.0  0.15088  0.22030  0.05794  1.0000
  H   H1        1.0  0.07901  0.58577  0.72120  1.0000
  H   H2        1.0  0.92099  0.91422  0.22120  1.0000
  H   H3        1.0  0.92097  0.41423  0.27880  1.0000
  H   H4        1.0  0.07901  0.08577  0.77880  1.0000
  H   H5        1.0  0.16688  0.38711  0.79201  1.0000
  H   H6        1.0  0.83312  0.11289  0.29200  1.0000
  H   H7        1.0  0.83310  0.61291  0.20800  1.0000
  H   H8        1.0  0.16689  0.88711  0.70800  1.0000
  H   H9        1.0  0.31632  0.23724  0.70647  1.0000
  H   H10       1.0  0.68369  0.26276  0.20647  1.0000
  H   H11       1.0  0.68367  0.76277  0.29353  1.0000
  H   H12       1.0  0.31633  0.73724  0.79353  1.0000
  H   H13       1.0  0.37297  0.28668  0.54874  1.0000
  H   H14       1.0  0.62704  0.21331  0.04874  1.0000
  H   H15       1.0  0.62702  0.71333  0.45126  1.0000
  H   H16       1.0  0.37299  0.78668  0.95126  1.0000
  H   H17       1.0  0.34785  0.40048  0.42142  1.0000
  H   H18       1.0  0.65215  0.09952  0.92142  1.0000
  H   H19       1.0  0.65215  0.59952  0.57858  1.0000
  H   H20       1.0  0.34785  0.90048  0.07858  1.0000
  H   H21       1.0  0.22506  0.48415  0.27692  1.0000
  H   H22       1.0  0.77495  0.01586  0.77691  1.0000
  H   H23       1.0  0.77493  0.51584  0.72308  1.0000
  H   H24       1.0  0.22507  0.98415  0.22308  1.0000
  H   H25       1.0  0.42016  0.58175  0.30123  1.0000
  H   H26       1.0  0.57983  0.91827  0.80124  1.0000
  H   H27       1.0  0.57984  0.41825  0.69877  1.0000
  H   H28       1.0  0.42016  0.08174  0.19877  1.0000
  H   H29       1.0  0.13847  0.98769  0.36156  1.0000
  H   H30       1.0  0.86153  0.51230  0.86156  1.0000
  H   H31       1.0  0.86151  0.01230  0.63843  1.0000
  H   H32       1.0  0.13848  0.48769  0.13843  1.0000
  H   H33       1.0  0.95046  0.79563  0.59095  1.0000
  H   H34       1.0  0.04953  0.70436  0.09095  1.0000
  H   H35       1.0  0.04951  0.20436  0.40904  1.0000
  H   H36       1.0  0.95049  0.29563  0.90905  1.0000
  H   H37       1.0  0.34714  0.05329  0.58655  1.0000
  H   H38       1.0  0.65286  0.44672  0.08655  1.0000
  H   H39       1.0  0.65285  0.94672  0.41345  1.0000
  H   H40       1.0  0.34715  0.55328  0.91346  1.0000
  H   H41       1.0  0.52550  0.05721  0.65278  1.0000
  H   H42       1.0  0.47450  0.44279  0.15279  1.0000
  H   H43       1.0  0.47449  0.94280  0.34721  1.0000
  H   H44       1.0  0.52551  0.55721  0.84722  1.0000
  H   H45       1.0  0.60177  0.86899  0.56878  1.0000
  H   H46       1.0  0.39822  0.63101  0.06878  1.0000
  H   H47       1.0  0.39822  0.13102  0.43121  1.0000
  H   H48       1.0  0.60179  0.36899  0.93122  1.0000
  H   H49       1.0  0.39238  0.81680  0.59890  1.0000
  H   H50       1.0  0.60761  0.68320  0.09890  1.0000
  H   H51       1.0  0.60762  0.18320  0.40110  1.0000
  H   H52       1.0  0.39240  0.31680  0.90110  1.0000
  C   C1        1.0  0.17346  0.55008  0.59402  1.0000
  C   C2        1.0  0.82655  0.94991  0.09402  1.0000
  C   C3        1.0  0.82653  0.44992  0.40598  1.0000
  C   C4        1.0  0.17347  0.05008  0.90598  1.0000
  C   C5        1.0  0.14398  0.51949  0.68415  1.0000
  C   C6        1.0  0.85603  0.98051  0.18415  1.0000
  C   C7        1.0  0.85602  0.48052  0.31585  1.0000
  C   C8        1.0  0.14398  0.01948  0.81585  1.0000
  C   C9        1.0  0.19387  0.40906  0.72311  1.0000
  C   C10       1.0  0.80614  0.09093  0.22311  1.0000
  C   C11       1.0  0.80612  0.59095  0.27690  1.0000
  C   C12       1.0  0.19387  0.90906  0.77690  1.0000
  C   C13       1.0  0.27728  0.32361  0.67499  1.0000
  C   C14       1.0  0.72273  0.17639  0.17499  1.0000
  C   C15       1.0  0.72272  0.67641  0.32501  1.0000
  C   C16       1.0  0.27728  0.82360  0.82501  1.0000
  C   C17       1.0  0.30661  0.35042  0.58710  1.0000
  C   C18       1.0  0.69340  0.14958  0.08711  1.0000
  C   C19       1.0  0.69338  0.64959  0.41290  1.0000
  C   C20       1.0  0.30663  0.85042  0.91290  1.0000
  C   C21       1.0  0.25524  0.46087  0.54444  1.0000
  C   C22       1.0  0.74476  0.03913  0.04444  1.0000
  C   C23       1.0  0.74475  0.53914  0.45556  1.0000
  C   C24       1.0  0.25526  0.96087  0.95556  1.0000
  C   C25       1.0  0.28701  0.47660  0.45245  1.0000
  C   C26       1.0  0.71298  0.02340  0.95245  1.0000
  C   C27       1.0  0.71298  0.52340  0.54755  1.0000
  C   C28       1.0  0.28703  0.97660  0.04755  1.0000
  C   C29       1.0  0.28838  0.57723  0.31074  1.0000
  C   C30       1.0  0.71162  0.92278  0.81074  1.0000
  C   C31       1.0  0.71161  0.42277  0.68926  1.0000
  C   C32       1.0  0.28839  0.07723  0.18926  1.0000
  C   C33       1.0  0.24408  0.70395  0.26876  1.0000
  C   C34       1.0  0.75591  0.79604  0.76875  1.0000
  C   C35       1.0  0.75593  0.29605  0.73124  1.0000
  C   C36       1.0  0.24408  0.20395  0.23125  1.0000
  C   C37       1.0  0.07593  0.99339  0.42326  1.0000
  C   C38       1.0  0.92407  0.50660  0.92326  1.0000
  C   C39       1.0  0.92405  0.00660  0.57674  1.0000
  C   C40       1.0  0.07595  0.49339  0.07674  1.0000
  C   C41       1.0  0.97273  0.88700  0.55036  1.0000
  C   C42       1.0  0.02726  0.61299  0.05036  1.0000
  C   C43       1.0  0.02724  0.11299  0.44963  1.0000
  C   C44       1.0  0.97276  0.38700  0.94963  1.0000
  C   C45       1.0  0.47418  0.03606  0.58705  1.0000
  C   C46       1.0  0.52582  0.46395  0.08705  1.0000
  C   C47       1.0  0.52582  0.96395  0.41295  1.0000
  C   C48       1.0  0.47418  0.53606  0.91295  1.0000
  C   C49       1.0  0.47822  0.89048  0.55992  1.0000
  C   C50       1.0  0.52177  0.60952  0.05992  1.0000
  C   C51       1.0  0.52177  0.10953  0.44008  1.0000
  C   C52       1.0  0.47824  0.39048  0.94009  1.0000
  N   N1        1.0  0.24749  0.57094  0.40325  1.0000
  N   N2        1.0  0.75251  0.92906  0.90325  1.0000
  N   N3        1.0  0.75250  0.42906  0.59675  1.0000
  N   N4        1.0  0.24751  0.07093  0.09675  1.0000
  N   N5        1.0  0.04901  0.88063  0.47361  1.0000
  N   N6        1.0  0.95098  0.61936  0.97362  1.0000
  N   N7        1.0  0.95096  0.11936  0.52638  1.0000
  N   N8        1.0  0.04903  0.38063  0.02638  1.0000
  O   O1        1.0  0.12508  0.65745  0.56177  1.0000
  O   O2        1.0  0.87493  0.84255  0.06177  1.0000
  O   O3        1.0  0.87491  0.34256  0.43823  1.0000
  O   O4        1.0  0.12510  0.15745  0.93823  1.0000
  O   O5        1.0  0.17634  0.78219  0.31897  1.0000
  O   O6        1.0  0.82367  0.71781  0.81897  1.0000
  O   O7        1.0  0.82366  0.21781  0.68103  1.0000
  O   O8        1.0  0.17634  0.28219  0.18103  1.0000
  O   O9        1.0  0.27456  0.72791  0.18996  1.0000
  O   O10       1.0  0.72542  0.77209  0.68997  1.0000
  O   O11       1.0  0.72546  0.27209  0.81004  1.0000
  O   O12       1.0  0.27455  0.22791  0.31003  1.0000
  O   O13       1.0  0.57258  0.13256  0.52963  1.0000
  O   O14       1.0  0.42742  0.36744  0.02963  1.0000
  O   O15       1.0  0.42740  0.86745  0.47037  1.0000
  O   O16       1.0  0.57259  0.63256  0.97037  1.0000
