data_image0
_chemical_formula_structural       Mn4H32C4S4N16O24
_chemical_formula_sum              "Mn4 H32 C4 S4 N16 O24"
_cell_length_a       7.10684
_cell_length_b       7.84366
_cell_length_c       14.0389
_cell_angle_alpha    90.0001
_cell_angle_beta     90.9073
_cell_angle_gamma    89.9995

_space_group_name_H-M_alt    "P 1"
_space_group_IT_number       1

loop_
  _space_group_symop_operation_xyz
  'x, y, z'

loop_
  _atom_site_type_symbol
  _atom_site_label
  _atom_site_symmetry_multiplicity
  _atom_site_fract_x
  _atom_site_fract_y
  _atom_site_fract_z
  _atom_site_occupancy
  Mn  Mn1       1.0  0.55234  0.59166  0.62037  1.0000
  Mn  Mn2       1.0  0.94765  0.09165  0.87963  1.0000
  Mn  Mn3       1.0  0.44766  0.40834  0.37963  1.0000
  Mn  Mn4       1.0  0.05234  0.90835  0.12037  1.0000
  H   H1        1.0  0.35202  0.86051  0.53801  1.0000
  H   H2        1.0  0.14797  0.36051  0.96199  1.0000
  H   H3        1.0  0.64797  0.13949  0.46199  1.0000
  H   H4        1.0  0.85202  0.63949  0.03801  1.0000
  H   H5        1.0  0.46144  0.93722  0.62932  1.0000
  H   H6        1.0  0.03857  0.43722  0.87069  1.0000
  H   H7        1.0  0.53857  0.06278  0.37068  1.0000
  H   H8        1.0  0.96143  0.56278  0.12931  1.0000
  H   H9        1.0  0.83829  0.86522  0.60733  1.0000
  H   H10       1.0  0.66170  0.36522  0.89267  1.0000
  H   H11       1.0  0.16170  0.13478  0.39267  1.0000
  H   H12       1.0  0.33830  0.63478  0.10733  1.0000
  H   H13       1.0  0.94090  0.67888  0.64084  1.0000
  H   H14       1.0  0.55910  0.17888  0.85916  1.0000
  H   H15       1.0  0.05910  0.32112  0.35916  1.0000
  H   H16       1.0  0.44090  0.82112  0.14084  1.0000
  H   H17       1.0  0.02616  0.78106  0.47662  1.0000
  H   H18       1.0  0.47384  0.28106  0.02338  1.0000
  H   H19       1.0  0.97384  0.21894  0.52338  1.0000
  H   H20       1.0  0.52617  0.71894  0.97662  1.0000
  H   H21       1.0  0.94279  0.68230  0.31651  1.0000
  H   H22       1.0  0.55721  0.18229  0.18349  1.0000
  H   H23       1.0  0.05721  0.31772  0.68349  1.0000
  H   H24       1.0  0.44280  0.81771  0.81651  1.0000
  H   H25       1.0  0.63318  0.61753  0.24713  1.0000
  H   H26       1.0  0.86682  0.11752  0.25287  1.0000
  H   H27       1.0  0.36681  0.38248  0.75287  1.0000
  H   H28       1.0  0.13318  0.88248  0.74713  1.0000
  H   H29       1.0  0.77229  0.44835  0.24556  1.0000
  H   H30       1.0  0.72772  0.94834  0.25444  1.0000
  H   H31       1.0  0.22772  0.55166  0.75444  1.0000
  H   H32       1.0  0.27229  0.05166  0.74556  1.0000
  C   C1        1.0  0.79147  0.63161  0.43991  1.0000
  C   C2        1.0  0.70852  0.13161  0.06009  1.0000
  C   C3        1.0  0.20852  0.36839  0.56009  1.0000
  C   C4        1.0  0.29147  0.86839  0.93991  1.0000
  S   S1        1.0  0.72304  0.18603  0.65900  1.0000
  S   S2        1.0  0.77696  0.68603  0.84100  1.0000
  S   S3        1.0  0.27696  0.81398  0.34100  1.0000
  S   S4        1.0  0.22304  0.31397  0.15900  1.0000
  N   N1        1.0  0.84881  0.73656  0.59414  1.0000
  N   N2        1.0  0.65118  0.23656  0.90587  1.0000
  N   N3        1.0  0.15118  0.26344  0.40586  1.0000
  N   N4        1.0  0.34882  0.76344  0.09413  1.0000
  N   N5        1.0  0.90947  0.71572  0.49983  1.0000
  N   N6        1.0  0.59053  0.21572  0.00018  1.0000
  N   N7        1.0  0.09052  0.28428  0.50017  1.0000
  N   N8        1.0  0.40948  0.78428  0.99982  1.0000
  N   N9        1.0  0.83628  0.61338  0.34712  1.0000
  N   N10       1.0  0.66372  0.11337  0.15288  1.0000
  N   N11       1.0  0.16372  0.38663  0.65288  1.0000
  N   N12       1.0  0.33628  0.88663  0.84712  1.0000
  N   N13       1.0  0.70151  0.52981  0.28924  1.0000
  N   N14       1.0  0.79848  0.02981  0.21076  1.0000
  N   N15       1.0  0.29848  0.47019  0.71075  1.0000
  N   N16       1.0  0.20152  0.97019  0.78924  1.0000
  O   O1        1.0  0.64130  0.56640  0.47042  1.0000
  O   O2        1.0  0.85870  0.06640  0.02958  1.0000
  O   O3        1.0  0.35870  0.43359  0.52958  1.0000
  O   O4        1.0  0.14129  0.93359  0.97042  1.0000
  O   O5        1.0  0.40198  0.83255  0.60303  1.0000
  O   O6        1.0  0.09801  0.33255  0.89697  1.0000
  O   O7        1.0  0.59802  0.16745  0.39697  1.0000
  O   O8        1.0  0.90198  0.66745  0.10303  1.0000
  O   O9        1.0  0.71844  0.37242  0.64439  1.0000
  O   O10       1.0  0.78156  0.87244  0.85561  1.0000
  O   O11       1.0  0.28156  0.62758  0.35561  1.0000
  O   O12       1.0  0.21844  0.12756  0.14438  1.0000
  O   O13       1.0  0.88479  0.14889  0.72561  1.0000
  O   O14       1.0  0.61519  0.64889  0.77438  1.0000
  O   O15       1.0  0.11520  0.85111  0.27439  1.0000
  O   O16       1.0  0.38480  0.35110  0.22562  1.0000
  O   O17       1.0  0.54235  0.12117  0.69653  1.0000
  O   O18       1.0  0.95768  0.62116  0.80346  1.0000
  O   O19       1.0  0.45766  0.87884  0.30347  1.0000
  O   O20       1.0  0.04233  0.37883  0.19653  1.0000
  O   O21       1.0  0.76461  0.09874  0.56619  1.0000
  O   O22       1.0  0.73538  0.59874  0.93382  1.0000
  O   O23       1.0  0.23539  0.90126  0.43382  1.0000
  O   O24       1.0  0.26462  0.40126  0.06618  1.0000
