data_image0
_chemical_formula_structural       Cd2H32C36N4O12
_chemical_formula_sum              "Cd2 H32 C36 N4 O12"
_cell_length_a       7.6481
_cell_length_b       9.99626
_cell_length_c       11.6991
_cell_angle_alpha    89.9988
_cell_angle_beta     89.9996
_cell_angle_gamma    90.7328

_space_group_name_H-M_alt    "P 1"
_space_group_IT_number       1

loop_
  _space_group_symop_operation_xyz
  'x, y, z'

loop_
  _atom_site_type_symbol
  _atom_site_label
  _atom_site_symmetry_multiplicity
  _atom_site_fract_x
  _atom_site_fract_y
  _atom_site_fract_z
  _atom_site_occupancy
  Cd  Cd1       1.0  0.75001  0.75000  0.22595  1.0000
  Cd  Cd2       1.0  0.25000  0.24999  0.77405  1.0000
  H   H1        1.0  0.47904  0.75629  0.01843  1.0000
  H   H2        1.0  0.97902  0.25629  0.98157  1.0000
  H   H3        1.0  0.52097  0.24370  0.98157  1.0000
  H   H4        1.0  0.02098  0.74368  0.01843  1.0000
  H   H5        1.0  0.03200  0.74613  0.80485  1.0000
  H   H6        1.0  0.53200  0.24615  0.19514  1.0000
  H   H7        1.0  0.96800  0.25385  0.19515  1.0000
  H   H8        1.0  0.46800  0.75385  0.80486  1.0000
  H   H9        1.0  0.93055  0.91722  0.64530  1.0000
  H   H10       1.0  0.43055  0.41723  0.35470  1.0000
  H   H11       1.0  0.06945  0.08277  0.35470  1.0000
  H   H12       1.0  0.56944  0.58277  0.64531  1.0000
  H   H13       1.0  0.07428  0.54030  0.43020  1.0000
  H   H14       1.0  0.57428  0.04031  0.56980  1.0000
  H   H15       1.0  0.92573  0.45973  0.56982  1.0000
  H   H16       1.0  0.42574  0.95971  0.43018  1.0000
  H   H17       1.0  0.91904  0.91267  0.43029  1.0000
  H   H18       1.0  0.41903  0.41270  0.56972  1.0000
  H   H19       1.0  0.08094  0.08733  0.56972  1.0000
  H   H20       1.0  0.58095  0.58730  0.43029  1.0000
  H   H21       1.0  0.05250  0.92878  0.18820  1.0000
  H   H22       1.0  0.55249  0.42878  0.81179  1.0000
  H   H23       1.0  0.94750  0.07122  0.81179  1.0000
  H   H24       1.0  0.44750  0.57122  0.18821  1.0000
  H   H25       1.0  0.86887  0.99765  0.15848  1.0000
  H   H26       1.0  0.36885  0.49764  0.84151  1.0000
  H   H27       1.0  0.13113  0.00235  0.84153  1.0000
  H   H28       1.0  0.63114  0.50235  0.15849  1.0000
  H   H29       1.0  0.16598  0.64129  0.61557  1.0000
  H   H30       1.0  0.66598  0.14130  0.38443  1.0000
  H   H31       1.0  0.83403  0.35875  0.38443  1.0000
  H   H32       1.0  0.33402  0.85875  0.61556  1.0000
  C   C1        1.0  0.84476  0.84104  0.48160  1.0000
  C   C2        1.0  0.34474  0.34104  0.51840  1.0000
  C   C3        1.0  0.15523  0.15897  0.51841  1.0000
  C   C4        1.0  0.65525  0.65896  0.48161  1.0000
  C   C5        1.0  0.85029  0.84340  0.60022  1.0000
  C   C6        1.0  0.35030  0.34341  0.39979  1.0000
  C   C7        1.0  0.14970  0.15660  0.39979  1.0000
  C   C8        1.0  0.64970  0.65659  0.60021  1.0000
  C   C9        1.0  0.74999  0.74999  0.78770  1.0000
  C   C10       1.0  0.25001  0.25000  0.21230  1.0000
  C   C11       1.0  0.75000  0.75000  0.66168  1.0000
  C   C12       1.0  0.25000  0.25000  0.33832  1.0000
  C   C13       1.0  0.90684  0.74916  0.84918  1.0000
  C   C14       1.0  0.40684  0.24918  0.15083  1.0000
  C   C15       1.0  0.09316  0.25082  0.15083  1.0000
  C   C16       1.0  0.59317  0.75081  0.84917  1.0000
  C   C17       1.0  0.90143  0.74767  0.96781  1.0000
  C   C18       1.0  0.40145  0.24768  0.03218  1.0000
  C   C19       1.0  0.09857  0.25231  0.03219  1.0000
  C   C20       1.0  0.59856  0.75230  0.96783  1.0000
  C   C21       1.0  0.19930  0.69074  0.32709  1.0000
  C   C22       1.0  0.69930  0.19075  0.67290  1.0000
  C   C23       1.0  0.80072  0.30927  0.67291  1.0000
  C   C24       1.0  0.30071  0.80926  0.32708  1.0000
  C   C25       1.0  0.14365  0.62222  0.21739  1.0000
  C   C26       1.0  0.64364  0.12223  0.78261  1.0000
  C   C27       1.0  0.85635  0.37777  0.78262  1.0000
  C   C28       1.0  0.35638  0.87776  0.21738  1.0000
  C   C29       1.0  0.34757  0.86795  0.43165  1.0000
  C   C30       1.0  0.84755  0.36796  0.56834  1.0000
  C   C31       1.0  0.65245  0.13207  0.56834  1.0000
  C   C32       1.0  0.15245  0.63206  0.43166  1.0000
  C   C33       1.0  0.29744  0.81023  0.53528  1.0000
  C   C34       1.0  0.79745  0.31024  0.46471  1.0000
  C   C35       1.0  0.70256  0.18980  0.46471  1.0000
  C   C36       1.0  0.20256  0.68980  0.53529  1.0000
  N   N1        1.0  0.74999  0.74998  0.42301  1.0000
  N   N2        1.0  0.25000  0.25002  0.57700  1.0000
  N   N3        1.0  0.75002  0.74999  0.02607  1.0000
  N   N4        1.0  0.24998  0.24999  0.97394  1.0000
  O   O1        1.0  0.92656  0.94595  0.21767  1.0000
  O   O2        1.0  0.42655  0.44595  0.78232  1.0000
  O   O3        1.0  0.07345  0.05404  0.78234  1.0000
  O   O4        1.0  0.57345  0.55405  0.21768  1.0000
  O   O5        1.0  0.98102  0.59938  0.20299  1.0000
  O   O6        1.0  0.48103  0.09939  0.79700  1.0000
  O   O7        1.0  0.01897  0.40060  0.79702  1.0000
  O   O8        1.0  0.51897  0.90059  0.20298  1.0000
  O   O9        1.0  0.26182  0.58817  0.14726  1.0000
  O   O10       1.0  0.76183  0.08817  0.85274  1.0000
  O   O11       1.0  0.73816  0.41182  0.85275  1.0000
  O   O12       1.0  0.23817  0.91182  0.14724  1.0000
