data_image0
_chemical_formula_structural       Co2H28C36N4O10
_chemical_formula_sum              "Co2 H28 C36 N4 O10"
_cell_length_a       8.29519
_cell_length_b       10.9352
_cell_length_c       11.3056
_cell_angle_alpha    116.274
_cell_angle_beta     90.1733
_cell_angle_gamma    89.8935

_space_group_name_H-M_alt    "P 1"
_space_group_IT_number       1

loop_
  _space_group_symop_operation_xyz
  'x, y, z'

loop_
  _atom_site_type_symbol
  _atom_site_label
  _atom_site_symmetry_multiplicity
  _atom_site_fract_x
  _atom_site_fract_y
  _atom_site_fract_z
  _atom_site_occupancy
  Co  Co1       1.0  0.50743  0.64344  0.58758  1.0000
  Co  Co2       1.0  0.00300  0.35626  0.41234  1.0000
  H   H1        1.0  0.64319  0.04635  0.53141  1.0000
  H   H2        1.0  0.14827  0.95194  0.46791  1.0000
  H   H3        1.0  0.77051  0.00177  0.31606  1.0000
  H   H4        1.0  0.27539  0.99903  0.68488  1.0000
  H   H5        1.0  0.95676  0.80671  0.20790  1.0000
  H   H6        1.0  0.45782  0.19658  0.79387  1.0000
  H   H7        1.0  0.99970  0.64628  0.30792  1.0000
  H   H8        1.0  0.49998  0.35517  0.69207  1.0000
  H   H9        1.0  0.38455  0.81589  0.47057  1.0000
  H   H10       1.0  0.88144  0.18253  0.52949  1.0000
  H   H11       1.0  0.37657  0.83322  0.26044  1.0000
  H   H12       1.0  0.87744  0.16594  0.73966  1.0000
  H   H13       1.0  0.59968  0.43282  0.07925  1.0000
  H   H14       1.0  0.09994  0.56654  0.91909  1.0000
  H   H15       1.0  0.59326  0.43249  0.29780  1.0000
  H   H16       1.0  0.08815  0.56665  0.70052  1.0000
  H   H17       1.0  0.32227  0.79264  0.84802  1.0000
  H   H18       1.0  0.82195  0.20892  0.15173  1.0000
  H   H19       1.0  0.30419  0.79147  0.06550  1.0000
  H   H20       1.0  0.80537  0.20882  0.93352  1.0000
  H   H21       1.0  0.70807  0.51043  0.94690  1.0000
  H   H22       1.0  0.20895  0.48985  0.05409  1.0000
  H   H23       1.0  0.70869  0.52656  0.73428  1.0000
  H   H24       1.0  0.20903  0.47378  0.26705  1.0000
  H   H25       1.0  0.16406  0.64473  0.55010  1.0000
  H   H26       1.0  0.66068  0.35639  0.44801  1.0000
  H   H27       1.0  0.24210  0.78956  0.63866  1.0000
  H   H28       1.0  0.74061  0.21102  0.36925  1.0000
  C   C1        1.0  0.74452  0.86880  0.53880  1.0000
  C   C2        1.0  0.24747  0.12986  0.46039  1.0000
  C   C3        1.0  0.72139  0.95802  0.48131  1.0000
  C   C4        1.0  0.22532  0.04106  0.51834  1.0000
  C   C5        1.0  0.79279  0.93395  0.36167  1.0000
  C   C6        1.0  0.29614  0.06673  0.63896  1.0000
  C   C7        1.0  0.89617  0.82288  0.29908  1.0000
  C   C8        1.0  0.39773  0.17899  0.70186  1.0000
  C   C9        1.0  0.92156  0.73461  0.35573  1.0000
  C   C10       1.0  0.42225  0.26659  0.64440  1.0000
  C   C11       1.0  0.84354  0.75318  0.47290  1.0000
  C   C12       1.0  0.34465  0.24660  0.52632  1.0000
  C   C13       1.0  0.66146  0.91070  0.67073  1.0000
  C   C14       1.0  0.16136  0.08863  0.32949  1.0000
  C   C15       1.0  0.86243  0.64123  0.51400  1.0000
  C   C16       1.0  0.36112  0.35825  0.48443  1.0000
  C   C17       1.0  0.42764  0.73170  0.38069  1.0000
  C   C18       1.0  0.92456  0.26728  0.61903  1.0000
  C   C19       1.0  0.42545  0.74129  0.26251  1.0000
  C   C20       1.0  0.92507  0.25795  0.73731  1.0000
  C   C21       1.0  0.49208  0.63502  0.14984  1.0000
  C   C22       1.0  0.99235  0.36454  0.84965  1.0000
  C   C23       1.0  0.55085  0.52107  0.16328  1.0000
  C   C24       1.0  0.04980  0.47832  0.83562  1.0000
  C   C25       1.0  0.54709  0.51946  0.28542  1.0000
  C   C26       1.0  0.04295  0.47985  0.71346  1.0000
  C   C27       1.0  0.40415  0.72989  0.87314  1.0000
  C   C28       1.0  0.90472  0.27075  0.12649  1.0000
  C   C29       1.0  0.39412  0.72760  0.99481  1.0000
  C   C30       1.0  0.89529  0.27261  0.00458  1.0000
  C   C31       1.0  0.50058  0.64441  0.02401  1.0000
  C   C32       1.0  0.00183  0.35557  0.97575  1.0000
  C   C33       1.0  0.61719  0.57211  0.92869  1.0000
  C   C34       1.0  0.11816  0.42808  0.07180  1.0000
  C   C35       1.0  0.61902  0.58065  0.80975  1.0000
  C   C36       1.0  0.11977  0.41972  0.19090  1.0000
  N   N1        1.0  0.48916  0.62453  0.39449  1.0000
  N   N2        1.0  0.98347  0.37479  0.60481  1.0000
  N   N3        1.0  0.51178  0.65551  0.77988  1.0000
  N   N4        1.0  0.01239  0.34500  0.22021  1.0000
  O   O1        1.0  0.71772  0.01147  0.76698  1.0000
  O   O2        1.0  0.21401  0.98804  0.23140  1.0000
  O   O3        1.0  0.53030  0.84785  0.67359  1.0000
  O   O4        1.0  0.02963  0.15362  0.33259  1.0000
  O   O5        1.0  0.75218  0.61442  0.57575  1.0000
  O   O6        1.0  0.25059  0.38420  0.42184  1.0000
  O   O7        1.0  0.99320  0.56943  0.47786  1.0000
  O   O8        1.0  0.49078  0.43126  0.52077  1.0000
  O   O9        1.0  0.25075  0.69312  0.61648  1.0000
  O   O10       1.0  0.74667  0.30500  0.38234  1.0000
