data_image0
_chemical_formula_structural       Co2H32C36N4O12
_chemical_formula_sum              "Co2 H32 C36 N4 O12"
_cell_length_a       7.34449
_cell_length_b       10.4216
_cell_length_c       11.2952
_cell_angle_alpha    90.0114
_cell_angle_beta     89.9886
_cell_angle_gamma    91.5476

_space_group_name_H-M_alt    "P 1"
_space_group_IT_number       1

loop_
  _space_group_symop_operation_xyz
  'x, y, z'

loop_
  _atom_site_type_symbol
  _atom_site_label
  _atom_site_symmetry_multiplicity
  _atom_site_fract_x
  _atom_site_fract_y
  _atom_site_fract_z
  _atom_site_occupancy
  Co  Co1       1.0  0.25185  0.25005  0.27978  1.0000
  Co  Co2       1.0  0.75186  0.75006  0.72024  1.0000
  H   H1        1.0  0.36812  0.43476  0.08574  1.0000
  H   H2        1.0  0.13656  0.06991  0.08702  1.0000
  H   H3        1.0  0.63657  0.56998  0.91291  1.0000
  H   H4        1.0  0.86813  0.93479  0.91434  1.0000
  H   H5        1.0  0.84351  0.34897  0.86514  1.0000
  H   H6        1.0  0.64941  0.14608  0.86590  1.0000
  H   H7        1.0  0.14918  0.64596  0.13405  1.0000
  H   H8        1.0  0.34335  0.84882  0.13488  1.0000
  H   H9        1.0  0.55397  0.41784  0.31088  1.0000
  H   H10       1.0  0.94805  0.08351  0.31199  1.0000
  H   H11       1.0  0.44807  0.58356  0.68799  1.0000
  H   H12       1.0  0.05407  0.91774  0.68919  1.0000
  H   H13       1.0  0.38069  0.43984  0.86346  1.0000
  H   H14       1.0  0.12175  0.06342  0.86491  1.0000
  H   H15       1.0  0.62174  0.56338  0.13502  1.0000
  H   H16       1.0  0.88069  0.93982  0.13662  1.0000
  H   H17       1.0  0.54171  0.28662  0.69702  1.0000
  H   H18       1.0  0.96046  0.21552  0.69785  1.0000
  H   H19       1.0  0.46046  0.71546  0.30224  1.0000
  H   H20       1.0  0.04168  0.78662  0.30288  1.0000
  H   H21       1.0  0.35884  0.47753  0.34060  1.0000
  H   H22       1.0  0.14367  0.02551  0.34385  1.0000
  H   H23       1.0  0.64377  0.52560  0.65613  1.0000
  H   H24       1.0  0.85893  0.97749  0.65951  1.0000
  H   H25       1.0  0.53138  0.27792  0.47625  1.0000
  H   H26       1.0  0.96987  0.22184  0.47691  1.0000
  H   H27       1.0  0.46994  0.72179  0.52316  1.0000
  H   H28       1.0  0.03140  0.77794  0.52366  1.0000
  H   H29       1.0  0.94685  0.44259  0.05720  1.0000
  H   H30       1.0  0.54757  0.05357  0.05875  1.0000
  H   H31       1.0  0.04740  0.55356  0.94113  1.0000
  H   H32       1.0  0.44669  0.94253  0.94288  1.0000
  C   C1        1.0  0.87085  0.36627  0.27689  1.0000
  C   C2        1.0  0.62652  0.13082  0.27794  1.0000
  C   C3        1.0  0.12649  0.63079  0.72199  1.0000
  C   C4        1.0  0.37084  0.86628  0.72314  1.0000
  C   C5        1.0  0.18636  0.15024  0.03339  1.0000
  C   C6        1.0  0.31797  0.35413  0.03267  1.0000
  C   C7        1.0  0.81794  0.85415  0.96739  1.0000
  C   C8        1.0  0.68635  0.65029  0.96657  1.0000
  C   C9        1.0  0.40710  0.26657  0.52847  1.0000
  C   C10       1.0  0.09442  0.23332  0.52886  1.0000
  C   C11       1.0  0.59443  0.73329  0.47117  1.0000
  C   C12       1.0  0.90712  0.76658  0.47145  1.0000
  C   C13       1.0  0.25139  0.25149  0.84613  1.0000
  C   C14       1.0  0.75137  0.75149  0.15388  1.0000
  C   C15       1.0  0.80507  0.30326  0.16390  1.0000
  C   C16       1.0  0.68941  0.19383  0.16433  1.0000
  C   C17       1.0  0.18929  0.69381  0.83563  1.0000
  C   C18       1.0  0.30494  0.80327  0.83611  1.0000
  C   C19       1.0  0.17980  0.14703  0.91050  1.0000
  C   C20       1.0  0.32331  0.35647  0.90976  1.0000
  C   C21       1.0  0.82329  0.85647  0.09030  1.0000
  C   C22       1.0  0.67977  0.64704  0.08945  1.0000
  C   C23       1.0  0.63593  0.13891  0.05632  1.0000
  C   C24       1.0  0.85810  0.35746  0.05549  1.0000
  C   C25       1.0  0.35792  0.85742  0.94456  1.0000
  C   C26       1.0  0.13576  0.63886  0.94360  1.0000
  C   C27       1.0  0.25115  0.25091  0.71555  1.0000
  C   C28       1.0  0.75115  0.75088  0.28446  1.0000
  C   C29       1.0  0.41245  0.27043  0.65132  1.0000
  C   C30       1.0  0.08959  0.23084  0.65175  1.0000
  C   C31       1.0  0.58957  0.73078  0.34828  1.0000
  C   C32       1.0  0.91248  0.77042  0.34862  1.0000
  C   C33       1.0  0.69217  0.19178  0.94867  1.0000
  C   C34       1.0  0.80115  0.30385  0.94828  1.0000
  C   C35       1.0  0.30097  0.80375  0.05173  1.0000
  C   C36       1.0  0.19200  0.69169  0.05128  1.0000
  N   N1        1.0  0.25064  0.24940  0.46768  1.0000
  N   N2        1.0  0.75069  0.74942  0.53232  1.0000
  N   N3        1.0  0.25282  0.25232  0.09438  1.0000
  N   N4        1.0  0.75280  0.75235  0.90566  1.0000
  O   O1        1.0  0.04315  0.37756  0.29088  1.0000
  O   O2        1.0  0.45472  0.11627  0.29426  1.0000
  O   O3        1.0  0.95469  0.61622  0.70565  1.0000
  O   O4        1.0  0.54313  0.87759  0.70916  1.0000
  O   O5        1.0  0.42148  0.42545  0.28270  1.0000
  O   O6        1.0  0.08078  0.07613  0.28496  1.0000
  O   O7        1.0  0.58081  0.57619  0.71504  1.0000
  O   O8        1.0  0.92150  0.92538  0.71739  1.0000
  O   O9        1.0  0.75486  0.40778  0.34945  1.0000
  O   O10       1.0  0.74519  0.09236  0.35003  1.0000
  O   O11       1.0  0.24524  0.59235  0.64993  1.0000
  O   O12       1.0  0.25485  0.90777  0.65059  1.0000
