data_image0
_chemical_formula_structural       Gd4H24C12O36
_chemical_formula_sum              "Gd4 H24 C12 O36"
_cell_length_a       9.2376
_cell_length_b       9.9447
_cell_length_c       11.2406
_cell_angle_alpha    114.41
_cell_angle_beta     90
_cell_angle_gamma    90

_space_group_name_H-M_alt    "P 1"
_space_group_IT_number       1

loop_
  _space_group_symop_operation_xyz
  'x, y, z'

loop_
  _atom_site_type_symbol
  _atom_site_label
  _atom_site_symmetry_multiplicity
  _atom_site_fract_x
  _atom_site_fract_y
  _atom_site_fract_z
  _atom_site_occupancy
  Gd  Gd1       1.0  0.04219  0.16239  0.80303  1.0000
  Gd  Gd2       1.0  0.54219  0.33761  0.19697  1.0000
  Gd  Gd3       1.0  0.95781  0.83760  0.19696  1.0000
  Gd  Gd4       1.0  0.45781  0.66240  0.80304  1.0000
  H   H1        1.0  0.32458  0.01283  0.78968  1.0000
  H   H2        1.0  0.82459  0.48716  0.21031  1.0000
  H   H3        1.0  0.67543  0.98716  0.21031  1.0000
  H   H4        1.0  0.17543  0.51283  0.78968  1.0000
  H   H5        1.0  0.36614  0.18484  0.88187  1.0000
  H   H6        1.0  0.86614  0.31514  0.11812  1.0000
  H   H7        1.0  0.63386  0.81515  0.11812  1.0000
  H   H8        1.0  0.13386  0.68484  0.88187  1.0000
  H   H9        1.0  0.77748  0.95478  0.74918  1.0000
  H   H10       1.0  0.27749  0.54521  0.25082  1.0000
  H   H11       1.0  0.22250  0.04521  0.25082  1.0000
  H   H12       1.0  0.72251  0.45479  0.74918  1.0000
  H   H13       1.0  0.74857  0.09698  0.87253  1.0000
  H   H14       1.0  0.24857  0.40302  0.12747  1.0000
  H   H15       1.0  0.25144  0.90302  0.12747  1.0000
  H   H16       1.0  0.75144  0.59698  0.87253  1.0000
  H   H17       1.0  0.29363  0.33071  0.75159  1.0000
  H   H18       1.0  0.79363  0.16929  0.24840  1.0000
  H   H19       1.0  0.70637  0.66929  0.24840  1.0000
  H   H20       1.0  0.20637  0.83071  0.75159  1.0000
  H   H21       1.0  0.20184  0.29742  0.62572  1.0000
  H   H22       1.0  0.70184  0.20258  0.37428  1.0000
  H   H23       1.0  0.79816  0.70258  0.37428  1.0000
  H   H24       1.0  0.29816  0.79742  0.62572  1.0000
  C   C1        1.0  0.97438  0.07368  0.05357  1.0000
  C   C2        1.0  0.47438  0.42631  0.94642  1.0000
  C   C3        1.0  0.02562  0.92630  0.94642  1.0000
  C   C4        1.0  0.52562  0.57370  0.05357  1.0000
  C   C5        1.0  0.07431  0.50244  0.03240  1.0000
  C   C6        1.0  0.57431  0.99755  0.96760  1.0000
  C   C7        1.0  0.92569  0.49754  0.96760  1.0000
  C   C8        1.0  0.42569  0.00245  0.03240  1.0000
  C   C9        1.0  0.94806  0.06253  0.50194  1.0000
  C   C10       1.0  0.44807  0.43750  0.49808  1.0000
  C   C11       1.0  0.05192  0.93749  0.49807  1.0000
  C   C12       1.0  0.55194  0.56254  0.50196  1.0000
  O   O1        1.0  0.97183  0.18325  0.02339  1.0000
  O   O2        1.0  0.47183  0.31673  0.97660  1.0000
  O   O3        1.0  0.02817  0.81673  0.97661  1.0000
  O   O4        1.0  0.52816  0.68326  0.02340  1.0000
  O   O5        1.0  0.11091  0.62253  0.12501  1.0000
  O   O6        1.0  0.61091  0.87748  0.87501  1.0000
  O   O7        1.0  0.88909  0.37746  0.87501  1.0000
  O   O8        1.0  0.38908  0.12255  0.12501  1.0000
  O   O9        1.0  0.14745  0.38363  0.98806  1.0000
  O   O10       1.0  0.64745  0.11638  0.01195  1.0000
  O   O11       1.0  0.85255  0.61637  0.01194  1.0000
  O   O12       1.0  0.35255  0.88365  0.98807  1.0000
  O   O13       1.0  0.28754  0.11455  0.83268  1.0000
  O   O14       1.0  0.78754  0.38545  0.16732  1.0000
  O   O15       1.0  0.71246  0.88545  0.16732  1.0000
  O   O16       1.0  0.21246  0.61455  0.83268  1.0000
  O   O17       1.0  0.19244  0.31091  0.71640  1.0000
  O   O18       1.0  0.69244  0.18909  0.28359  1.0000
  O   O19       1.0  0.80757  0.68908  0.28359  1.0000
  O   O20       1.0  0.30756  0.81092  0.71640  1.0000
  O   O21       1.0  0.93035  0.17044  0.61074  1.0000
  O   O22       1.0  0.43036  0.32957  0.38926  1.0000
  O   O23       1.0  0.06963  0.82956  0.38925  1.0000
  O   O24       1.0  0.56965  0.67045  0.61075  1.0000
  O   O25       1.0  0.89009  0.04484  0.39394  1.0000
  O   O26       1.0  0.39009  0.45517  0.60605  1.0000
  O   O27       1.0  0.10990  0.95517  0.60605  1.0000
  O   O28       1.0  0.60992  0.54484  0.39396  1.0000
  O   O29       1.0  0.06086  0.92643  0.83790  1.0000
  O   O30       1.0  0.56087  0.57356  0.16210  1.0000
  O   O31       1.0  0.93913  0.07355  0.16210  1.0000
  O   O32       1.0  0.43913  0.42644  0.83791  1.0000
  O   O33       1.0  0.79877  0.06036  0.78641  1.0000
  O   O34       1.0  0.29877  0.43963  0.21359  1.0000
  O   O35       1.0  0.20123  0.93962  0.21358  1.0000
  O   O36       1.0  0.70124  0.56037  0.78642  1.0000
