data_image0
_chemical_formula_structural       Cu2H18C14N14
_chemical_formula_sum              "Cu2 H18 C14 N14"
_cell_length_a       5.79257
_cell_length_b       9.83194
_cell_length_c       9.33756
_cell_angle_alpha    80.2572
_cell_angle_beta     78.3049
_cell_angle_gamma    86.0243

_space_group_name_H-M_alt    "P 1"
_space_group_IT_number       1

loop_
  _space_group_symop_operation_xyz
  'x, y, z'

loop_
  _atom_site_type_symbol
  _atom_site_label
  _atom_site_symmetry_multiplicity
  _atom_site_fract_x
  _atom_site_fract_y
  _atom_site_fract_z
  _atom_site_occupancy
  Cu  Cu1       1.0  0.21677  0.52855  0.07002  1.0000
  Cu  Cu2       1.0  0.78321  0.47146  0.92997  1.0000
  H   H1        1.0  0.88705  0.77934  0.50113  1.0000
  H   H2        1.0  0.11301  0.22063  0.49888  1.0000
  H   H3        1.0  0.20699  0.95029  0.44399  1.0000
  H   H4        1.0  0.79306  0.04968  0.55604  1.0000
  H   H5        1.0  0.52067  0.75338  0.06915  1.0000
  H   H6        1.0  0.47934  0.24663  0.93084  1.0000
  H   H7        1.0  0.70895  0.59088  0.43957  1.0000
  H   H8        1.0  0.29109  0.40916  0.56042  1.0000
  H   H9        1.0  0.92253  0.46542  0.37296  1.0000
  H   H10       1.0  0.07744  0.53459  0.62704  1.0000
  H   H11       1.0  0.77195  0.57450  0.24817  1.0000
  H   H12       1.0  0.22803  0.42549  0.75183  1.0000
  H   H13       1.0  0.70823  0.95278  0.10817  1.0000
  H   H14       1.0  0.29178  0.04725  0.89185  1.0000
  H   H15       1.0  0.68035  0.96805  0.29777  1.0000
  H   H16       1.0  0.31966  0.03196  0.70225  1.0000
  H   H17       1.0  0.50473  0.07568  0.18777  1.0000
  H   H18       1.0  0.49529  0.92433  0.81225  1.0000
  C   C1        1.0  0.03693  0.67508  0.31775  1.0000
  C   C2        1.0  0.96311  0.32493  0.68224  1.0000
  C   C3        1.0  0.03275  0.77635  0.40709  1.0000
  C   C4        1.0  0.96729  0.22363  0.59293  1.0000
  C   C5        1.0  0.20953  0.87162  0.37400  1.0000
  C   C6        1.0  0.79052  0.12835  0.62601  1.0000
  C   C7        1.0  0.39164  0.86775  0.25043  1.0000
  C   C8        1.0  0.60839  0.13226  0.74958  1.0000
  C   C9        1.0  0.38562  0.76361  0.16710  1.0000
  C   C10       1.0  0.61440  0.23640  0.83289  1.0000
  C   C11       1.0  0.84964  0.57097  0.34689  1.0000
  C   C12       1.0  0.15035  0.42904  0.65310  1.0000
  C   C13       1.0  0.58203  0.97066  0.20834  1.0000
  C   C14       1.0  0.41798  0.02934  0.79168  1.0000
  N   N1        1.0  0.47928  0.40624  0.12989  1.0000
  N   N2        1.0  0.52065  0.59378  0.87009  1.0000
  N   N3        1.0  0.48947  0.34712  0.25314  1.0000
  N   N4        1.0  0.51048  0.65285  0.74685  1.0000
  N   N5        1.0  0.50798  0.28766  0.36976  1.0000
  N   N6        1.0  0.49198  0.71228  0.63020  1.0000
  N   N7        1.0  0.96826  0.62919  0.96224  1.0000
  N   N8        1.0  0.03168  0.37082  0.03778  1.0000
  N   N9        1.0  0.95047  0.75164  0.91496  1.0000
  N   N10       1.0  0.04949  0.24838  0.08502  1.0000
  N   N11       1.0  0.92962  0.86849  0.87000  1.0000
  N   N12       1.0  0.07034  0.13150  0.12995  1.0000
  N   N13       1.0  0.21520  0.67043  0.19978  1.0000
  N   N14       1.0  0.78482  0.32958  0.80021  1.0000
