data_image0
_chemical_formula_structural       Cu4H24C20I4N8
_chemical_formula_sum              "Cu4 H24 C20 I4 N8"
_cell_length_a       4.16414
_cell_length_b       9.985
_cell_length_c       17.0928
_cell_angle_alpha    97.7061
_cell_angle_beta     90.0009
_cell_angle_gamma    90.0012

_space_group_name_H-M_alt    "P 1"
_space_group_IT_number       1

loop_
  _space_group_symop_operation_xyz
  'x, y, z'

loop_
  _atom_site_type_symbol
  _atom_site_label
  _atom_site_symmetry_multiplicity
  _atom_site_fract_x
  _atom_site_fract_y
  _atom_site_fract_z
  _atom_site_occupancy
  Cu  Cu1       1.0  0.14351  0.96964  0.55895  1.0000
  Cu  Cu2       1.0  0.64349  0.53036  0.94105  1.0000
  Cu  Cu3       1.0  0.85652  0.03038  0.44105  1.0000
  Cu  Cu4       1.0  0.35652  0.46964  0.05895  1.0000
  H   H1        1.0  0.91909  0.81856  0.68359  1.0000
  H   H2        1.0  0.41906  0.68142  0.81641  1.0000
  H   H3        1.0  0.08094  0.18143  0.31641  1.0000
  H   H4        1.0  0.58093  0.31859  0.18360  1.0000
  H   H5        1.0  0.97088  0.82898  0.82861  1.0000
  H   H6        1.0  0.47088  0.67101  0.67138  1.0000
  H   H7        1.0  0.02912  0.17102  0.17138  1.0000
  H   H8        1.0  0.52908  0.32899  0.32862  1.0000
  H   H9        1.0  0.21700  0.94759  0.95021  1.0000
  H   H10       1.0  0.71701  0.55240  0.54979  1.0000
  H   H11       1.0  0.78299  0.05239  0.04979  1.0000
  H   H12       1.0  0.28295  0.44761  0.45021  1.0000
  H   H13       1.0  0.41820  0.10194  0.95006  1.0000
  H   H14       1.0  0.91822  0.39805  0.54994  1.0000
  H   H15       1.0  0.58178  0.89804  0.04994  1.0000
  H   H16       1.0  0.08175  0.60196  0.45006  1.0000
  H   H17       1.0  0.53656  0.19262  0.82672  1.0000
  H   H18       1.0  0.03656  0.30737  0.67328  1.0000
  H   H19       1.0  0.46345  0.80737  0.17328  1.0000
  H   H20       1.0  0.96343  0.69264  0.32672  1.0000
  H   H21       1.0  0.47138  0.16371  0.68109  1.0000
  H   H22       1.0  0.97137  0.33627  0.81891  1.0000
  H   H23       1.0  0.52865  0.83628  0.31891  1.0000
  H   H24       1.0  0.02865  0.66374  0.18109  1.0000
  C   C1        1.0  0.05820  0.89915  0.71731  1.0000
  C   C2        1.0  0.55818  0.60083  0.78269  1.0000
  C   C3        1.0  0.94183  0.10084  0.28268  1.0000
  C   C4        1.0  0.44185  0.39917  0.21732  1.0000
  C   C5        1.0  0.08719  0.90512  0.79818  1.0000
  C   C6        1.0  0.58718  0.59487  0.70181  1.0000
  C   C7        1.0  0.91281  0.09487  0.20181  1.0000
  C   C8        1.0  0.41279  0.40514  0.29820  1.0000
  C   C9        1.0  0.26420  0.01148  0.84095  1.0000
  C   C10       1.0  0.76419  0.48852  0.65906  1.0000
  C   C11       1.0  0.73581  0.98851  0.15905  1.0000
  C   C12       1.0  0.23577  0.51150  0.34094  1.0000
  C   C13       1.0  0.39819  0.10808  0.79706  1.0000
  C   C14       1.0  0.89818  0.39191  0.70294  1.0000
  C   C15       1.0  0.60182  0.89192  0.20294  1.0000
  C   C16       1.0  0.10181  0.60810  0.29706  1.0000
  C   C17       1.0  0.36068  0.09236  0.71608  1.0000
  C   C18       1.0  0.86067  0.40763  0.78391  1.0000
  C   C19       1.0  0.63935  0.90763  0.28392  1.0000
  C   C20       1.0  0.13934  0.59238  0.21608  1.0000
  I   I1        1.0  0.32258  0.18798  0.49788  1.0000
  I   I2        1.0  0.82255  0.31202  0.00213  1.0000
  I   I3        1.0  0.67743  0.81203  0.50212  1.0000
  I   I4        1.0  0.17745  0.68797  0.99787  1.0000
  N   N1        1.0  0.19303  0.98979  0.67502  1.0000
  N   N2        1.0  0.69302  0.51019  0.82497  1.0000
  N   N3        1.0  0.80700  0.01021  0.32498  1.0000
  N   N4        1.0  0.30701  0.48981  0.17503  1.0000
  N   N5        1.0  0.30681  0.02003  0.91995  1.0000
  N   N6        1.0  0.80687  0.47997  0.58005  1.0000
  N   N7        1.0  0.69316  0.97996  0.08005  1.0000
  N   N8        1.0  0.19311  0.52004  0.41995  1.0000
