data_image0
_chemical_formula_structural       K4H4C14N2Cl2O10
_chemical_formula_sum              "K4 H4 C14 N2 Cl2 O10"
_cell_length_a       6.92156
_cell_length_b       9.15101
_cell_length_c       9.21868
_cell_angle_alpha    63.4746
_cell_angle_beta     75.3421
_cell_angle_gamma    75.0439

_space_group_name_H-M_alt    "P 1"
_space_group_IT_number       1

loop_
  _space_group_symop_operation_xyz
  'x, y, z'

loop_
  _atom_site_type_symbol
  _atom_site_label
  _atom_site_symmetry_multiplicity
  _atom_site_fract_x
  _atom_site_fract_y
  _atom_site_fract_z
  _atom_site_occupancy
  K   K1        1.0  0.21281  0.95800  0.61568  1.0000
  K   K2        1.0  0.78719  0.04200  0.38431  1.0000
  K   K3        1.0  0.36287  0.26452  0.04587  1.0000
  K   K4        1.0  0.63713  0.73548  0.95414  1.0000
  H   H1        1.0  0.12082  0.65995  0.97076  1.0000
  H   H2        1.0  0.87918  0.34006  0.02924  1.0000
  H   H3        1.0  0.10250  0.63651  0.81700  1.0000
  H   H4        1.0  0.89751  0.36349  0.18300  1.0000
  C   C1        1.0  0.25147  0.48947  0.59978  1.0000
  C   C2        1.0  0.74853  0.51053  0.40022  1.0000
  C   C3        1.0  0.16676  0.65406  0.46746  1.0000
  C   C4        1.0  0.83324  0.34594  0.53255  1.0000
  C   C5        1.0  0.18499  0.66081  0.30839  1.0000
  C   C6        1.0  0.81501  0.33919  0.69161  1.0000
  C   C7        1.0  0.26997  0.52615  0.26358  1.0000
  C   C8        1.0  0.73003  0.47385  0.73643  1.0000
  C   C9        1.0  0.34569  0.35938  0.39715  1.0000
  C   C10       1.0  0.65431  0.64062  0.60285  1.0000
  C   C11       1.0  0.33775  0.35172  0.55674  1.0000
  C   C12       1.0  0.66226  0.64829  0.44325  1.0000
  C   C13       1.0  0.40960  0.19909  0.67821  1.0000
  C   C14       1.0  0.59040  0.80090  0.32180  1.0000
  N   N1        1.0  0.46810  0.06841  0.77581  1.0000
  N   N2        1.0  0.53190  0.93160  0.22419  1.0000
  Cl  Cl1       1.0  0.10143  0.84869  0.15628  1.0000
  Cl  Cl2       1.0  0.89856  0.15131  0.84372  1.0000
  O   O1        1.0  0.24185  0.48237  0.74040  1.0000
  O   O2        1.0  0.75815  0.51763  0.25960  1.0000
  O   O3        1.0  0.08768  0.77365  0.50771  1.0000
  O   O4        1.0  0.91232  0.22635  0.49229  1.0000
  O   O5        1.0  0.28922  0.53349  0.12076  1.0000
  O   O6        1.0  0.71078  0.46652  0.87924  1.0000
  O   O7        1.0  0.41172  0.23697  0.35999  1.0000
  O   O8        1.0  0.58828  0.76303  0.64001  1.0000
  O   O9        1.0  0.04865  0.71068  0.87530  1.0000
  O   O10       1.0  0.95135  0.28932  0.12470  1.0000
