data_image0
_chemical_formula_structural       K8H48C40O44
_chemical_formula_sum              "K8 H48 C40 O44"
_cell_length_a       6.83255
_cell_length_b       13.0231
_cell_length_c       18.2391
_cell_angle_alpha    109.535
_cell_angle_beta     89.975
_cell_angle_gamma    105.213

_space_group_name_H-M_alt    "P 1"
_space_group_IT_number       1

loop_
  _space_group_symop_operation_xyz
  'x, y, z'

loop_
  _atom_site_type_symbol
  _atom_site_label
  _atom_site_symmetry_multiplicity
  _atom_site_fract_x
  _atom_site_fract_y
  _atom_site_fract_z
  _atom_site_occupancy
  K   K1        1.0  0.92754  0.16523  0.23439  1.0000
  K   K2        1.0  0.76317  0.83531  0.26568  1.0000
  K   K3        1.0  0.07246  0.83477  0.76561  1.0000
  K   K4        1.0  0.23681  0.16469  0.73433  1.0000
  K   K5        1.0  0.50800  0.29940  0.56388  1.0000
  K   K6        1.0  0.20847  0.70076  0.93647  1.0000
  K   K7        1.0  0.49201  0.70060  0.43612  1.0000
  K   K8        1.0  0.79153  0.29924  0.06353  1.0000
  H   H1        1.0  0.13790  0.47497  0.40084  1.0000
  H   H2        1.0  0.66278  0.52539  0.09934  1.0000
  H   H3        1.0  0.86210  0.52503  0.59916  1.0000
  H   H4        1.0  0.33722  0.47461  0.90066  1.0000
  H   H5        1.0  0.21643  0.38547  0.31494  1.0000
  H   H6        1.0  0.83068  0.61480  0.18527  1.0000
  H   H7        1.0  0.78357  0.61454  0.68506  1.0000
  H   H8        1.0  0.16932  0.38520  0.81473  1.0000
  H   H9        1.0  0.36533  0.42955  0.40640  1.0000
  H   H10       1.0  0.93573  0.57047  0.09385  1.0000
  H   H11       1.0  0.63467  0.57046  0.59360  1.0000
  H   H12       1.0  0.06427  0.42952  0.90615  1.0000
  H   H13       1.0  0.74886  0.91578  0.69071  1.0000
  H   H14       1.0  0.83229  0.08398  0.80923  1.0000
  H   H15       1.0  0.25113  0.08422  0.30928  1.0000
  H   H16       1.0  0.16771  0.91602  0.19077  1.0000
  H   H17       1.0  0.54222  0.80527  0.62690  1.0000
  H   H18       1.0  0.73574  0.19436  0.87300  1.0000
  H   H19       1.0  0.45778  0.19473  0.37310  1.0000
  H   H20       1.0  0.26426  0.80564  0.12700  1.0000
  H   H21       1.0  0.50171  0.93699  0.68743  1.0000
  H   H22       1.0  0.56387  0.06242  0.81258  1.0000
  H   H23       1.0  0.49829  0.06301  0.31257  1.0000
  H   H24       1.0  0.43613  0.93758  0.18743  1.0000
  H   H25       1.0  0.71965  0.45920  0.46126  1.0000
  H   H26       1.0  0.26015  0.54078  0.03869  1.0000
  H   H27       1.0  0.28035  0.54080  0.53874  1.0000
  H   H28       1.0  0.73985  0.45922  0.96131  1.0000
  H   H29       1.0  0.67003  0.35122  0.38635  1.0000
  H   H30       1.0  0.31946  0.64877  0.11362  1.0000
  H   H31       1.0  0.32997  0.64878  0.61365  1.0000
  H   H32       1.0  0.68054  0.35123  0.88638  1.0000
  H   H33       1.0  0.51974  0.52957  0.77276  1.0000
  H   H34       1.0  0.99067  0.47049  0.72740  1.0000
  H   H35       1.0  0.48026  0.47042  0.22725  1.0000
  H   H36       1.0  0.00933  0.52951  0.27260  1.0000
  H   H37       1.0  0.37088  0.41798  0.71142  1.0000
  H   H38       1.0  0.95319  0.58211  0.78862  1.0000
  H   H39       1.0  0.62912  0.58202  0.28858  1.0000
  H   H40       1.0  0.04681  0.41789  0.21138  1.0000
  H   H41       1.0  0.76481  0.36822  0.26373  1.0000
  H   H42       1.0  0.39774  0.63189  0.23619  1.0000
  H   H43       1.0  0.23519  0.63178  0.73627  1.0000
  H   H44       1.0  0.60226  0.36810  0.76381  1.0000
  H   H45       1.0  0.55290  0.27480  0.24528  1.0000
  H   H46       1.0  0.27922  0.72527  0.25464  1.0000
  H   H47       1.0  0.44710  0.72520  0.75471  1.0000
  H   H48       1.0  0.72077  0.27472  0.74536  1.0000
  C   C1        1.0  0.81257  0.08179  0.54162  1.0000
  C   C2        1.0  0.73088  0.91815  0.95842  1.0000
  C   C3        1.0  0.18743  0.91821  0.45837  1.0000
  C   C4        1.0  0.26912  0.08186  0.04159  1.0000
  C   C5        1.0  0.92799  0.19240  0.54749  1.0000
  C   C6        1.0  0.73579  0.80758  0.95259  1.0000
  C   C7        1.0  0.07201  0.80760  0.45250  1.0000
  C   C8        1.0  0.26421  0.19242  0.04741  1.0000
  C   C9        1.0  0.99969  0.28861  0.62378  1.0000
  C   C10       1.0  0.71104  0.71125  0.87633  1.0000
  C   C11       1.0  0.00031  0.71139  0.37622  1.0000
  C   C12       1.0  0.28895  0.28875  0.12367  1.0000
  C   C13       1.0  0.96380  0.20447  0.47348  1.0000
  C   C14       1.0  0.75994  0.79566  0.02661  1.0000
  C   C15       1.0  0.03620  0.79553  0.52652  1.0000
  C   C16       1.0  0.24007  0.20434  0.97339  1.0000
  C   C17       1.0  0.08304  0.30800  0.46428  1.0000
  C   C18       1.0  0.77582  0.69220  0.03585  1.0000
  C   C19       1.0  0.91696  0.69200  0.53572  1.0000
  C   C20       1.0  0.22418  0.30780  0.96415  1.0000
  C   C21       1.0  0.86824  0.09685  0.41499  1.0000
  C   C22       1.0  0.77215  0.90338  0.08508  1.0000
  C   C23       1.0  0.13176  0.90316  0.58501  1.0000
  C   C24       1.0  0.22785  0.09662  0.91492  1.0000
  C   C25       1.0  0.76636  0.01509  0.45971  1.0000
  C   C26       1.0  0.75159  0.98496  0.04031  1.0000
  C   C27       1.0  0.23364  0.98491  0.54029  1.0000
  C   C28       1.0  0.24842  0.01504  0.95969  1.0000
  C   C29       1.0  0.21084  0.40635  0.37800  1.0000
  C   C30       1.0  0.80445  0.59388  0.12220  1.0000
  C   C31       1.0  0.78917  0.59366  0.62200  1.0000
  C   C32       1.0  0.19555  0.40612  0.87780  1.0000
  C   C33       1.0  0.61001  0.89665  0.65314  1.0000
  C   C34       1.0  0.71246  0.10298  0.84684  1.0000
  C   C35       1.0  0.38999  0.10335  0.34686  1.0000
  C   C36       1.0  0.28754  0.89702  0.15317  1.0000
  C   C37       1.0  0.75971  0.04778  0.60829  1.0000
  C   C38       1.0  0.71156  0.95202  0.89173  1.0000
  C   C39       1.0  0.24029  0.95222  0.39171  1.0000
  C   C40       1.0  0.28844  0.04798  0.10827  1.0000
  O   O1        1.0  0.17884  0.39298  0.51973  1.0000
  O   O2        1.0  0.78689  0.60720  0.98045  1.0000
  O   O3        1.0  0.82115  0.60702  0.48027  1.0000
  O   O4        1.0  0.21309  0.39280  0.01955  1.0000
  O   O5        1.0  0.08846  0.30410  0.38902  1.0000
  O   O6        1.0  0.78496  0.69618  0.11113  1.0000
  O   O7        1.0  0.91154  0.69590  0.61098  1.0000
  O   O8        1.0  0.21504  0.30382  0.88887  1.0000
  O   O9        1.0  0.85894  0.06350  0.34245  1.0000
  O   O10       1.0  0.79662  0.93690  0.15761  1.0000
  O   O11       1.0  0.14106  0.93650  0.65755  1.0000
  O   O12       1.0  0.20339  0.06310  0.84239  1.0000
  O   O13       1.0  0.66947  0.91517  0.42431  1.0000
  O   O14       1.0  0.75439  0.08487  0.07568  1.0000
  O   O15       1.0  0.33053  0.08483  0.57569  1.0000
  O   O16       1.0  0.24562  0.91513  0.92432  1.0000
  O   O17       1.0  0.65581  0.93608  0.58807  1.0000
  O   O18       1.0  0.71925  0.06373  0.91195  1.0000
  O   O19       1.0  0.34419  0.06392  0.41193  1.0000
  O   O20       1.0  0.28077  0.93628  0.08805  1.0000
  O   O21       1.0  0.80623  0.11086  0.67763  1.0000
  O   O22       1.0  0.69475  0.88888  0.82240  1.0000
  O   O23       1.0  0.19376  0.88914  0.32237  1.0000
  O   O24       1.0  0.30526  0.11112  0.17760  1.0000
  O   O25       1.0  0.87798  0.34795  0.64878  1.0000
  O   O26       1.0  0.52992  0.65186  0.85155  1.0000
  O   O27       1.0  0.12201  0.65205  0.35122  1.0000
  O   O28       1.0  0.47008  0.34814  0.14846  1.0000
  O   O29       1.0  0.17265  0.30088  0.65574  1.0000
  O   O30       1.0  0.87154  0.69900  0.84419  1.0000
  O   O31       1.0  0.82735  0.69912  0.34426  1.0000
  O   O32       1.0  0.12846  0.30100  0.15581  1.0000
  O   O33       1.0  0.66162  0.37606  0.44360  1.0000
  O   O34       1.0  0.28574  0.62395  0.05640  1.0000
  O   O35       1.0  0.33838  0.62395  0.55640  1.0000
  O   O36       1.0  0.71426  0.37605  0.94360  1.0000
  O   O37       1.0  0.51622  0.45686  0.73025  1.0000
  O   O38       1.0  0.05978  0.54327  0.76983  1.0000
  O   O39       1.0  0.48377  0.54313  0.26975  1.0000
  O   O40       1.0  0.94022  0.45673  0.23017  1.0000
  O   O41       1.0  0.67880  0.30573  0.28023  1.0000
  O   O42       1.0  0.37459  0.69453  0.21978  1.0000
  O   O43       1.0  0.32120  0.69427  0.71977  1.0000
  O   O44       1.0  0.62540  0.30546  0.78022  1.0000
