data_image0
_chemical_formula_structural       K4H20C16O12
_chemical_formula_sum              "K4 H20 C16 O12"
_cell_length_a       3.8911
_cell_length_b       8.8174
_cell_length_c       15.394
_cell_angle_alpha    90.0004
_cell_angle_beta     97.0192
_cell_angle_gamma    90.0001

_space_group_name_H-M_alt    "P 1"
_space_group_IT_number       1

loop_
  _space_group_symop_operation_xyz
  'x, y, z'

loop_
  _atom_site_type_symbol
  _atom_site_label
  _atom_site_symmetry_multiplicity
  _atom_site_fract_x
  _atom_site_fract_y
  _atom_site_fract_z
  _atom_site_occupancy
  K   K1        1.0  0.69398  0.33170  0.28373  1.0000
  K   K2        1.0  0.80599  0.83170  0.21628  1.0000
  K   K3        1.0  0.30601  0.66829  0.71627  1.0000
  K   K4        1.0  0.19399  0.16829  0.78372  1.0000
  H   H1        1.0  0.81753  0.11007  0.95824  1.0000
  H   H2        1.0  0.68247  0.61007  0.54176  1.0000
  H   H3        1.0  0.18246  0.88992  0.04175  1.0000
  H   H4        1.0  0.31755  0.38992  0.45825  1.0000
  H   H5        1.0  0.42849  0.18890  0.98607  1.0000
  H   H6        1.0  0.07152  0.68890  0.51393  1.0000
  H   H7        1.0  0.57151  0.81110  0.01393  1.0000
  H   H8        1.0  0.92849  0.31110  0.48607  1.0000
  H   H9        1.0  0.75963  0.13750  0.07001  1.0000
  H   H10       1.0  0.74038  0.63750  0.42999  1.0000
  H   H11       1.0  0.24038  0.86251  0.92999  1.0000
  H   H12       1.0  0.25962  0.36251  0.57002  1.0000
  H   H13       1.0  0.23790  0.56137  0.24376  1.0000
  H   H14       1.0  0.26209  0.06137  0.25624  1.0000
  H   H15       1.0  0.76209  0.43863  0.75623  1.0000
  H   H16       1.0  0.73791  0.93863  0.74377  1.0000
  H   H17       1.0  0.27295  0.64437  0.33474  1.0000
  H   H18       1.0  0.22705  0.14437  0.16526  1.0000
  H   H19       1.0  0.72706  0.35563  0.66526  1.0000
  H   H20       1.0  0.77294  0.85564  0.83474  1.0000
  C   C1        1.0  0.71061  0.18694  0.00443  1.0000
  C   C2        1.0  0.78939  0.68694  0.49557  1.0000
  C   C3        1.0  0.28938  0.81306  0.99556  1.0000
  C   C4        1.0  0.21062  0.31306  0.50444  1.0000
  C   C5        1.0  0.85778  0.34425  0.00324  1.0000
  C   C6        1.0  0.64221  0.84424  0.49676  1.0000
  C   C7        1.0  0.14218  0.65576  0.99675  1.0000
  C   C8        1.0  0.35782  0.15576  0.50325  1.0000
  C   C9        1.0  0.05037  0.40781  0.07783  1.0000
  C   C10       1.0  0.44964  0.90782  0.42217  1.0000
  C   C11       1.0  0.94963  0.59219  0.92216  1.0000
  C   C12       1.0  0.55036  0.09218  0.57784  1.0000
  C   C13       1.0  0.18681  0.57089  0.07475  1.0000
  C   C14       1.0  0.31318  0.07089  0.42525  1.0000
  C   C15       1.0  0.81317  0.42911  0.92524  1.0000
  C   C16       1.0  0.68684  0.92911  0.57476  1.0000
  O   O1        1.0  0.12397  0.33748  0.15021  1.0000
  O   O2        1.0  0.37601  0.83748  0.34979  1.0000
  O   O3        1.0  0.87597  0.66253  0.84978  1.0000
  O   O4        1.0  0.62402  0.16252  0.65023  1.0000
  O   O5        1.0  0.33750  0.62602  0.14637  1.0000
  O   O6        1.0  0.16250  0.12602  0.35363  1.0000
  O   O7        1.0  0.66248  0.37398  0.85362  1.0000
  O   O8        1.0  0.83752  0.87398  0.64638  1.0000
  O   O9        1.0  0.18873  0.54843  0.30580  1.0000
  O   O10       1.0  0.31127  0.04843  0.19420  1.0000
  O   O11       1.0  0.81128  0.45158  0.69419  1.0000
  O   O12       1.0  0.68873  0.95158  0.80581  1.0000
