data_image0
_chemical_formula_structural       Cs4H28C36O12
_chemical_formula_sum              "Cs4 H28 C36 O12"
_cell_length_a       6.68186
_cell_length_b       8.55067
_cell_length_c       17.0934
_cell_angle_alpha    90.0001
_cell_angle_beta     90.0001
_cell_angle_gamma    107.932

_space_group_name_H-M_alt    "P 1"
_space_group_IT_number       1

loop_
  _space_group_symop_operation_xyz
  'x, y, z'

loop_
  _atom_site_type_symbol
  _atom_site_label
  _atom_site_symmetry_multiplicity
  _atom_site_fract_x
  _atom_site_fract_y
  _atom_site_fract_z
  _atom_site_occupancy
  Cs  Cs1       1.0  0.21979  0.04475  0.59227  1.0000
  Cs  Cs2       1.0  0.28021  0.45525  0.09227  1.0000
  Cs  Cs3       1.0  0.78021  0.95525  0.40773  1.0000
  Cs  Cs4       1.0  0.71979  0.54475  0.90773  1.0000
  H   H1        1.0  0.81332  0.27167  0.69256  1.0000
  H   H2        1.0  0.68668  0.22833  0.19256  1.0000
  H   H3        1.0  0.18668  0.72833  0.30744  1.0000
  H   H4        1.0  0.31332  0.77167  0.80744  1.0000
  H   H5        1.0  0.53827  0.20357  0.79477  1.0000
  H   H6        1.0  0.96173  0.29643  0.29477  1.0000
  H   H7        1.0  0.46173  0.79643  0.20523  1.0000
  H   H8        1.0  0.03827  0.70358  0.70523  1.0000
  H   H9        1.0  0.23796  0.31960  0.78847  1.0000
  H   H10       1.0  0.26204  0.18040  0.28847  1.0000
  H   H11       1.0  0.76204  0.68040  0.21153  1.0000
  H   H12       1.0  0.73796  0.81960  0.71153  1.0000
  H   H13       1.0  0.21296  0.49773  0.67579  1.0000
  H   H14       1.0  0.28704  0.00227  0.17579  1.0000
  H   H15       1.0  0.78703  0.50226  0.32421  1.0000
  H   H16       1.0  0.71296  0.99773  0.82421  1.0000
  H   H17       1.0  0.47919  0.55722  0.57112  1.0000
  H   H18       1.0  0.02081  0.94279  0.07112  1.0000
  H   H19       1.0  0.52080  0.44278  0.42888  1.0000
  H   H20       1.0  0.97919  0.05722  0.92888  1.0000
  H   H21       1.0  0.66903  0.00715  0.59027  1.0000
  H   H22       1.0  0.83097  0.49285  0.09027  1.0000
  H   H23       1.0  0.33097  0.99285  0.40973  1.0000
  H   H24       1.0  0.16904  0.50715  0.90973  1.0000
  H   H25       1.0  0.64850  0.82076  0.58687  1.0000
  H   H26       1.0  0.85150  0.67924  0.08687  1.0000
  H   H27       1.0  0.35150  0.17924  0.41313  1.0000
  H   H28       1.0  0.14850  0.32076  0.91313  1.0000
  C   C1        1.0  0.91788  0.33804  0.53382  1.0000
  C   C2        1.0  0.58213  0.16196  0.03382  1.0000
  C   C3        1.0  0.08212  0.66196  0.46618  1.0000
  C   C4        1.0  0.41788  0.83804  0.96618  1.0000
  C   C5        1.0  0.83272  0.46028  0.56208  1.0000
  C   C6        1.0  0.66728  0.03972  0.06208  1.0000
  C   C7        1.0  0.16727  0.53972  0.43792  1.0000
  C   C8        1.0  0.33272  0.96028  0.93792  1.0000
  C   C9        1.0  0.90872  0.62057  0.52981  1.0000
  C   C10       1.0  0.59127  0.87943  0.02981  1.0000
  C   C11       1.0  0.09127  0.37943  0.47019  1.0000
  C   C12       1.0  0.40872  0.12057  0.97019  1.0000
  C   C13       1.0  0.66987  0.42149  0.62392  1.0000
  C   C14       1.0  0.83013  0.07851  0.12392  1.0000
  C   C15       1.0  0.33012  0.57851  0.37608  1.0000
  C   C16       1.0  0.16988  0.92149  0.87608  1.0000
  C   C17       1.0  0.68194  0.32131  0.68829  1.0000
  C   C18       1.0  0.81806  0.17869  0.18829  1.0000
  C   C19       1.0  0.31806  0.67869  0.31171  1.0000
  C   C20       1.0  0.18194  0.82131  0.81171  1.0000
  C   C21       1.0  0.52746  0.28393  0.74638  1.0000
  C   C22       1.0  0.97254  0.21606  0.24638  1.0000
  C   C23       1.0  0.47254  0.71606  0.25362  1.0000
  C   C24       1.0  0.02746  0.78394  0.75362  1.0000
  C   C25       1.0  0.35807  0.34762  0.74292  1.0000
  C   C26       1.0  0.14193  0.15237  0.24292  1.0000
  C   C27       1.0  0.64192  0.65237  0.25708  1.0000
  C   C28       1.0  0.85808  0.84763  0.75708  1.0000
  C   C29       1.0  0.34471  0.44797  0.67979  1.0000
  C   C30       1.0  0.15529  0.05203  0.17979  1.0000
  C   C31       1.0  0.65528  0.55203  0.32021  1.0000
  C   C32       1.0  0.84471  0.94797  0.82021  1.0000
  C   C33       1.0  0.49687  0.48306  0.62086  1.0000
  C   C34       1.0  0.00313  0.01694  0.12085  1.0000
  C   C35       1.0  0.50312  0.51694  0.37915  1.0000
  C   C36       1.0  0.99688  0.98307  0.87915  1.0000
  O   O1        1.0  0.84737  0.74058  0.55069  1.0000
  O   O2        1.0  0.65263  0.75942  0.05069  1.0000
  O   O3        1.0  0.15263  0.25942  0.44931  1.0000
  O   O4        1.0  0.34737  0.24058  0.94931  1.0000
  O   O5        1.0  0.86030  0.18997  0.55669  1.0000
  O   O6        1.0  0.63971  0.31003  0.05669  1.0000
  O   O7        1.0  0.13970  0.81003  0.44331  1.0000
  O   O8        1.0  0.36030  0.68997  0.94331  1.0000
  O   O9        1.0  0.56691  0.89681  0.59758  1.0000
  O   O10       1.0  0.93309  0.60319  0.09758  1.0000
  O   O11       1.0  0.43309  0.10319  0.40242  1.0000
  O   O12       1.0  0.06692  0.39681  0.90242  1.0000
