data_image0
_chemical_formula_structural       K4H28C36O12
_chemical_formula_sum              "K4 H28 C36 O12"
_cell_length_a       6.4931
_cell_length_b       8.16109
_cell_length_c       16.8971
_cell_angle_alpha    90.0001
_cell_angle_beta     90.0004
_cell_angle_gamma    106.958

_space_group_name_H-M_alt    "P 1"
_space_group_IT_number       1

loop_
  _space_group_symop_operation_xyz
  'x, y, z'

loop_
  _atom_site_type_symbol
  _atom_site_label
  _atom_site_symmetry_multiplicity
  _atom_site_fract_x
  _atom_site_fract_y
  _atom_site_fract_z
  _atom_site_occupancy
  K   K1        1.0  0.30223  0.97058  0.57780  1.0000
  K   K2        1.0  0.19778  0.52941  0.07780  1.0000
  K   K3        1.0  0.69778  0.02945  0.42221  1.0000
  K   K4        1.0  0.80222  0.47057  0.92220  1.0000
  H   H1        1.0  0.04165  0.45048  0.57097  1.0000
  H   H2        1.0  0.45835  0.04950  0.07098  1.0000
  H   H3        1.0  0.95836  0.54953  0.42902  1.0000
  H   H4        1.0  0.54166  0.95049  0.92902  1.0000
  H   H5        1.0  0.31612  0.51714  0.67661  1.0000
  H   H6        1.0  0.18388  0.98286  0.17660  1.0000
  H   H7        1.0  0.68389  0.48287  0.32339  1.0000
  H   H8        1.0  0.81612  0.01714  0.82339  1.0000
  H   H9        1.0  0.27944  0.69859  0.79138  1.0000
  H   H10       1.0  0.22056  0.80140  0.29137  1.0000
  H   H11       1.0  0.72058  0.30141  0.20862  1.0000
  H   H12       1.0  0.77941  0.19859  0.70862  1.0000
  H   H13       1.0  0.95889  0.80714  0.80001  1.0000
  H   H14       1.0  0.54111  0.69285  0.30001  1.0000
  H   H15       1.0  0.04111  0.19285  0.19999  1.0000
  H   H16       1.0  0.45887  0.30715  0.69999  1.0000
  H   H17       1.0  0.67752  0.73337  0.69668  1.0000
  H   H18       1.0  0.82247  0.76662  0.19668  1.0000
  H   H19       1.0  0.32248  0.26662  0.30332  1.0000
  H   H20       1.0  0.17751  0.23337  0.80332  1.0000
  H   H21       1.0  0.85416  0.98210  0.59317  1.0000
  H   H22       1.0  0.64585  0.51789  0.09317  1.0000
  H   H23       1.0  0.14584  0.01791  0.40683  1.0000
  H   H24       1.0  0.35415  0.48210  0.90683  1.0000
  H   H25       1.0  0.89480  0.17767  0.58745  1.0000
  H   H26       1.0  0.60520  0.32231  0.08745  1.0000
  H   H27       1.0  0.10520  0.82233  0.41255  1.0000
  H   H28       1.0  0.39480  0.67767  0.91255  1.0000
  C   C1        1.0  0.57500  0.66716  0.53520  1.0000
  C   C2        1.0  0.92501  0.83284  0.03520  1.0000
  C   C3        1.0  0.42501  0.33285  0.46481  1.0000
  C   C4        1.0  0.07499  0.16715  0.96481  1.0000
  C   C5        1.0  0.67038  0.54270  0.56309  1.0000
  C   C6        1.0  0.82962  0.95730  0.06308  1.0000
  C   C7        1.0  0.32962  0.45729  0.43692  1.0000
  C   C8        1.0  0.17038  0.04269  0.93692  1.0000
  C   C9        1.0  0.60052  0.37641  0.52962  1.0000
  C   C10       1.0  0.89948  0.12359  0.02962  1.0000
  C   C11       1.0  0.39947  0.62359  0.47038  1.0000
  C   C12       1.0  0.10052  0.87640  0.97038  1.0000
  C   C13       1.0  0.01975  0.52577  0.62177  1.0000
  C   C14       1.0  0.48026  0.97423  0.12177  1.0000
  C   C15       1.0  0.98027  0.47425  0.37822  1.0000
  C   C16       1.0  0.51975  0.02576  0.87823  1.0000
  C   C17       1.0  0.83666  0.58522  0.62575  1.0000
  C   C18       1.0  0.66334  0.91479  0.12574  1.0000
  C   C19       1.0  0.16335  0.41479  0.37426  1.0000
  C   C20       1.0  0.33666  0.08520  0.87426  1.0000
  C   C21       1.0  0.17622  0.56483  0.68110  1.0000
  C   C22       1.0  0.32378  0.93517  0.18110  1.0000
  C   C23       1.0  0.82380  0.43519  0.31890  1.0000
  C   C24       1.0  0.67621  0.06482  0.81890  1.0000
  C   C25       1.0  0.15616  0.66660  0.74556  1.0000
  C   C26       1.0  0.34383  0.83341  0.24556  1.0000
  C   C27       1.0  0.84385  0.33341  0.25444  1.0000
  C   C28       1.0  0.65615  0.16659  0.75443  1.0000
  C   C29       1.0  0.97572  0.72697  0.75020  1.0000
  C   C30       1.0  0.52428  0.77303  0.25019  1.0000
  C   C31       1.0  0.02429  0.27303  0.24980  1.0000
  C   C32       1.0  0.47570  0.22697  0.74981  1.0000
  C   C33       1.0  0.81729  0.68602  0.69159  1.0000
  C   C34       1.0  0.68272  0.81398  0.19159  1.0000
  C   C35       1.0  0.18272  0.31398  0.30841  1.0000
  C   C36       1.0  0.31728  0.18601  0.80841  1.0000
  O   O1        1.0  0.62505  0.82094  0.55950  1.0000
  O   O2        1.0  0.87496  0.67906  0.05950  1.0000
  O   O3        1.0  0.37494  0.17906  0.44050  1.0000
  O   O4        1.0  0.12504  0.32092  0.94050  1.0000
  O   O5        1.0  0.66890  0.25208  0.55023  1.0000
  O   O6        1.0  0.83111  0.24792  0.05022  1.0000
  O   O7        1.0  0.33111  0.74793  0.44977  1.0000
  O   O8        1.0  0.16889  0.75207  0.94977  1.0000
  O   O9        1.0  0.97083  0.09153  0.59710  1.0000
  O   O10       1.0  0.52917  0.40847  0.09710  1.0000
  O   O11       1.0  0.02916  0.90849  0.40291  1.0000
  O   O12       1.0  0.47083  0.59152  0.90290  1.0000
