data_image0
_chemical_formula_structural       Li2H34C38O6
_chemical_formula_sum              "Li2 H34 C38 O6"
_cell_length_a       7.8182
_cell_length_b       8.41469
_cell_length_c       12.541
_cell_angle_alpha    87.9802
_cell_angle_beta     83.0895
_cell_angle_gamma    72.9289

_space_group_name_H-M_alt    "P 1"
_space_group_IT_number       1

loop_
  _space_group_symop_operation_xyz
  'x, y, z'

loop_
  _atom_site_type_symbol
  _atom_site_label
  _atom_site_symmetry_multiplicity
  _atom_site_fract_x
  _atom_site_fract_y
  _atom_site_fract_z
  _atom_site_occupancy
  Li  Li1       1.0  0.98206  0.38070  0.57472  1.0000
  Li  Li2       1.0  0.01794  0.61929  0.42528  1.0000
  H   H1        1.0  0.24844  0.33261  0.68984  1.0000
  H   H2        1.0  0.75155  0.66739  0.31016  1.0000
  H   H3        1.0  0.04656  0.47041  0.82312  1.0000
  H   H4        1.0  0.95343  0.52961  0.17688  1.0000
  H   H5        1.0  0.95201  0.67952  0.96950  1.0000
  H   H6        1.0  0.04799  0.32050  0.03049  1.0000
  H   H7        1.0  0.17398  0.80998  0.02831  1.0000
  H   H8        1.0  0.82603  0.19003  0.97169  1.0000
  H   H9        1.0  0.48982  0.72583  0.93955  1.0000
  H   H10       1.0  0.51019  0.27417  0.06044  1.0000
  H   H11       1.0  0.58405  0.51387  0.79548  1.0000
  H   H12       1.0  0.41595  0.48613  0.20452  1.0000
  H   H13       1.0  0.53345  0.09839  0.56877  1.0000
  H   H14       1.0  0.46655  0.90161  0.43123  1.0000
  H   H15       1.0  0.71948  0.81376  0.60622  1.0000
  H   H16       1.0  0.28052  0.18624  0.39378  1.0000
  H   H17       1.0  0.78835  0.73166  0.79312  1.0000
  H   H18       1.0  0.21164  0.26834  0.20688  1.0000
  H   H19       1.0  0.66835  0.93990  0.94135  1.0000
  H   H20       1.0  0.33164  0.06011  0.05865  1.0000
  H   H21       1.0  0.48332  0.22530  0.90201  1.0000
  H   H22       1.0  0.51668  0.77470  0.09799  1.0000
  H   H23       1.0  0.23468  0.84315  0.54508  1.0000
  H   H24       1.0  0.76533  0.15685  0.45492  1.0000
  H   H25       1.0  0.09384  0.79384  0.65742  1.0000
  H   H26       1.0  0.90617  0.20616  0.34258  1.0000
  H   H27       1.0  0.30792  0.80718  0.67711  1.0000
  H   H28       1.0  0.69209  0.19281  0.32289  1.0000
  H   H29       1.0  0.95816  0.21422  0.77936  1.0000
  H   H30       1.0  0.04184  0.78578  0.22064  1.0000
  H   H31       1.0  0.17210  0.08259  0.81220  1.0000
  H   H32       1.0  0.82789  0.91740  0.18781  1.0000
  H   H33       1.0  0.98897  0.99911  0.81361  1.0000
  H   H34       1.0  0.01104  0.00088  0.18639  1.0000
  C   C1        1.0  0.32075  0.49251  0.52849  1.0000
  C   C2        1.0  0.67924  0.50749  0.47150  1.0000
  C   C3        1.0  0.61986  0.43784  0.58035  1.0000
  C   C4        1.0  0.38013  0.56216  0.41965  1.0000
  C   C5        1.0  0.44203  0.42665  0.60335  1.0000
  C   C6        1.0  0.55797  0.57335  0.39665  1.0000
  C   C7        1.0  0.37503  0.35377  0.70702  1.0000
  C   C8        1.0  0.62496  0.64623  0.29298  1.0000
  C   C9        1.0  0.32187  0.47817  0.79881  1.0000
  C   C10       1.0  0.67813  0.52183  0.20119  1.0000
  C   C11       1.0  0.14434  0.52649  0.84890  1.0000
  C   C12       1.0  0.85566  0.47351  0.15110  1.0000
  C   C13       1.0  0.09051  0.64517  0.93102  1.0000
  C   C14       1.0  0.90949  0.35484  0.06898  1.0000
  C   C15       1.0  0.21437  0.71772  0.96420  1.0000
  C   C16       1.0  0.78564  0.28228  0.03580  1.0000
  C   C17       1.0  0.39176  0.66985  0.91495  1.0000
  C   C18       1.0  0.60824  0.33015  0.08505  1.0000
  C   C19       1.0  0.44550  0.55113  0.83353  1.0000
  C   C20       1.0  0.55450  0.44887  0.16647  1.0000
  C   C21       1.0  0.56348  0.06359  0.65063  1.0000
  C   C22       1.0  0.43651  0.93641  0.34937  1.0000
  C   C23       1.0  0.66753  0.90277  0.67188  1.0000
  C   C24       1.0  0.33246  0.09723  0.32811  1.0000
  C   C25       1.0  0.70633  0.85705  0.77654  1.0000
  C   C26       1.0  0.29366  0.14295  0.22346  1.0000
  C   C27       1.0  0.63926  0.97361  0.85917  1.0000
  C   C28       1.0  0.36074  0.02639  0.14083  1.0000
  C   C29       1.0  0.53468  0.13451  0.83742  1.0000
  C   C30       1.0  0.46532  0.86549  0.16258  1.0000
  C   C31       1.0  0.11369  0.04121  0.65694  1.0000
  C   C32       1.0  0.88633  0.95879  0.34306  1.0000
  C   C33       1.0  0.19289  0.86094  0.63125  1.0000
  C   C34       1.0  0.80712  0.13906  0.36875  1.0000
  C   C35       1.0  0.05190  0.08852  0.77252  1.0000
  C   C36       1.0  0.94811  0.91148  0.22748  1.0000
  C   C37       1.0  0.49651  0.18234  0.73283  1.0000
  C   C38       1.0  0.50349  0.81765  0.26717  1.0000
  O   O1        1.0  0.15327  0.50127  0.54358  1.0000
  O   O2        1.0  0.84673  0.49873  0.45642  1.0000
  O   O3        1.0  0.73917  0.39480  0.64416  1.0000
  O   O4        1.0  0.26082  0.60519  0.35583  1.0000
  O   O5        1.0  0.10308  0.14786  0.58539  1.0000
  O   O6        1.0  0.89694  0.85214  0.41462  1.0000
