data_image0
_chemical_formula_structural       Lu2H28C24O20
_chemical_formula_sum              "Lu2 H28 C24 O20"
_cell_length_a       7.27856
_cell_length_b       9.65111
_cell_length_c       10.4492
_cell_angle_alpha    87.5849
_cell_angle_beta     79.6337
_cell_angle_gamma    82.6923

_space_group_name_H-M_alt    "P 1"
_space_group_IT_number       1

loop_
  _space_group_symop_operation_xyz
  'x, y, z'

loop_
  _atom_site_type_symbol
  _atom_site_label
  _atom_site_symmetry_multiplicity
  _atom_site_fract_x
  _atom_site_fract_y
  _atom_site_fract_z
  _atom_site_occupancy
  Lu  Lu1       1.0  0.21356  0.24687  0.53918  1.0000
  Lu  Lu2       1.0  0.78644  0.75313  0.46082  1.0000
  H   H1        1.0  0.32040  0.59123  0.16888  1.0000
  H   H2        1.0  0.67959  0.40877  0.83112  1.0000
  H   H3        1.0  0.31381  0.66182  0.93547  1.0000
  H   H4        1.0  0.68617  0.33819  0.06453  1.0000
  H   H5        1.0  0.13735  0.26861  0.86835  1.0000
  H   H6        1.0  0.86266  0.73140  0.13165  1.0000
  H   H7        1.0  0.14741  0.19591  0.10036  1.0000
  H   H8        1.0  0.85260  0.80409  0.89964  1.0000
  H   H9        1.0  0.29031  0.92785  0.85774  1.0000
  H   H10       1.0  0.70969  0.07213  0.14226  1.0000
  H   H11       1.0  0.71494  0.17703  0.91911  1.0000
  H   H12       1.0  0.28505  0.82296  0.08089  1.0000
  H   H13       1.0  0.58914  0.23875  0.55080  1.0000
  H   H14       1.0  0.41086  0.76124  0.44920  1.0000
  H   H15       1.0  0.60390  0.29019  0.39930  1.0000
  H   H16       1.0  0.39610  0.70980  0.60071  1.0000
  H   H17       1.0  0.30362  0.93796  0.53869  1.0000
  H   H18       1.0  0.69639  0.06204  0.46130  1.0000
  H   H19       1.0  0.19184  0.98154  0.42556  1.0000
  H   H20       1.0  0.80816  0.01846  0.57445  1.0000
  H   H21       1.0  0.84924  0.42078  0.56536  1.0000
  H   H22       1.0  0.15077  0.57922  0.43463  1.0000
  H   H23       1.0  0.87292  0.35005  0.42737  1.0000
  H   H24       1.0  0.12708  0.64996  0.57263  1.0000
  H   H25       1.0  0.03153  0.08782  0.75325  1.0000
  H   H26       1.0  0.96847  0.91217  0.24674  1.0000
  H   H27       1.0  0.84972  0.18280  0.71445  1.0000
  H   H28       1.0  0.15028  0.81720  0.28554  1.0000
  C   C1        1.0  0.23963  0.34224  0.28542  1.0000
  C   C2        1.0  0.76038  0.65777  0.71458  1.0000
  C   C3        1.0  0.23525  0.38858  0.14813  1.0000
  C   C4        1.0  0.76476  0.61142  0.85187  1.0000
  C   C5        1.0  0.27988  0.52118  0.10257  1.0000
  C   C6        1.0  0.72013  0.47883  0.89743  1.0000
  C   C7        1.0  0.27617  0.56051  0.97320  1.0000
  C   C8        1.0  0.72383  0.43949  0.02679  1.0000
  C   C9        1.0  0.22861  0.46868  0.88749  1.0000
  C   C10       1.0  0.77140  0.53132  0.11251  1.0000
  C   C11       1.0  0.22870  0.50990  0.74728  1.0000
  C   C12       1.0  0.77130  0.49010  0.25272  1.0000
  C   C13       1.0  0.18027  0.33747  0.93419  1.0000
  C   C14       1.0  0.81974  0.66253  0.06581  1.0000
  C   C15       1.0  0.18434  0.29767  0.06306  1.0000
  C   C16       1.0  0.81566  0.70233  0.93694  1.0000
  C   C17       1.0  0.49704  0.12798  0.74636  1.0000
  C   C18       1.0  0.50296  0.87201  0.25365  1.0000
  C   C19       1.0  0.50244  0.05890  0.87574  1.0000
  C   C20       1.0  0.49755  0.94109  0.12426  1.0000
  C   C21       1.0  0.38020  0.95977  0.92126  1.0000
  C   C22       1.0  0.61979  0.04021  0.07874  1.0000
  C   C23       1.0  0.62250  0.09836  0.95477  1.0000
  C   C24       1.0  0.37749  0.90163  0.04524  1.0000
  O   O1        1.0  0.21657  0.21580  0.32033  1.0000
  O   O2        1.0  0.78343  0.78421  0.67967  1.0000
  O   O3        1.0  0.26514  0.42706  0.37034  1.0000
  O   O4        1.0  0.73487  0.57294  0.62965  1.0000
  O   O5        1.0  0.22127  0.41421  0.66780  1.0000
  O   O6        1.0  0.77872  0.58579  0.33220  1.0000
  O   O7        1.0  0.23279  0.63739  0.71260  1.0000
  O   O8        1.0  0.76721  0.36261  0.28740  1.0000
  O   O9        1.0  0.35720  0.11575  0.69236  1.0000
  O   O10       1.0  0.64280  0.88425  0.30765  1.0000
  O   O11       1.0  0.63112  0.19828  0.69578  1.0000
  O   O12       1.0  0.36887  0.80171  0.30422  1.0000
  O   O13       1.0  0.53777  0.22968  0.46779  1.0000
  O   O14       1.0  0.46223  0.77032  0.53221  1.0000
  O   O15       1.0  0.20980  0.01075  0.51008  1.0000
  O   O16       1.0  0.79021  0.98926  0.48992  1.0000
  O   O17       1.0  0.91817  0.34047  0.51240  1.0000
  O   O18       1.0  0.08184  0.65954  0.48760  1.0000
  O   O19       1.0  0.98840  0.17712  0.71556  1.0000
  O   O20       1.0  0.01160  0.82288  0.28444  1.0000
