data_image0
_chemical_formula_structural       Cd2H28C20N8Cl4
_chemical_formula_sum              "Cd2 H28 C20 N8 Cl4"
_cell_length_a       8.58205
_cell_length_b       8.73043
_cell_length_c       8.73044
_cell_angle_alpha    73.2345
_cell_angle_beta     88.5028
_cell_angle_gamma    88.5029

_space_group_name_H-M_alt    "P 1"
_space_group_IT_number       1

loop_
  _space_group_symop_operation_xyz
  'x, y, z'

loop_
  _atom_site_type_symbol
  _atom_site_label
  _atom_site_symmetry_multiplicity
  _atom_site_fract_x
  _atom_site_fract_y
  _atom_site_fract_z
  _atom_site_occupancy
  Cd  Cd1       1.0  0.75000  0.97794  0.02206  1.0000
  Cd  Cd2       1.0  0.25000  0.02206  0.97794  1.0000
  H   H1        1.0  0.87250  0.93638  0.41845  1.0000
  H   H2        1.0  0.62751  0.58154  0.06362  1.0000
  H   H3        1.0  0.12750  0.06362  0.58155  1.0000
  H   H4        1.0  0.37249  0.41845  0.93638  1.0000
  H   H5        1.0  0.71038  0.09717  0.61162  1.0000
  H   H6        1.0  0.78963  0.38838  0.90284  1.0000
  H   H7        1.0  0.28962  0.90284  0.38838  1.0000
  H   H8        1.0  0.21038  0.61162  0.09716  1.0000
  H   H9        1.0  0.64356  0.39686  0.56435  1.0000
  H   H10       1.0  0.85644  0.43565  0.60315  1.0000
  H   H11       1.0  0.35644  0.60315  0.43565  1.0000
  H   H12       1.0  0.14356  0.56435  0.39686  1.0000
  H   H13       1.0  0.61846  0.51410  0.36216  1.0000
  H   H14       1.0  0.88154  0.63784  0.48591  1.0000
  H   H15       1.0  0.38154  0.48591  0.63784  1.0000
  H   H16       1.0  0.11846  0.36216  0.51410  1.0000
  H   H17       1.0  0.52343  0.23214  0.14598  1.0000
  H   H18       1.0  0.97657  0.85402  0.76786  1.0000
  H   H19       1.0  0.47657  0.76786  0.85402  1.0000
  H   H20       1.0  0.02342  0.14598  0.23213  1.0000
  H   H21       1.0  0.41391  0.23612  0.54959  1.0000
  H   H22       1.0  0.08609  0.45041  0.76388  1.0000
  H   H23       1.0  0.58609  0.76388  0.45041  1.0000
  H   H24       1.0  0.91391  0.54959  0.23612  1.0000
  H   H25       1.0  0.39069  0.34532  0.34421  1.0000
  H   H26       1.0  0.10931  0.65579  0.65468  1.0000
  H   H27       1.0  0.60931  0.65468  0.65579  1.0000
  H   H28       1.0  0.89069  0.34421  0.34532  1.0000
  C   C1        1.0  0.77617  0.02224  0.39131  1.0000
  C   C2        1.0  0.72383  0.60869  0.97776  1.0000
  C   C3        1.0  0.22383  0.97775  0.60868  1.0000
  C   C4        1.0  0.27617  0.39131  0.02224  1.0000
  C   C5        1.0  0.69752  0.09990  0.48751  1.0000
  C   C6        1.0  0.80248  0.51249  0.90010  1.0000
  C   C7        1.0  0.30248  0.90010  0.51249  1.0000
  C   C8        1.0  0.19752  0.48751  0.09990  1.0000
  C   C9        1.0  0.55701  0.44528  0.47163  1.0000
  C   C10       1.0  0.94299  0.52837  0.55472  1.0000
  C   C11       1.0  0.44299  0.55472  0.52837  1.0000
  C   C12       1.0  0.05701  0.47162  0.44528  1.0000
  C   C13       1.0  0.59872  0.17472  0.24470  1.0000
  C   C14       1.0  0.90128  0.75530  0.82528  1.0000
  C   C15       1.0  0.40128  0.82528  0.75530  1.0000
  C   C16       1.0  0.09871  0.24470  0.17472  1.0000
  C   C17       1.0  0.47522  0.30477  0.44043  1.0000
  C   C18       1.0  0.02478  0.55957  0.69523  1.0000
  C   C19       1.0  0.52478  0.69523  0.55957  1.0000
  C   C20       1.0  0.97522  0.44043  0.30477  1.0000
  N   N1        1.0  0.58541  0.19573  0.39231  1.0000
  N   N2        1.0  0.91459  0.60769  0.80427  1.0000
  N   N3        1.0  0.41459  0.80427  0.60769  1.0000
  N   N4        1.0  0.08541  0.39231  0.19573  1.0000
  N   N5        1.0  0.71353  0.07038  0.24004  1.0000
  N   N6        1.0  0.78647  0.75996  0.92962  1.0000
  N   N7        1.0  0.28647  0.92962  0.75996  1.0000
  N   N8        1.0  0.21353  0.24004  0.07038  1.0000
  Cl  Cl1       1.0  0.95959  0.14451  0.81780  1.0000
  Cl  Cl2       1.0  0.54040  0.18220  0.85549  1.0000
  Cl  Cl3       1.0  0.04040  0.85549  0.18219  1.0000
  Cl  Cl4       1.0  0.45960  0.81781  0.14451  1.0000
