data_image0
_chemical_formula_structural       Ag4H48C56N12O28
_chemical_formula_sum              "Ag4 H48 C56 N12 O28"
_cell_length_a       11.0853
_cell_length_b       11.6565
_cell_length_c       11.9931
_cell_angle_alpha    98.8756
_cell_angle_beta     89.9999
_cell_angle_gamma    89.9999

_space_group_name_H-M_alt    "P 1"
_space_group_IT_number       1

loop_
  _space_group_symop_operation_xyz
  'x, y, z'

loop_
  _atom_site_type_symbol
  _atom_site_label
  _atom_site_symmetry_multiplicity
  _atom_site_fract_x
  _atom_site_fract_y
  _atom_site_fract_z
  _atom_site_occupancy
  Ag  Ag1       1.0  0.84443  0.27364  0.68233  1.0000
  Ag  Ag2       1.0  0.34443  0.22636  0.81767  1.0000
  Ag  Ag3       1.0  0.15557  0.72636  0.31767  1.0000
  Ag  Ag4       1.0  0.65557  0.77364  0.18233  1.0000
  H   H1        1.0  0.69673  0.07858  0.53440  1.0000
  H   H2        1.0  0.19673  0.42142  0.96560  1.0000
  H   H3        1.0  0.30327  0.92142  0.46560  1.0000
  H   H4        1.0  0.80327  0.57858  0.03440  1.0000
  H   H5        1.0  0.70823  0.86371  0.46891  1.0000
  H   H6        1.0  0.20823  0.63629  0.03109  1.0000
  H   H7        1.0  0.29177  0.13629  0.53109  1.0000
  H   H8        1.0  0.79177  0.36371  0.96891  1.0000
  H   H9        1.0  0.03044  0.08259  0.69022  1.0000
  H   H10       1.0  0.53045  0.41741  0.80978  1.0000
  H   H11       1.0  0.96955  0.91741  0.30978  1.0000
  H   H12       1.0  0.46955  0.58259  0.19022  1.0000
  H   H13       1.0  0.05718  0.86770  0.62852  1.0000
  H   H14       1.0  0.55718  0.63230  0.87148  1.0000
  H   H15       1.0  0.94282  0.13230  0.37148  1.0000
  H   H16       1.0  0.44282  0.36770  0.12852  1.0000
  H   H17       1.0  0.85244  0.50170  0.49258  1.0000
  H   H18       1.0  0.35244  0.99830  0.00742  1.0000
  H   H19       1.0  0.14756  0.49830  0.50742  1.0000
  H   H20       1.0  0.64756  0.00171  0.99258  1.0000
  H   H21       1.0  0.86178  0.53493  0.35305  1.0000
  H   H22       1.0  0.36178  0.96507  0.14695  1.0000
  H   H23       1.0  0.13822  0.46507  0.64695  1.0000
  H   H24       1.0  0.63822  0.03493  0.85305  1.0000
  H   H25       1.0  0.62486  0.51302  0.48480  1.0000
  H   H26       1.0  0.12485  0.98698  0.01520  1.0000
  H   H27       1.0  0.37514  0.48698  0.51520  1.0000
  H   H28       1.0  0.87514  0.01302  0.98480  1.0000
  H   H29       1.0  0.63386  0.55574  0.34887  1.0000
  H   H30       1.0  0.13386  0.94426  0.15113  1.0000
  H   H31       1.0  0.36614  0.44426  0.65113  1.0000
  H   H32       1.0  0.86614  0.05574  0.84887  1.0000
  H   H33       1.0  0.78919  0.21241  0.24219  1.0000
  H   H34       1.0  0.28919  0.28759  0.25781  1.0000
  H   H35       1.0  0.21081  0.78759  0.75781  1.0000
  H   H36       1.0  0.71081  0.71241  0.74219  1.0000
  H   H37       1.0  0.80737  0.99935  0.17992  1.0000
  H   H38       1.0  0.30737  0.50065  0.32008  1.0000
  H   H39       1.0  0.19263  0.00065  0.82008  1.0000
  H   H40       1.0  0.69263  0.49935  0.67992  1.0000
  H   H41       1.0  0.43383  0.15197  0.36845  1.0000
  H   H42       1.0  0.93383  0.34803  0.13155  1.0000
  H   H43       1.0  0.56617  0.84803  0.63155  1.0000
  H   H44       1.0  0.06617  0.65197  0.86845  1.0000
  H   H45       1.0  0.46876  0.93758  0.30358  1.0000
  H   H46       1.0  0.96876  0.56242  0.19642  1.0000
  H   H47       1.0  0.53124  0.06242  0.69642  1.0000
  H   H48       1.0  0.03124  0.43758  0.80358  1.0000
  C   C1        1.0  0.77393  0.02811  0.55564  1.0000
  C   C2        1.0  0.27393  0.47189  0.94436  1.0000
  C   C3        1.0  0.22607  0.97189  0.44436  1.0000
  C   C4        1.0  0.72607  0.52811  0.05564  1.0000
  C   C5        1.0  0.78089  0.90901  0.51876  1.0000
  C   C6        1.0  0.28089  0.59099  0.98124  1.0000
  C   C7        1.0  0.21911  0.09099  0.48124  1.0000
  C   C8        1.0  0.71911  0.40901  0.01876  1.0000
  C   C9        1.0  0.96076  0.03030  0.64257  1.0000
  C   C10       1.0  0.46076  0.46970  0.85743  1.0000
  C   C11       1.0  0.03924  0.96970  0.35743  1.0000
  C   C12       1.0  0.53924  0.53031  0.14257  1.0000
  C   C13       1.0  0.97554  0.91186  0.60807  1.0000
  C   C14       1.0  0.47554  0.58814  0.89193  1.0000
  C   C15       1.0  0.02446  0.08814  0.39193  1.0000
  C   C16       1.0  0.52446  0.41186  0.10807  1.0000
  C   C17       1.0  0.88387  0.84949  0.54604  1.0000
  C   C18       1.0  0.38387  0.65051  0.95396  1.0000
  C   C19       1.0  0.11613  0.15051  0.45396  1.0000
  C   C20       1.0  0.61613  0.34949  0.04604  1.0000
  C   C21       1.0  0.90202  0.72249  0.50884  1.0000
  C   C22       1.0  0.40202  0.77751  0.99116  1.0000
  C   C23       1.0  0.09798  0.27751  0.49116  1.0000
  C   C24       1.0  0.59798  0.22249  0.00884  1.0000
  C   C25       1.0  0.80732  0.54705  0.43045  1.0000
  C   C26       1.0  0.30732  0.95295  0.06955  1.0000
  C   C27       1.0  0.19268  0.45295  0.56955  1.0000
  C   C28       1.0  0.69268  0.04705  0.93045  1.0000
  C   C29       1.0  0.67901  0.50611  0.40744  1.0000
  C   C30       1.0  0.17901  0.99389  0.09256  1.0000
  C   C31       1.0  0.32099  0.49389  0.59256  1.0000
  C   C32       1.0  0.82099  0.00611  0.90744  1.0000
  C   C33       1.0  0.58609  0.32498  0.34675  1.0000
  C   C34       1.0  0.08609  0.17502  0.15325  1.0000
  C   C35       1.0  0.41391  0.67502  0.65325  1.0000
  C   C36       1.0  0.91391  0.82498  0.84675  1.0000
  C   C37       1.0  0.60835  0.19861  0.30978  1.0000
  C   C38       1.0  0.10835  0.30139  0.19022  1.0000
  C   C39       1.0  0.39165  0.80139  0.69022  1.0000
  C   C40       1.0  0.89165  0.69861  0.80978  1.0000
  C   C41       1.0  0.71547  0.15535  0.25773  1.0000
  C   C42       1.0  0.21547  0.34465  0.24227  1.0000
  C   C43       1.0  0.28453  0.84465  0.74226  1.0000
  C   C44       1.0  0.78453  0.65535  0.75773  1.0000
  C   C45       1.0  0.72646  0.03607  0.22325  1.0000
  C   C46       1.0  0.22646  0.46393  0.27675  1.0000
  C   C47       1.0  0.27354  0.96393  0.77675  1.0000
  C   C48       1.0  0.77354  0.53607  0.72325  1.0000
  C   C49       1.0  0.51733  0.12024  0.32693  1.0000
  C   C50       1.0  0.01733  0.37976  0.17307  1.0000
  C   C51       1.0  0.48267  0.87976  0.67306  1.0000
  C   C52       1.0  0.98267  0.62024  0.82694  1.0000
  C   C53       1.0  0.53653  0.00246  0.29202  1.0000
  C   C54       1.0  0.03653  0.49754  0.20798  1.0000
  C   C55       1.0  0.46347  0.99754  0.70798  1.0000
  C   C56       1.0  0.96347  0.50246  0.79202  1.0000
  N   N1        1.0  0.86140  0.08825  0.61748  1.0000
  N   N2        1.0  0.36140  0.41175  0.88252  1.0000
  N   N3        1.0  0.13860  0.91174  0.38252  1.0000
  N   N4        1.0  0.63860  0.58826  0.11748  1.0000
  N   N5        1.0  0.63886  0.96048  0.24004  1.0000
  N   N6        1.0  0.13886  0.53952  0.25996  1.0000
  N   N7        1.0  0.36114  0.03952  0.75996  1.0000
  N   N8        1.0  0.86114  0.46048  0.74004  1.0000
  N   N9        1.0  0.56548  0.26102  0.63347  1.0000
  N   N10       1.0  0.06548  0.23898  0.86653  1.0000
  N   N11       1.0  0.43452  0.73898  0.36654  1.0000
  N   N12       1.0  0.93452  0.76102  0.13347  1.0000
  O   O1        1.0  0.99943  0.67349  0.51219  1.0000
  O   O2        1.0  0.49943  0.82651  0.98781  1.0000
  O   O3        1.0  0.00057  0.32651  0.48781  1.0000
  O   O4        1.0  0.50057  0.17350  0.01219  1.0000
  O   O5        1.0  0.79848  0.66988  0.47217  1.0000
  O   O6        1.0  0.29848  0.83012  0.02783  1.0000
  O   O7        1.0  0.20152  0.33012  0.52783  1.0000
  O   O8        1.0  0.70152  0.16988  0.97217  1.0000
  O   O9        1.0  0.68992  0.38544  0.35740  1.0000
  O   O10       1.0  0.18992  0.11456  0.14260  1.0000
  O   O11       1.0  0.31008  0.61456  0.64260  1.0000
  O   O12       1.0  0.81008  0.88544  0.85740  1.0000
  O   O13       1.0  0.48543  0.36772  0.36246  1.0000
  O   O14       1.0  0.98543  0.13228  0.13754  1.0000
  O   O15       1.0  0.51457  0.63228  0.63754  1.0000
  O   O16       1.0  0.01457  0.86772  0.86246  1.0000
  O   O17       1.0  0.63834  0.29937  0.56640  1.0000
  O   O18       1.0  0.13834  0.20063  0.93360  1.0000
  O   O19       1.0  0.36166  0.70062  0.43360  1.0000
  O   O20       1.0  0.86166  0.79937  0.06640  1.0000
  O   O21       1.0  0.60315  0.24418  0.73079  1.0000
  O   O22       1.0  0.10315  0.25582  0.76921  1.0000
  O   O23       1.0  0.39685  0.75582  0.26921  1.0000
  O   O24       1.0  0.89685  0.74418  0.23079  1.0000
  O   O25       1.0  0.45722  0.23897  0.60514  1.0000
  O   O26       1.0  0.95722  0.26102  0.89485  1.0000
  O   O27       1.0  0.54277  0.76104  0.39487  1.0000
  O   O28       1.0  0.04277  0.73898  0.10514  1.0000
