data_image0
_chemical_formula_structural       Zn2H26C40N14O8
_chemical_formula_sum              "Zn2 H26 C40 N14 O8"
_cell_length_a       10.0543
_cell_length_b       10.1477
_cell_length_c       13.9871
_cell_angle_alpha    81.7079
_cell_angle_beta     79.2845
_cell_angle_gamma    69.7396

_space_group_name_H-M_alt    "P 1"
_space_group_IT_number       1

loop_
  _space_group_symop_operation_xyz
  'x, y, z'

loop_
  _atom_site_type_symbol
  _atom_site_label
  _atom_site_symmetry_multiplicity
  _atom_site_fract_x
  _atom_site_fract_y
  _atom_site_fract_z
  _atom_site_occupancy
  Zn  Zn1       1.0  0.86427  0.39904  0.97587  1.0000
  Zn  Zn2       1.0  0.13573  0.60096  0.02413  1.0000
  H   H1        1.0  0.89463  0.93011  0.96382  1.0000
  H   H2        1.0  0.10537  0.06989  0.03618  1.0000
  H   H3        1.0  0.56137  0.80627  0.88721  1.0000
  H   H4        1.0  0.43863  0.19373  0.11279  1.0000
  H   H5        1.0  0.52600  0.24703  0.86064  1.0000
  H   H6        1.0  0.47400  0.75298  0.13936  1.0000
  H   H7        1.0  0.55862  0.50922  0.07072  1.0000
  H   H8        1.0  0.44138  0.49078  0.92928  1.0000
  H   H9        1.0  0.41074  0.50762  0.23292  1.0000
  H   H10       1.0  0.58926  0.49237  0.76708  1.0000
  H   H11       1.0  0.80195  0.27162  0.35281  1.0000
  H   H12       1.0  0.19805  0.72838  0.64719  1.0000
  H   H13       1.0  0.93437  0.28288  0.18245  1.0000
  H   H14       1.0  0.06562  0.71712  0.81755  1.0000
  H   H15       1.0  0.57820  0.32368  0.46514  1.0000
  H   H16       1.0  0.42180  0.67632  0.53486  1.0000
  H   H17       1.0  0.13388  0.54910  0.49091  1.0000
  H   H18       1.0  0.86612  0.45090  0.50909  1.0000
  H   H19       1.0  0.91551  0.60770  0.61425  1.0000
  H   H20       1.0  0.08449  0.39229  0.38575  1.0000
  H   H21       1.0  0.79454  0.57270  0.78461  1.0000
  H   H22       1.0  0.20546  0.42730  0.21539  1.0000
  H   H23       1.0  0.16096  0.26621  0.86399  1.0000
  H   H24       1.0  0.83903  0.73378  0.13601  1.0000
  H   H25       1.0  0.29889  0.28537  0.69766  1.0000
  H   H26       1.0  0.70111  0.71462  0.30234  1.0000
  C   C1        1.0  0.71578  0.10029  0.91374  1.0000
  C   C2        1.0  0.28422  0.89972  0.08627  1.0000
  C   C3        1.0  0.79258  0.95819  0.93665  1.0000
  C   C4        1.0  0.20742  0.04182  0.06335  1.0000
  C   C5        1.0  0.73564  0.85356  0.92668  1.0000
  C   C6        1.0  0.26436  0.14644  0.07332  1.0000
  C   C7        1.0  0.60444  0.88973  0.89211  1.0000
  C   C8        1.0  0.39556  0.11027  0.10789  1.0000
  C   C9        1.0  0.53128  0.03136  0.86619  1.0000
  C   C10       1.0  0.46872  0.96865  0.13381  1.0000
  C   C11       1.0  0.58579  0.13652  0.87782  1.0000
  C   C12       1.0  0.41421  0.86348  0.12218  1.0000
  C   C13       1.0  0.76854  0.21567  0.93038  1.0000
  C   C14       1.0  0.23146  0.78433  0.06962  1.0000
  C   C15       1.0  0.81446  0.70071  0.95306  1.0000
  C   C16       1.0  0.18554  0.29930  0.04695  1.0000
  C   C17       1.0  0.60861  0.45656  0.13479  1.0000
  C   C18       1.0  0.39139  0.54344  0.86521  1.0000
  C   C19       1.0  0.52609  0.45511  0.22601  1.0000
  C   C20       1.0  0.47391  0.54489  0.77399  1.0000
  C   C21       1.0  0.59430  0.38709  0.30734  1.0000
  C   C22       1.0  0.40570  0.61291  0.69266  1.0000
  C   C23       1.0  0.74401  0.32569  0.29216  1.0000
  C   C24       1.0  0.25599  0.67431  0.70784  1.0000
  C   C25       1.0  0.81854  0.33126  0.19831  1.0000
  C   C26       1.0  0.18146  0.66874  0.80169  1.0000
  C   C27       1.0  0.51610  0.37465  0.40500  1.0000
  C   C28       1.0  0.48390  0.62534  0.59500  1.0000
  C   C29       1.0  0.19248  0.46788  0.54320  1.0000
  C   C30       1.0  0.80752  0.53212  0.45680  1.0000
  C   C31       1.0  0.11846  0.44862  0.64150  1.0000
  C   C32       1.0  0.88154  0.55138  0.35849  1.0000
  C   C33       1.0  0.97440  0.53013  0.66704  1.0000
  C   C34       1.0  0.02560  0.46987  0.33295  1.0000
  C   C35       1.0  0.90605  0.51164  0.76153  1.0000
  C   C36       1.0  0.09395  0.48836  0.23847  1.0000
  C   C37       1.0  0.11102  0.33964  0.80600  1.0000
  C   C38       1.0  0.88898  0.66036  0.19400  1.0000
  C   C39       1.0  0.18711  0.35048  0.71347  1.0000
  C   C40       1.0  0.81289  0.64952  0.28653  1.0000
  N   N1        1.0  0.39950  0.07808  0.82888  1.0000
  N   N2        1.0  0.60050  0.92192  0.17111  1.0000
  N   N3        1.0  0.34016  0.99313  0.82106  1.0000
  N   N4        1.0  0.65984  0.00687  0.17894  1.0000
  N   N5        1.0  0.27120  0.92872  0.80949  1.0000
  N   N6        1.0  0.72879  0.07128  0.19051  1.0000
  N   N7        1.0  0.75236  0.39540  0.12099  1.0000
  N   N8        1.0  0.24764  0.60460  0.87900  1.0000
  N   N9        1.0  0.37728  0.41960  0.42173  1.0000
  N   N10       1.0  0.62272  0.58040  0.57826  1.0000
  N   N11       1.0  0.32429  0.39154  0.51797  1.0000
  N   N12       1.0  0.67571  0.60846  0.48203  1.0000
  N   N13       1.0  0.97346  0.41931  0.83019  1.0000
  N   N14       1.0  0.02653  0.58069  0.16980  1.0000
  O   O1        1.0  0.88915  0.18198  0.96065  1.0000
  O   O2        1.0  0.11085  0.81802  0.03935  1.0000
  O   O3        1.0  0.69016  0.34392  0.91607  1.0000
  O   O4        1.0  0.30985  0.65608  0.08393  1.0000
  O   O5        1.0  0.94394  0.66684  0.96560  1.0000
  O   O6        1.0  0.05606  0.33316  0.03441  1.0000
  O   O7        1.0  0.74628  0.61382  0.95878  1.0000
  O   O8        1.0  0.25372  0.38618  0.04122  1.0000
