data_image0
_chemical_formula_structural       Zn2H40C48N16O8
_chemical_formula_sum              "Zn2 H40 C48 N16 O8"
_cell_length_a       10.1773
_cell_length_b       10.1381
_cell_length_c       13.9477
_cell_angle_alpha    81.6831
_cell_angle_beta     79.0095
_cell_angle_gamma    68.9872

_space_group_name_H-M_alt    "P 1"
_space_group_IT_number       1

loop_
  _space_group_symop_operation_xyz
  'x, y, z'

loop_
  _atom_site_type_symbol
  _atom_site_label
  _atom_site_symmetry_multiplicity
  _atom_site_fract_x
  _atom_site_fract_y
  _atom_site_fract_z
  _atom_site_occupancy
  Zn  Zn1       1.0  0.86420  0.39891  0.48080  1.0000
  Zn  Zn2       1.0  0.13579  0.60109  0.51920  1.0000
  H   H1        1.0  0.52147  0.25188  0.36805  1.0000
  H   H2        1.0  0.47854  0.74812  0.63195  1.0000
  H   H3        1.0  0.56975  0.80771  0.38430  1.0000
  H   H4        1.0  0.43025  0.19229  0.61570  1.0000
  H   H5        1.0  0.89111  0.93291  0.46904  1.0000
  H   H6        1.0  0.10889  0.06709  0.53096  1.0000
  H   H7        1.0  0.16146  0.26656  0.36725  1.0000
  H   H8        1.0  0.83854  0.73344  0.63275  1.0000
  H   H9        1.0  0.29663  0.28974  0.20032  1.0000
  H   H10       1.0  0.70337  0.71026  0.79968  1.0000
  H   H11       1.0  0.90904  0.60391  0.11753  1.0000
  H   H12       1.0  0.09095  0.39609  0.88247  1.0000
  H   H13       1.0  0.78950  0.56430  0.28820  1.0000
  H   H14       1.0  0.21049  0.43569  0.71180  1.0000
  H   H15       1.0  0.12657  0.55134  0.99429  1.0000
  H   H16       1.0  0.87343  0.44866  0.00571  1.0000
  H   H17       1.0  0.57080  0.32745  0.97029  1.0000
  H   H18       1.0  0.42920  0.67255  0.02972  1.0000
  H   H19       1.0  0.79590  0.27790  0.85983  1.0000
  H   H20       1.0  0.20410  0.72210  0.14017  1.0000
  H   H21       1.0  0.93012  0.28837  0.68994  1.0000
  H   H22       1.0  0.06988  0.71162  0.31006  1.0000
  H   H23       1.0  0.55847  0.50461  0.57318  1.0000
  H   H24       1.0  0.44153  0.49539  0.42682  1.0000
  H   H25       1.0  0.40840  0.50392  0.73519  1.0000
  H   H26       1.0  0.59160  0.49608  0.26481  1.0000
  H   H27       1.0  0.06114  0.99099  0.23547  1.0000
  H   H28       1.0  0.93886  0.00902  0.76453  1.0000
  H   H29       1.0  0.03928  0.12569  0.13593  1.0000
  H   H30       1.0  0.96072  0.87431  0.86408  1.0000
  H   H31       1.0  0.94059  0.16453  0.25504  1.0000
  H   H32       1.0  0.05941  0.83548  0.74496  1.0000
  H   H33       1.0  0.80851  0.00520  0.24447  1.0000
  H   H34       1.0  0.19149  0.99480  0.75553  1.0000
  H   H35       1.0  0.66073  0.15142  0.11696  1.0000
  H   H36       1.0  0.33927  0.84858  0.88304  1.0000
  H   H37       1.0  0.70773  0.25881  0.18527  1.0000
  H   H38       1.0  0.29227  0.74119  0.81473  1.0000
  H   H39       1.0  0.79963  0.22147  0.06479  1.0000
  H   H40       1.0  0.20037  0.77854  0.93521  1.0000
  C   C1        1.0  0.71095  0.10386  0.42072  1.0000
  C   C2        1.0  0.28906  0.89613  0.57927  1.0000
  C   C3        1.0  0.58277  0.14072  0.38391  1.0000
  C   C4        1.0  0.41722  0.85928  0.61609  1.0000
  C   C5        1.0  0.53362  0.03448  0.36826  1.0000
  C   C6        1.0  0.46638  0.96552  0.63174  1.0000
  C   C7        1.0  0.60919  0.89185  0.39216  1.0000
  C   C8        1.0  0.39080  0.10814  0.60784  1.0000
  C   C9        1.0  0.73758  0.85549  0.42865  1.0000
  C   C10       1.0  0.26242  0.14451  0.57135  1.0000
  C   C11       1.0  0.79005  0.96087  0.44185  1.0000
  C   C12       1.0  0.20995  0.03913  0.55815  1.0000
  C   C13       1.0  0.76298  0.21897  0.43693  1.0000
  C   C14       1.0  0.23702  0.78103  0.56307  1.0000
  C   C15       1.0  0.81820  0.70160  0.45340  1.0000
  C   C16       1.0  0.18180  0.29840  0.54659  1.0000
  C   C17       1.0  0.10940  0.33894  0.30941  1.0000
  C   C18       1.0  0.89060  0.66107  0.69059  1.0000
  C   C19       1.0  0.18409  0.35172  0.21654  1.0000
  C   C20       1.0  0.81591  0.64829  0.78346  1.0000
  C   C21       1.0  0.11317  0.44821  0.14451  1.0000
  C   C22       1.0  0.88683  0.55179  0.85549  1.0000
  C   C23       1.0  0.96831  0.52604  0.17012  1.0000
  C   C24       1.0  0.03169  0.47396  0.82988  1.0000
  C   C25       1.0  0.90155  0.50570  0.26500  1.0000
  C   C26       1.0  0.09845  0.49430  0.73500  1.0000
  C   C27       1.0  0.18617  0.46963  0.04599  1.0000
  C   C28       1.0  0.81383  0.53037  0.95401  1.0000
  C   C29       1.0  0.51024  0.37772  0.90940  1.0000
  C   C30       1.0  0.48976  0.62229  0.09060  1.0000
  C   C31       1.0  0.58978  0.38902  0.81193  1.0000
  C   C32       1.0  0.41021  0.61098  0.18807  1.0000
  C   C33       1.0  0.73883  0.32935  0.79829  1.0000
  C   C34       1.0  0.26117  0.67065  0.20171  1.0000
  C   C35       1.0  0.81448  0.33435  0.70449  1.0000
  C   C36       1.0  0.18552  0.66565  0.29551  1.0000
  C   C37       1.0  0.60703  0.45470  0.63831  1.0000
  C   C38       1.0  0.39297  0.54530  0.36168  1.0000
  C   C39       1.0  0.52343  0.45391  0.72931  1.0000
  C   C40       1.0  0.47657  0.54609  0.27069  1.0000
  C   C41       1.0  0.98407  0.08382  0.20198  1.0000
  C   C42       1.0  0.01593  0.91619  0.79801  1.0000
  C   C43       1.0  0.86116  0.04713  0.17661  1.0000
  C   C44       1.0  0.13883  0.95288  0.82339  1.0000
  C   C45       1.0  0.74992  0.17757  0.13254  1.0000
  C   C46       1.0  0.25007  0.82243  0.86745  1.0000
  C   C47       1.0  0.91614  0.93207  0.11181  1.0000
  C   C48       1.0  0.08386  0.06792  0.88818  1.0000
  N   N1        1.0  0.40465  0.07973  0.32883  1.0000
  N   N2        1.0  0.59535  0.92027  0.67117  1.0000
  N   N3        1.0  0.35377  0.99015  0.31817  1.0000
  N   N4        1.0  0.64622  0.00985  0.68184  1.0000
  N   N5        1.0  0.29448  0.91875  0.30480  1.0000
  N   N6        1.0  0.70552  0.08125  0.69520  1.0000
  N   N7        1.0  0.97088  0.41511  0.33399  1.0000
  N   N8        1.0  0.02912  0.58488  0.66601  1.0000
  N   N9        1.0  0.31860  0.39473  0.02138  1.0000
  N   N10       1.0  0.68140  0.60527  0.97862  1.0000
  N   N11       1.0  0.37230  0.42267  0.92502  1.0000
  N   N12       1.0  0.62770  0.57734  0.07498  1.0000
  N   N13       1.0  0.75025  0.39565  0.62584  1.0000
  N   N14       1.0  0.24975  0.60435  0.37416  1.0000
  N   N15       1.0  0.96156  0.83846  0.06145  1.0000
  N   N16       1.0  0.03844  0.16154  0.93855  1.0000
  O   O1        1.0  0.68718  0.34795  0.41936  1.0000
  O   O2        1.0  0.31282  0.65204  0.58063  1.0000
  O   O3        1.0  0.88186  0.18311  0.46852  1.0000
  O   O4        1.0  0.11814  0.81690  0.53148  1.0000
  O   O5        1.0  0.94926  0.66679  0.45869  1.0000
  O   O6        1.0  0.05074  0.33321  0.54131  1.0000
  O   O7        1.0  0.74923  0.61592  0.46510  1.0000
  O   O8        1.0  0.25077  0.38408  0.53490  1.0000
