data_image0
_chemical_formula_structural       Co2H26C40N14O8
_chemical_formula_sum              "Co2 H26 C40 N14 O8"
_cell_length_a       10.0672
_cell_length_b       10.1062
_cell_length_c       14.0945
_cell_angle_alpha    80.3434
_cell_angle_beta     78.2659
_cell_angle_gamma    69.3573

_space_group_name_H-M_alt    "P 1"
_space_group_IT_number       1

loop_
  _space_group_symop_operation_xyz
  'x, y, z'

loop_
  _atom_site_type_symbol
  _atom_site_label
  _atom_site_symmetry_multiplicity
  _atom_site_fract_x
  _atom_site_fract_y
  _atom_site_fract_z
  _atom_site_occupancy
  Co  Co1       1.0  0.86834  0.39522  0.97552  1.0000
  Co  Co2       1.0  0.13165  0.60479  0.02448  1.0000
  H   H1        1.0  0.53161  0.25050  0.86679  1.0000
  H   H2        1.0  0.46839  0.74949  0.13321  1.0000
  H   H3        1.0  0.57300  0.80632  0.88715  1.0000
  H   H4        1.0  0.42699  0.19367  0.11285  1.0000
  H   H5        1.0  0.90283  0.92747  0.96647  1.0000
  H   H6        1.0  0.09716  0.07254  0.03354  1.0000
  H   H7        1.0  0.56112  0.50649  0.06717  1.0000
  H   H8        1.0  0.43889  0.49351  0.93283  1.0000
  H   H9        1.0  0.41116  0.51080  0.23026  1.0000
  H   H10       1.0  0.58885  0.48920  0.76974  1.0000
  H   H11       1.0  0.80067  0.26923  0.35009  1.0000
  H   H12       1.0  0.19933  0.73077  0.64990  1.0000
  H   H13       1.0  0.93472  0.27477  0.18035  1.0000
  H   H14       1.0  0.06527  0.72522  0.81964  1.0000
  H   H15       1.0  0.57747  0.32453  0.46233  1.0000
  H   H16       1.0  0.42256  0.67545  0.53768  1.0000
  H   H17       1.0  0.12940  0.55234  0.49088  1.0000
  H   H18       1.0  0.87057  0.44768  0.50910  1.0000
  H   H19       1.0  0.30093  0.29273  0.69902  1.0000
  H   H20       1.0  0.69907  0.70727  0.30098  1.0000
  H   H21       1.0  0.16355  0.26733  0.86516  1.0000
  H   H22       1.0  0.83644  0.73266  0.13484  1.0000
  H   H23       1.0  0.79080  0.56945  0.78625  1.0000
  H   H24       1.0  0.20920  0.43053  0.21374  1.0000
  H   H25       1.0  0.91091  0.60776  0.61573  1.0000
  H   H26       1.0  0.08909  0.39224  0.38427  1.0000
  C   C1        1.0  0.72325  0.10015  0.91746  1.0000
  C   C2        1.0  0.27674  0.89985  0.08254  1.0000
  C   C3        1.0  0.59291  0.13881  0.88252  1.0000
  C   C4        1.0  0.40708  0.86120  0.11748  1.0000
  C   C5        1.0  0.54036  0.03335  0.86931  1.0000
  C   C6        1.0  0.45964  0.96666  0.13069  1.0000
  C   C7        1.0  0.61497  0.88980  0.89343  1.0000
  C   C8        1.0  0.38502  0.11020  0.10657  1.0000
  C   C9        1.0  0.74560  0.85174  0.92821  1.0000
  C   C10       1.0  0.25440  0.14826  0.07179  1.0000
  C   C11       1.0  0.80130  0.95640  0.93914  1.0000
  C   C12       1.0  0.19869  0.04361  0.06087  1.0000
  C   C13       1.0  0.77725  0.21309  0.93424  1.0000
  C   C14       1.0  0.22276  0.78690  0.06577  1.0000
  C   C15       1.0  0.82370  0.69772  0.95464  1.0000
  C   C16       1.0  0.17631  0.30227  0.04536  1.0000
  C   C17       1.0  0.61013  0.45439  0.13161  1.0000
  C   C18       1.0  0.38987  0.54562  0.86838  1.0000
  C   C19       1.0  0.52670  0.45638  0.22304  1.0000
  C   C20       1.0  0.47331  0.54363  0.77696  1.0000
  C   C21       1.0  0.59349  0.38826  0.30496  1.0000
  C   C22       1.0  0.40653  0.61175  0.69503  1.0000
  C   C23       1.0  0.74333  0.32339  0.28926  1.0000
  C   C24       1.0  0.25669  0.67661  0.71073  1.0000
  C   C25       1.0  0.81880  0.32584  0.19530  1.0000
  C   C26       1.0  0.18121  0.67416  0.80470  1.0000
  C   C27       1.0  0.51511  0.37838  0.40295  1.0000
  C   C28       1.0  0.48488  0.62164  0.59704  1.0000
  C   C29       1.0  0.19034  0.47336  0.54386  1.0000
  C   C30       1.0  0.80968  0.52663  0.45615  1.0000
  C   C31       1.0  0.11743  0.45287  0.64256  1.0000
  C   C32       1.0  0.88256  0.54713  0.35746  1.0000
  C   C33       1.0  0.18777  0.35538  0.71507  1.0000
  C   C34       1.0  0.81223  0.64462  0.28493  1.0000
  C   C35       1.0  0.11184  0.34143  0.80762  1.0000
  C   C36       1.0  0.88816  0.65856  0.19237  1.0000
  C   C37       1.0  0.90363  0.51044  0.76349  1.0000
  C   C38       1.0  0.09637  0.48956  0.23651  1.0000
  C   C39       1.0  0.97164  0.53119  0.66876  1.0000
  C   C40       1.0  0.02835  0.46881  0.33125  1.0000
  N   N1        1.0  0.40868  0.08124  0.83264  1.0000
  N   N2        1.0  0.59131  0.91876  0.16736  1.0000
  N   N3        1.0  0.35332  0.99420  0.82294  1.0000
  N   N4        1.0  0.64668  0.00581  0.17705  1.0000
  N   N5        1.0  0.28845  0.92701  0.81033  1.0000
  N   N6        1.0  0.71154  0.07299  0.18966  1.0000
  N   N7        1.0  0.75434  0.38971  0.11710  1.0000
  N   N8        1.0  0.24566  0.61030  0.88291  1.0000
  N   N9        1.0  0.37581  0.42827  0.42155  1.0000
  N   N10       1.0  0.62417  0.57177  0.57844  1.0000
  N   N11       1.0  0.32431  0.40017  0.51852  1.0000
  N   N12       1.0  0.67572  0.59983  0.48150  1.0000
  N   N13       1.0  0.97208  0.41793  0.83280  1.0000
  N   N14       1.0  0.02793  0.58206  0.16719  1.0000
  O   O1        1.0  0.90264  0.17854  0.95644  1.0000
  O   O2        1.0  0.09737  0.82144  0.04356  1.0000
  O   O3        1.0  0.69737  0.34375  0.92821  1.0000
  O   O4        1.0  0.30262  0.65625  0.07179  1.0000
  O   O5        1.0  0.95288  0.66166  0.96893  1.0000
  O   O6        1.0  0.04713  0.33834  0.03107  1.0000
  O   O7        1.0  0.75703  0.60942  0.96001  1.0000
  O   O8        1.0  0.24296  0.39058  0.03999  1.0000
