data_image0
_chemical_formula_structural       Co6P4H12C16S4Br4O16
_chemical_formula_sum              "Co6 P4 H12 C16 S4 Br4 O16"
_cell_length_a       5.31953
_cell_length_b       10.5455
_cell_length_c       15.0576
_cell_angle_alpha    106.917
_cell_angle_beta     89.9963
_cell_angle_gamma    90.0121

_space_group_name_H-M_alt    "P 1"
_space_group_IT_number       1

loop_
  _space_group_symop_operation_xyz
  'x, y, z'

loop_
  _atom_site_type_symbol
  _atom_site_label
  _atom_site_symmetry_multiplicity
  _atom_site_fract_x
  _atom_site_fract_y
  _atom_site_fract_z
  _atom_site_occupancy
  Co  Co1       1.0  0.50252  0.50179  0.50025  1.0000
  Co  Co2       1.0  0.00056  0.00049  0.49929  1.0000
  Co  Co3       1.0  0.70517  0.28878  0.57049  1.0000
  Co  Co4       1.0  0.20635  0.20999  0.42989  1.0000
  Co  Co5       1.0  0.29348  0.71264  0.42871  1.0000
  Co  Co6       1.0  0.79428  0.78776  0.57157  1.0000
  P   P1        1.0  0.01702  0.55097  0.63843  1.0000
  P   P2        1.0  0.51467  0.94884  0.36112  1.0000
  P   P3        1.0  0.98529  0.44922  0.36202  1.0000
  P   P4        1.0  0.48465  0.05082  0.63813  1.0000
  H   H1        1.0  0.96543  0.69335  0.98958  1.0000
  H   H2        1.0  0.46619  0.80628  0.00999  1.0000
  H   H3        1.0  0.03471  0.30595  0.01064  1.0000
  H   H4        1.0  0.53467  0.19357  0.98943  1.0000
  H   H5        1.0  0.37564  0.41368  0.74332  1.0000
  H   H6        1.0  0.87425  0.08636  0.25671  1.0000
  H   H7        1.0  0.62490  0.58535  0.25714  1.0000
  H   H8        1.0  0.12520  0.91382  0.74299  1.0000
  H   H9        1.0  0.33371  0.72771  0.59385  1.0000
  H   H10       1.0  0.83429  0.77268  0.40625  1.0000
  H   H11       1.0  0.66425  0.27520  0.40584  1.0000
  H   H12       1.0  0.16457  0.22631  0.59554  1.0000
  C   C1        1.0  0.02872  0.63924  0.92044  1.0000
  C   C2        1.0  0.52901  0.86042  0.07920  1.0000
  C   C3        1.0  0.97142  0.35992  0.07982  1.0000
  C   C4        1.0  0.47165  0.13941  0.92025  1.0000
  C   C5        1.0  0.94497  0.64903  0.83641  1.0000
  C   C6        1.0  0.44454  0.85058  0.16314  1.0000
  C   C7        1.0  0.05533  0.35007  0.16384  1.0000
  C   C8        1.0  0.55583  0.14914  0.83624  1.0000
  C   C9        1.0  0.07028  0.56159  0.75799  1.0000
  C   C10       1.0  0.56906  0.93822  0.24167  1.0000
  C   C11       1.0  0.93028  0.43747  0.24231  1.0000
  C   C12       1.0  0.43079  0.06166  0.75775  1.0000
  C   C13       1.0  0.24948  0.48701  0.78660  1.0000
  C   C14       1.0  0.74848  0.01295  0.21325  1.0000
  C   C15       1.0  0.75102  0.51211  0.21377  1.0000
  C   C16       1.0  0.25135  0.98710  0.78633  1.0000
  S   S1        1.0  0.26355  0.52311  0.90497  1.0000
  S   S2        1.0  0.76364  0.97674  0.09492  1.0000
  S   S3        1.0  0.73667  0.47608  0.09540  1.0000
  S   S4        1.0  0.23680  0.02327  0.90469  1.0000
  Br  Br1       1.0  0.68799  0.76932  0.82743  1.0000
  Br  Br2       1.0  0.18767  0.73001  0.17186  1.0000
  Br  Br3       1.0  0.31215  0.22966  0.17273  1.0000
  Br  Br4       1.0  0.81290  0.26956  0.82748  1.0000
  O   O1        1.0  0.22778  0.46732  0.58217  1.0000
  O   O2        1.0  0.72370  0.03358  0.41764  1.0000
  O   O3        1.0  0.77395  0.53367  0.41760  1.0000
  O   O4        1.0  0.27291  0.96742  0.58219  1.0000
  O   O5        1.0  0.75459  0.48487  0.61065  1.0000
  O   O6        1.0  0.25096  0.01426  0.38837  1.0000
  O   O7        1.0  0.24671  0.51648  0.38913  1.0000
  O   O8        1.0  0.74607  0.98395  0.61028  1.0000
  O   O9        1.0  0.01677  0.69584  0.63342  1.0000
  O   O10       1.0  0.51526  0.80422  0.36637  1.0000
  O   O11       1.0  0.98560  0.30525  0.36852  1.0000
  O   O12       1.0  0.48526  0.19549  0.63286  1.0000
  O   O13       1.0  0.46439  0.70438  0.54499  1.0000
  O   O14       1.0  0.96455  0.79689  0.45517  1.0000
  O   O15       1.0  0.53232  0.29826  0.45422  1.0000
  O   O16       1.0  0.03380  0.20284  0.54680  1.0000
