data_image0
_chemical_formula_structural       Zn2H32C42N4O10
_chemical_formula_sum              "Zn2 H32 C42 N4 O10"
_cell_length_a       9.3029
_cell_length_b       10.2868
_cell_length_c       13.3554
_cell_angle_alpha    82.9591
_cell_angle_beta     70.7417
_cell_angle_gamma    71.9102

_space_group_name_H-M_alt    "P 1"
_space_group_IT_number       1

loop_
  _space_group_symop_operation_xyz
  'x, y, z'

loop_
  _atom_site_type_symbol
  _atom_site_label
  _atom_site_symmetry_multiplicity
  _atom_site_fract_x
  _atom_site_fract_y
  _atom_site_fract_z
  _atom_site_occupancy
  Zn  Zn1       1.0  0.66784  0.12405  0.44423  1.0000
  Zn  Zn2       1.0  0.33216  0.87595  0.55577  1.0000
  H   H1        1.0  0.72912  0.93379  0.94307  1.0000
  H   H2        1.0  0.27088  0.06621  0.05693  1.0000
  H   H3        1.0  0.45200  0.19480  0.99079  1.0000
  H   H4        1.0  0.54800  0.80520  0.00921  1.0000
  H   H5        1.0  0.63194  0.58948  0.46801  1.0000
  H   H6        1.0  0.36806  0.41052  0.53198  1.0000
  H   H7        1.0  0.03932  0.74466  0.36264  1.0000
  H   H8        1.0  0.96068  0.25533  0.63737  1.0000
  H   H9        1.0  0.36667  0.28830  0.17299  1.0000
  H   H10       1.0  0.63333  0.71171  0.82701  1.0000
  H   H11       1.0  0.44119  0.24021  0.65520  1.0000
  H   H12       1.0  0.55881  0.75979  0.34480  1.0000
  H   H13       1.0  0.44392  0.29857  0.33172  1.0000
  H   H14       1.0  0.55608  0.70143  0.66828  1.0000
  H   H15       1.0  0.09775  0.31659  0.32897  1.0000
  H   H16       1.0  0.90226  0.68341  0.67103  1.0000
  H   H17       1.0  0.89107  0.96214  0.57149  1.0000
  H   H18       1.0  0.10893  0.03786  0.42851  1.0000
  H   H19       1.0  0.86479  0.99219  0.22434  1.0000
  H   H20       1.0  0.13521  0.00781  0.77566  1.0000
  H   H21       1.0  0.40524  0.19262  0.84658  1.0000
  H   H22       1.0  0.59476  0.80738  0.15342  1.0000
  H   H23       1.0  0.87814  0.90532  0.75743  1.0000
  H   H24       1.0  0.12186  0.09468  0.24257  1.0000
  H   H25       1.0  0.80827  0.96803  0.05884  1.0000
  H   H26       1.0  0.19173  0.03197  0.94116  1.0000
  H   H27       1.0  0.28626  0.68566  0.24259  1.0000
  H   H28       1.0  0.71374  0.31434  0.75741  1.0000
  H   H29       1.0  0.45369  0.54739  0.25613  1.0000
  H   H30       1.0  0.54631  0.45261  0.74387  1.0000
  H   H31       1.0  0.30433  0.62779  0.37196  1.0000
  H   H32       1.0  0.69567  0.37221  0.62804  1.0000
  C   C1        1.0  0.51042  0.09616  0.02229  1.0000
  C   C2        1.0  0.48958  0.90384  0.97771  1.0000
  C   C3        1.0  0.75938  0.57338  0.43062  1.0000
  C   C4        1.0  0.24063  0.42662  0.56938  1.0000
  C   C5        1.0  0.99142  0.65863  0.37070  1.0000
  C   C6        1.0  0.00858  0.34137  0.62930  1.0000
  C   C7        1.0  0.47962  0.22065  0.17955  1.0000
  C   C8        1.0  0.52038  0.77935  0.82045  1.0000
  C   C9        1.0  0.63745  0.04130  0.82061  1.0000
  C   C10       1.0  0.36255  0.95870  0.17939  1.0000
  C   C11       1.0  0.61355  0.99212  0.93352  1.0000
  C   C12       1.0  0.38645  0.00788  0.06648  1.0000
  C   C13       1.0  0.57757  0.12226  0.10311  1.0000
  C   C14       1.0  0.42243  0.87774  0.89689  1.0000
  C   C15       1.0  0.53440  0.16615  0.68187  1.0000
  C   C16       1.0  0.46560  0.83385  0.31813  1.0000
  C   C17       1.0  0.52181  0.22792  0.26871  1.0000
  C   C18       1.0  0.47819  0.77209  0.73128  1.0000
  C   C19       1.0  0.79123  0.32328  0.41169  1.0000
  C   C20       1.0  0.20877  0.67672  0.58831  1.0000
  C   C21       1.0  0.02172  0.41955  0.35183  1.0000
  C   C22       1.0  0.97828  0.58046  0.64817  1.0000
  C   C23       1.0  0.78564  0.01269  0.63445  1.0000
  C   C24       1.0  0.21436  0.98731  0.36556  1.0000
  C   C25       1.0  0.85805  0.44216  0.39705  1.0000
  C   C26       1.0  0.14195  0.55784  0.60295  1.0000
  C   C27       1.0  0.82667  0.68120  0.41674  1.0000
  C   C28       1.0  0.17333  0.31880  0.58326  1.0000
  C   C29       1.0  0.75712  0.05727  0.20811  1.0000
  C   C30       1.0  0.24288  0.94273  0.79189  1.0000
  C   C31       1.0  0.08846  0.52742  0.33874  1.0000
  C   C32       1.0  0.91154  0.47258  0.66126  1.0000
  C   C33       1.0  0.51625  0.13922  0.78901  1.0000
  C   C34       1.0  0.48375  0.86078  0.21099  1.0000
  C   C35       1.0  0.77662  0.98082  0.74039  1.0000
  C   C36       1.0  0.22338  0.01918  0.25961  1.0000
  C   C37       1.0  0.72322  0.04392  0.11633  1.0000
  C   C38       1.0  0.27678  0.95607  0.88367  1.0000
  C   C39       1.0  0.32613  0.59596  0.29134  1.0000
  C   C40       1.0  0.67387  0.40404  0.70866  1.0000
  C   C41       1.0  0.72411  0.82387  0.45024  1.0000
  C   C42       1.0  0.27589  0.17613  0.54976  1.0000
  N   N1        1.0  0.65568  0.14393  0.28488  1.0000
  N   N2        1.0  0.34432  0.85607  0.71512  1.0000
  N   N3        1.0  0.66506  0.10154  0.60551  1.0000
  N   N4        1.0  0.33494  0.89846  0.39449  1.0000
  O   O1        1.0  0.64067  0.34442  0.44670  1.0000
  O   O2        1.0  0.35933  0.65558  0.55330  1.0000
  O   O3        1.0  0.79024  0.92003  0.41683  1.0000
  O   O4        1.0  0.20976  0.07997  0.58317  1.0000
  O   O5        1.0  0.88655  0.20322  0.38989  1.0000
  O   O6        1.0  0.11345  0.79678  0.61011  1.0000
  O   O7        1.0  0.58191  0.84073  0.50849  1.0000
  O   O8        1.0  0.41809  0.15927  0.49151  1.0000
  O   O9        1.0  0.25016  0.49398  0.29349  1.0000
  O   O10       1.0  0.74984  0.50603  0.70651  1.0000
