data_image0
_chemical_formula_structural       Zn3H52C64N4O18
_chemical_formula_sum              "Zn3 H52 C64 N4 O18"
_cell_length_a       10.533
_cell_length_b       14.6159
_cell_length_c       16.1531
_cell_angle_alpha    99.6616
_cell_angle_beta     102.525
_cell_angle_gamma    101.043

_space_group_name_H-M_alt    "P 1"
_space_group_IT_number       1

loop_
  _space_group_symop_operation_xyz
  'x, y, z'

loop_
  _atom_site_type_symbol
  _atom_site_label
  _atom_site_symmetry_multiplicity
  _atom_site_fract_x
  _atom_site_fract_y
  _atom_site_fract_z
  _atom_site_occupancy
  Zn  Zn1       1.0  1.00000  0.50000  0.50000  1.0000
  Zn  Zn2       1.0  0.78345  0.62604  0.53044  1.0000
  Zn  Zn3       1.0  0.21655  0.37396  0.46956  1.0000
  H   H1        1.0  0.91597  0.33911  0.68580  1.0000
  H   H2        1.0  0.08403  0.66090  0.31420  1.0000
  H   H3        1.0  0.56927  0.45708  0.66256  1.0000
  H   H4        1.0  0.43073  0.54292  0.33744  1.0000
  H   H5        1.0  0.92560  0.49728  0.29947  1.0000
  H   H6        1.0  0.07440  0.50272  0.70053  1.0000
  H   H7        1.0  0.90563  0.39969  0.15210  1.0000
  H   H8        1.0  0.09437  0.60031  0.84790  1.0000
  H   H9        1.0  0.47529  0.33151  0.10568  1.0000
  H   H10       1.0  0.52471  0.66849  0.89432  1.0000
  H   H11       1.0  0.49780  0.42504  0.25315  1.0000
  H   H12       1.0  0.50220  0.57496  0.74685  1.0000
  H   H13       1.0  0.61048  0.91605  0.39954  1.0000
  H   H14       1.0  0.38952  0.08395  0.60046  1.0000
  H   H15       1.0  0.41754  0.92047  0.60966  1.0000
  H   H16       1.0  0.58246  0.07953  0.39034  1.0000
  H   H17       1.0  0.34648  0.74447  0.52737  1.0000
  H   H18       1.0  0.65352  0.25553  0.47263  1.0000
  H   H19       1.0  0.74381  0.83595  0.50680  1.0000
  H   H20       1.0  0.25619  0.16405  0.49320  1.0000
  H   H21       1.0  0.47983  0.59973  0.54592  1.0000
  H   H22       1.0  0.52016  0.40026  0.45408  1.0000
  H   H23       1.0  0.48199  0.35392  0.75575  1.0000
  H   H24       1.0  0.51801  0.64608  0.24425  1.0000
  H   H25       1.0  0.23205  0.02361  0.77692  1.0000
  H   H26       1.0  0.76795  0.97639  0.22308  1.0000
  H   H27       1.0  0.49754  0.83202  0.77815  1.0000
  H   H28       1.0  0.50246  0.16798  0.22185  1.0000
  H   H29       1.0  0.05067  0.89601  0.67219  1.0000
  H   H30       1.0  0.94933  0.10399  0.32781  1.0000
  H   H31       1.0  0.31197  0.70432  0.67466  1.0000
  H   H32       1.0  0.68802  0.29568  0.32533  1.0000
  H   H33       1.0  0.39533  0.07101  0.92789  1.0000
  H   H34       1.0  0.60467  0.92899  0.07211  1.0000
  H   H35       1.0  0.41454  0.12416  0.83771  1.0000
  H   H36       1.0  0.58546  0.87584  0.16229  1.0000
  H   H37       1.0  0.77305  0.23708  0.91464  1.0000
  H   H38       1.0  0.22695  0.76292  0.08536  1.0000
  H   H39       1.0  0.69531  0.12819  0.83433  1.0000
  H   H40       1.0  0.30469  0.87181  0.16567  1.0000
  H   H41       1.0  0.83302  0.23842  0.78197  1.0000
  H   H42       1.0  0.16698  0.76158  0.21803  1.0000
  H   H43       1.0  0.50109  0.27027  0.95836  1.0000
  H   H44       1.0  0.49891  0.72972  0.04163  1.0000
  H   H45       1.0  0.51446  0.20397  0.04271  1.0000
  H   H46       1.0  0.48554  0.79603  0.95729  1.0000
  H   H47       1.0  0.70236  0.03768  0.95578  1.0000
  H   H48       1.0  0.29764  0.96232  0.04422  1.0000
  H   H49       1.0  0.62229  0.06998  0.03908  1.0000
  H   H50       1.0  0.37771  0.93002  0.96092  1.0000
  H   H51       1.0  0.77313  0.14624  0.03626  1.0000
  H   H52       1.0  0.22687  0.85376  0.96373  1.0000
  C   C1        1.0  0.80086  0.46878  0.61488  1.0000
  C   C2        1.0  0.19914  0.53121  0.38512  1.0000
  C   C3        1.0  0.75013  0.40622  0.67037  1.0000
  C   C4        1.0  0.24987  0.59378  0.32963  1.0000
  C   C5        1.0  0.82198  0.34296  0.70255  1.0000
  C   C6        1.0  0.17802  0.65704  0.29745  1.0000
  C   C7        1.0  0.62721  0.40991  0.68968  1.0000
  C   C8        1.0  0.37278  0.59009  0.31032  1.0000
  C   C9        1.0  0.72132  0.51446  0.37586  1.0000
  C   C10       1.0  0.27868  0.48555  0.62414  1.0000
  C   C11       1.0  0.71285  0.46549  0.28607  1.0000
  C   C12       1.0  0.28715  0.53451  0.71393  1.0000
  C   C13       1.0  0.82782  0.46061  0.25636  1.0000
  C   C14       1.0  0.17218  0.53939  0.74364  1.0000
  C   C15       1.0  0.81700  0.40655  0.17480  1.0000
  C   C16       1.0  0.18300  0.59345  0.82520  1.0000
  C   C17       1.0  0.69038  0.35684  0.12123  1.0000
  C   C18       1.0  0.30962  0.64316  0.87877  1.0000
  C   C19       1.0  0.57438  0.36611  0.14791  1.0000
  C   C20       1.0  0.42562  0.63390  0.85210  1.0000
  C   C21       1.0  0.58672  0.41956  0.23034  1.0000
  C   C22       1.0  0.41328  0.58043  0.76966  1.0000
  C   C23       1.0  0.56420  0.95371  0.44444  1.0000
  C   C24       1.0  0.43581  0.04630  0.55556  1.0000
  C   C25       1.0  0.45171  0.95493  0.56093  1.0000
  C   C26       1.0  0.54829  0.04507  0.43906  1.0000
  C   C27       1.0  0.51643  0.90895  0.50546  1.0000
  C   C28       1.0  0.48357  0.09105  0.49454  1.0000
  C   C29       1.0  0.44844  0.74180  0.52720  1.0000
  C   C30       1.0  0.55156  0.25820  0.47280  1.0000
  C   C31       1.0  0.65427  0.78986  0.51303  1.0000
  C   C32       1.0  0.34573  0.21014  0.48697  1.0000
  C   C33       1.0  0.51491  0.67045  0.53489  1.0000
  C   C34       1.0  0.48508  0.32956  0.46511  1.0000
  C   C35       1.0  0.57763  0.35196  0.74064  1.0000
  C   C36       1.0  0.42237  0.64804  0.25936  1.0000
  C   C37       1.0  0.37717  0.93566  0.78387  1.0000
  C   C38       1.0  0.62283  0.06434  0.21613  1.0000
  C   C39       1.0  0.25140  0.95449  0.75415  1.0000
  C   C40       1.0  0.74860  0.04551  0.24585  1.0000
  C   C41       1.0  0.39954  0.84571  0.75406  1.0000
  C   C42       1.0  0.60046  0.15429  0.24594  1.0000
  C   C43       1.0  0.05849  0.71354  0.60735  1.0000
  C   C44       1.0  0.94152  0.28646  0.39266  1.0000
  C   C45       1.0  0.17001  0.79243  0.66612  1.0000
  C   C46       1.0  0.82999  0.20757  0.33388  1.0000
  C   C47       1.0  0.14930  0.88281  0.69527  1.0000
  C   C48       1.0  0.85070  0.11719  0.30473  1.0000
  C   C49       1.0  0.29659  0.77503  0.69627  1.0000
  C   C50       1.0  0.70341  0.22497  0.30373  1.0000
  C   C51       1.0  0.46198  0.08713  0.88536  1.0000
  C   C52       1.0  0.53802  0.91287  0.11464  1.0000
  C   C53       1.0  0.59775  0.15129  0.93875  1.0000
  C   C54       1.0  0.40225  0.84871  0.06125  1.0000
  C   C55       1.0  0.67661  0.18866  0.87711  1.0000
  C   C56       1.0  0.32340  0.81134  0.12289  1.0000
  C   C57       1.0  0.65250  0.29108  0.77514  1.0000
  C   C58       1.0  0.34750  0.70892  0.22486  1.0000
  C   C59       1.0  0.77487  0.28598  0.75589  1.0000
  C   C60       1.0  0.22514  0.71402  0.24411  1.0000
  C   C61       1.0  0.56612  0.23356  0.99710  1.0000
  C   C62       1.0  0.43388  0.76644  0.00290  1.0000
  C   C63       1.0  0.67934  0.09777  0.99556  1.0000
  C   C64       1.0  0.32066  0.90223  0.00444  1.0000
  N   N1        1.0  0.64288  0.70181  0.52625  1.0000
  N   N2        1.0  0.35712  0.29819  0.47375  1.0000
  N   N3        1.0  0.53748  0.81723  0.51300  1.0000
  N   N4        1.0  0.46252  0.18277  0.48700  1.0000
  O   O1        1.0  0.75309  0.54279  0.61082  1.0000
  O   O2        1.0  0.24691  0.45721  0.38917  1.0000
  O   O3        1.0  0.61769  0.51332  0.40259  1.0000
  O   O4        1.0  0.38231  0.48668  0.59741  1.0000
  O   O5        1.0  0.83928  0.56061  0.42685  1.0000
  O   O6        1.0  0.16072  0.43939  0.57315  1.0000
  O   O7        1.0  0.08354  0.63257  0.58729  1.0000
  O   O8        1.0  0.91645  0.36742  0.41271  1.0000
  O   O9        1.0  0.88600  0.44429  0.57623  1.0000
  O   O10       1.0  0.11400  0.55571  0.42377  1.0000
  O   O11       1.0  0.68940  0.29971  0.04468  1.0000
  O   O12       1.0  0.31060  0.70030  0.95532  1.0000
  O   O13       1.0  0.59711  0.23922  0.82691  1.0000
  O   O14       1.0  0.40289  0.76078  0.17309  1.0000
  O   O15       1.0  0.48405  0.99986  0.84216  1.0000
  O   O16       1.0  0.51595  0.00014  0.15784  1.0000
  O   O17       1.0  0.94463  0.73399  0.58350  1.0000
  O   O18       1.0  0.05537  0.26601  0.41650  1.0000
