data_image0
_chemical_formula_structural       Zn3H52C64N4O18
_chemical_formula_sum              "Zn3 H52 C64 N4 O18"
_cell_length_a       8.99636
_cell_length_b       12.3242
_cell_length_c       15.9075
_cell_angle_alpha    76.9765
_cell_angle_beta     76.0625
_cell_angle_gamma    79.0547

_space_group_name_H-M_alt    "P 1"
_space_group_IT_number       1

loop_
  _space_group_symop_operation_xyz
  'x, y, z'

loop_
  _atom_site_type_symbol
  _atom_site_label
  _atom_site_symmetry_multiplicity
  _atom_site_fract_x
  _atom_site_fract_y
  _atom_site_fract_z
  _atom_site_occupancy
  Zn  Zn1       1.0  1.00000  0.50000  0.50000  1.0000
  Zn  Zn2       1.0  0.65767  0.64516  0.56171  1.0000
  Zn  Zn3       1.0  0.34233  0.35484  0.43829  1.0000
  H   H1        1.0  0.26556  0.02636  0.85546  1.0000
  H   H2        1.0  0.73444  0.97364  0.14455  1.0000
  H   H3        1.0  0.37921  0.04338  0.92824  1.0000
  H   H4        1.0  0.62078  0.95662  0.07176  1.0000
  H   H5        1.0  0.89141  0.89837  0.83421  1.0000
  H   H6        1.0  0.10859  0.10163  0.16579  1.0000
  H   H7        1.0  0.27007  0.92165  0.05669  1.0000
  H   H8        1.0  0.72992  0.07835  0.94331  1.0000
  H   H9        1.0  0.12562  0.92746  0.99463  1.0000
  H   H10       1.0  0.87437  0.07254  0.00537  1.0000
  H   H11       1.0  0.96480  0.55387  0.30396  1.0000
  H   H12       1.0  0.03520  0.44613  0.69605  1.0000
  H   H13       1.0  0.77022  0.81486  0.74265  1.0000
  H   H14       1.0  0.22978  0.18514  0.25735  1.0000
  H   H15       1.0  0.41830  0.37941  0.73271  1.0000
  H   H16       1.0  0.58170  0.62059  0.26729  1.0000
  H   H17       1.0  0.32998  0.20138  0.81907  1.0000
  H   H18       1.0  0.67002  0.79862  0.18093  1.0000
  H   H19       1.0  0.50209  0.72845  0.99729  1.0000
  H   H20       1.0  0.49791  0.27155  0.00271  1.0000
  H   H21       1.0  0.54863  0.86199  0.99719  1.0000
  H   H22       1.0  0.45137  0.13801  0.00281  1.0000
  H   H23       1.0  0.60774  0.80494  0.89925  1.0000
  H   H24       1.0  0.39226  0.19507  0.10075  1.0000
  H   H25       1.0  0.40597  0.80450  0.81007  1.0000
  H   H26       1.0  0.59403  0.19550  0.18993  1.0000
  H   H27       1.0  0.32292  0.71158  0.90713  1.0000
  H   H28       1.0  0.67708  0.28842  0.09287  1.0000
  H   H29       1.0  0.31503  0.67210  0.77127  1.0000
  H   H30       1.0  0.68497  0.32790  0.22872  1.0000
  H   H31       1.0  0.76332  0.01711  0.70593  1.0000
  H   H32       1.0  0.23668  0.98289  0.29407  1.0000
  H   H33       1.0  0.85334  0.19852  0.62512  1.0000
  H   H34       1.0  0.14666  0.80148  0.37488  1.0000
  H   H35       1.0  0.32736  0.02260  0.61134  1.0000
  H   H36       1.0  0.67265  0.97740  0.38866  1.0000
  H   H37       1.0  0.05784  0.79140  0.52722  1.0000
  H   H38       1.0  0.94216  0.20860  0.47278  1.0000
  H   H39       1.0  0.31229  0.73516  0.50928  1.0000
  H   H40       1.0  0.68771  0.26484  0.49072  1.0000
  H   H41       1.0  0.03578  0.94033  0.13841  1.0000
  H   H42       1.0  0.96422  0.05967  0.86159  1.0000
  H   H43       1.0  0.86205  0.91226  0.28407  1.0000
  H   H44       1.0  0.13795  0.08774  0.71593  1.0000
  H   H45       1.0  0.57584  0.85839  0.64374  1.0000
  H   H46       1.0  0.42416  0.14160  0.35626  1.0000
  H   H47       1.0  0.19444  0.59386  0.67867  1.0000
  H   H48       1.0  0.80556  0.40614  0.32133  1.0000
  H   H49       1.0  0.18501  0.11498  0.51851  1.0000
  H   H50       1.0  0.81500  0.88502  0.48149  1.0000
  H   H51       1.0  0.13966  0.58001  0.15487  1.0000
  H   H52       1.0  0.86034  0.41999  0.84513  1.0000
  C   C1        1.0  0.36109  0.86952  0.93084  1.0000
  C   C2        1.0  0.63890  0.13048  0.06916  1.0000
  C   C3        1.0  0.37056  0.99121  0.88198  1.0000
  C   C4        1.0  0.62944  0.00879  0.11802  1.0000
  C   C5        1.0  0.10147  0.76096  0.13775  1.0000
  C   C6        1.0  0.89853  0.23904  0.86225  1.0000
  C   C7        1.0  0.95626  0.83084  0.80042  1.0000
  C   C8        1.0  0.04374  0.16916  0.19958  1.0000
  C   C9        1.0  0.23289  0.87849  0.01314  1.0000
  C   C10       1.0  0.76711  0.12151  0.98686  1.0000
  C   C11       1.0  0.98101  0.63788  0.26679  1.0000
  C   C12       1.0  0.01899  0.36212  0.73321  1.0000
  C   C13       1.0  0.11057  0.79161  0.80818  1.0000
  C   C14       1.0  0.88943  0.20839  0.19182  1.0000
  C   C15       1.0  0.97486  0.69910  0.70448  1.0000
  C   C16       1.0  0.02514  0.30090  0.29552  1.0000
  C   C17       1.0  0.88941  0.78439  0.74947  1.0000
  C   C18       1.0  0.11060  0.21561  0.25053  1.0000
  C   C19       1.0  0.49460  0.29994  0.72824  1.0000
  C   C20       1.0  0.50540  0.70006  0.27175  1.0000
  C   C21       1.0  0.44503  0.19943  0.77693  1.0000
  C   C22       1.0  0.55497  0.80057  0.22307  1.0000
  C   C23       1.0  0.54226  0.09729  0.76825  1.0000
  C   C24       1.0  0.45774  0.90271  0.23175  1.0000
  C   C25       1.0  0.79972  0.72076  0.39279  1.0000
  C   C26       1.0  0.20028  0.27924  0.60721  1.0000
  C   C27       1.0  0.51441  0.81257  0.95730  1.0000
  C   C28       1.0  0.48559  0.18743  0.04270  1.0000
  C   C29       1.0  0.32106  0.80000  0.87309  1.0000
  C   C30       1.0  0.67894  0.20000  0.12691  1.0000
  C   C31       1.0  0.69646  0.40742  0.62037  1.0000
  C   C32       1.0  0.30354  0.59258  0.37963  1.0000
  C   C33       1.0  0.19562  0.70387  0.76612  1.0000
  C   C34       1.0  0.80438  0.29612  0.23388  1.0000
  C   C35       1.0  0.68881  0.09687  0.71212  1.0000
  C   C36       1.0  0.31119  0.90313  0.28788  1.0000
  C   C37       1.0  0.73808  0.19781  0.66653  1.0000
  C   C38       1.0  0.26192  0.80219  0.33347  1.0000
  C   C39       1.0  0.64158  0.30066  0.67295  1.0000
  C   C40       1.0  0.35842  0.69934  0.32704  1.0000
  C   C41       1.0  0.35946  0.93786  0.59751  1.0000
  C   C42       1.0  0.64054  0.06214  0.40250  1.0000
  C   C43       1.0  0.03315  0.88279  0.51510  1.0000
  C   C44       1.0  0.96685  0.11721  0.48491  1.0000
  C   C45       1.0  0.13671  0.94710  0.52620  1.0000
  C   C46       1.0  0.86329  0.05289  0.47380  1.0000
  C   C47       1.0  0.34971  0.78838  0.54347  1.0000
  C   C48       1.0  0.65029  0.21162  0.45653  1.0000
  C   C49       1.0  0.90850  0.65660  0.64297  1.0000
  C   C50       1.0  0.09150  0.34340  0.35703  1.0000
  C   C51       1.0  0.02157  0.85514  0.17339  1.0000
  C   C52       1.0  0.97844  0.14486  0.82661  1.0000
  C   C53       1.0  0.92330  0.83932  0.25592  1.0000
  C   C54       1.0  0.07670  0.16069  0.74408  1.0000
  C   C55       1.0  0.90323  0.73127  0.30419  1.0000
  C   C56       1.0  0.09678  0.26873  0.69581  1.0000
  C   C57       1.0  0.48191  0.85686  0.61260  1.0000
  C   C58       1.0  0.51809  0.14314  0.38741  1.0000
  C   C59       1.0  0.12756  0.65941  0.71402  1.0000
  C   C60       1.0  0.87245  0.34059  0.28598  1.0000
  C   C61       1.0  0.10380  0.06442  0.51092  1.0000
  C   C62       1.0  0.89620  0.93558  0.48908  1.0000
  C   C63       1.0  0.07846  0.65216  0.18416  1.0000
  C   C64       1.0  0.92154  0.34784  0.81584  1.0000
  N   N1        1.0  0.27582  0.89339  0.55375  1.0000
  N   N2        1.0  0.72418  0.10661  0.44625  1.0000
  N   N3        1.0  0.47455  0.76438  0.57852  1.0000
  N   N4        1.0  0.52546  0.23562  0.42148  1.0000
  O   O1        1.0  0.50491  0.99359  0.81218  1.0000
  O   O2        1.0  0.49508  0.00641  0.18782  1.0000
  O   O3        1.0  0.16855  0.84447  0.85726  1.0000
  O   O4        1.0  0.83145  0.15553  0.14274  1.0000
  O   O5        1.0  0.76522  0.69054  0.64168  1.0000
  O   O6        1.0  0.23479  0.30946  0.35832  1.0000
  O   O7        1.0  0.59687  0.49737  0.62109  1.0000
  O   O8        1.0  0.40313  0.50263  0.37891  1.0000
  O   O9        1.0  0.99969  0.59268  0.59442  1.0000
  O   O10       1.0  0.00032  0.40732  0.40558  1.0000
  O   O11       1.0  0.80895  0.62375  0.44832  1.0000
  O   O12       1.0  0.19105  0.37625  0.55168  1.0000
  O   O13       1.0  0.70561  0.80360  0.41419  1.0000
  O   O14       1.0  0.29440  0.19640  0.58581  1.0000
  O   O15       1.0  0.20445  0.76806  0.05868  1.0000
  O   O16       1.0  0.79555  0.23194  0.94132  1.0000
  O   O17       1.0  0.83588  0.40165  0.57817  1.0000
  O   O18       1.0  0.16412  0.59834  0.42183  1.0000
