data_image0
_chemical_formula_structural       Cu4H20C28N4O20
_chemical_formula_sum              "Cu4 H20 C28 N4 O20"
_cell_length_a       8.74786
_cell_length_b       9.42171
_cell_length_c       11.4875
_cell_angle_alpha    90.0015
_cell_angle_beta     108.653
_cell_angle_gamma    89.9999

_space_group_name_H-M_alt    "P 1"
_space_group_IT_number       1

loop_
  _space_group_symop_operation_xyz
  'x, y, z'

loop_
  _atom_site_type_symbol
  _atom_site_label
  _atom_site_symmetry_multiplicity
  _atom_site_fract_x
  _atom_site_fract_y
  _atom_site_fract_z
  _atom_site_occupancy
  Cu  Cu1       1.0  0.91607  0.75937  0.57863  1.0000
  Cu  Cu2       1.0  0.58394  0.25937  0.42137  1.0000
  Cu  Cu3       1.0  0.08395  0.24062  0.42137  1.0000
  Cu  Cu4       1.0  0.41606  0.74064  0.57862  1.0000
  H   H1        1.0  0.88389  0.48064  0.68466  1.0000
  H   H2        1.0  0.61611  0.98063  0.31535  1.0000
  H   H3        1.0  0.11611  0.51935  0.31535  1.0000
  H   H4        1.0  0.38391  0.01938  0.68466  1.0000
  H   H5        1.0  0.72490  0.33879  0.76405  1.0000
  H   H6        1.0  0.77508  0.83879  0.23596  1.0000
  H   H7        1.0  0.27506  0.66119  0.23595  1.0000
  H   H8        1.0  0.22493  0.16124  0.76406  1.0000
  H   H9        1.0  0.78030  0.56785  0.01923  1.0000
  H   H10       1.0  0.71969  0.06783  0.98078  1.0000
  H   H11       1.0  0.21967  0.43212  0.98078  1.0000
  H   H12       1.0  0.28034  0.93219  0.01923  1.0000
  H   H13       1.0  0.85877  0.81915  0.00155  1.0000
  H   H14       1.0  0.64125  0.31913  0.99847  1.0000
  H   H15       1.0  0.14123  0.18082  0.99847  1.0000
  H   H16       1.0  0.35877  0.68088  0.00154  1.0000
  H   H17       1.0  0.92870  0.89503  0.81332  1.0000
  H   H18       1.0  0.57132  0.39502  0.18670  1.0000
  H   H19       1.0  0.07130  0.10495  0.18670  1.0000
  H   H20       1.0  0.42869  0.60498  0.81330  1.0000
  C   C1        1.0  0.03285  0.02471  0.56669  1.0000
  C   C2        1.0  0.46715  0.52470  0.43330  1.0000
  C   C3        1.0  0.96715  0.97530  0.43329  1.0000
  C   C4        1.0  0.53285  0.47529  0.56671  1.0000
  C   C5        1.0  0.90693  0.48688  0.47596  1.0000
  C   C6        1.0  0.59308  0.98690  0.52403  1.0000
  C   C7        1.0  0.09309  0.51310  0.52404  1.0000
  C   C8        1.0  0.40691  0.01313  0.47595  1.0000
  C   C9        1.0  0.87701  0.55428  0.75561  1.0000
  C   C10       1.0  0.62298  0.05427  0.24439  1.0000
  C   C11       1.0  0.12297  0.44571  0.24439  1.0000
  C   C12       1.0  0.37703  0.94575  0.75561  1.0000
  C   C13       1.0  0.82315  0.50589  0.85075  1.0000
  C   C14       1.0  0.67684  0.00588  0.14925  1.0000
  C   C15       1.0  0.17682  0.49409  0.14924  1.0000
  C   C16       1.0  0.32318  0.99414  0.85075  1.0000
  C   C17       1.0  0.82011  0.60158  0.94282  1.0000
  C   C18       1.0  0.67988  0.10157  0.05718  1.0000
  C   C19       1.0  0.17986  0.39840  0.05718  1.0000
  C   C20       1.0  0.32013  0.89846  0.94282  1.0000
  C   C21       1.0  0.86306  0.74222  0.93191  1.0000
  C   C22       1.0  0.63695  0.24221  0.06811  1.0000
  C   C23       1.0  0.13693  0.25775  0.06811  1.0000
  C   C24       1.0  0.36306  0.75781  0.93190  1.0000
  C   C25       1.0  0.90319  0.78505  0.82937  1.0000
  C   C26       1.0  0.59682  0.28504  0.17064  1.0000
  C   C27       1.0  0.09680  0.21493  0.17064  1.0000
  C   C28       1.0  0.40319  0.71498  0.82936  1.0000
  N   N1        1.0  0.90975  0.69116  0.74264  1.0000
  N   N2        1.0  0.59025  0.19116  0.25736  1.0000
  N   N3        1.0  0.09024  0.30882  0.25737  1.0000
  N   N4        1.0  0.40975  0.80886  0.74263  1.0000
  O   O1        1.0  0.01938  0.94099  0.64869  1.0000
  O   O2        1.0  0.48061  0.44098  0.35130  1.0000
  O   O3        1.0  0.98061  0.05901  0.35129  1.0000
  O   O4        1.0  0.51938  0.55902  0.64870  1.0000
  O   O5        1.0  0.10015  0.14599  0.58701  1.0000
  O   O6        1.0  0.39984  0.64598  0.41297  1.0000
  O   O7        1.0  0.89984  0.85402  0.41295  1.0000
  O   O8        1.0  0.60016  0.35402  0.58703  1.0000
  O   O9        1.0  0.81577  0.58744  0.49027  1.0000
  O   O10       1.0  0.68424  0.08746  0.50972  1.0000
  O   O11       1.0  0.18426  0.41254  0.50973  1.0000
  O   O12       1.0  0.31575  0.91255  0.49026  1.0000
  O   O13       1.0  0.85690  0.36929  0.42774  1.0000
  O   O14       1.0  0.64311  0.86931  0.57225  1.0000
  O   O15       1.0  0.14313  0.63069  0.57226  1.0000
  O   O16       1.0  0.35688  0.13071  0.42774  1.0000
  O   O17       1.0  0.77061  0.36981  0.85067  1.0000
  O   O18       1.0  0.72938  0.86979  0.14933  1.0000
  O   O19       1.0  0.22935  0.63018  0.14932  1.0000
  O   O20       1.0  0.27065  0.13022  0.85068  1.0000
