data_image0
_chemical_formula_structural       Fe2H12C12N8
_chemical_formula_sum              "Fe2 H12 C12 N8"
_cell_length_a       7.25371
_cell_length_b       7.25993
_cell_length_c       8.87838
_cell_angle_alpha    114.145
_cell_angle_beta     114.116
_cell_angle_gamma    89.9998

_space_group_name_H-M_alt    "P 1"
_space_group_IT_number       1

loop_
  _space_group_symop_operation_xyz
  'x, y, z'

loop_
  _atom_site_type_symbol
  _atom_site_label
  _atom_site_symmetry_multiplicity
  _atom_site_fract_x
  _atom_site_fract_y
  _atom_site_fract_z
  _atom_site_occupancy
  Fe  Fe1       1.0  0.75002  0.50002  0.99997  1.0000
  Fe  Fe2       1.0  0.24998  0.49997  0.00005  1.0000
  H   H1        1.0  0.24338  0.21031  0.48677  1.0000
  H   H2        1.0  0.25627  0.72311  0.51318  1.0000
  H   H3        1.0  0.74380  0.27688  0.48683  1.0000
  H   H4        1.0  0.75658  0.78972  0.51320  1.0000
  H   H5        1.0  0.85843  0.96345  0.31294  1.0000
  H   H6        1.0  0.45498  0.96306  0.31386  1.0000
  H   H7        1.0  0.04493  0.64904  0.68636  1.0000
  H   H8        1.0  0.35902  0.35060  0.31369  1.0000
  H   H9        1.0  0.14125  0.03687  0.68648  1.0000
  H   H10       1.0  0.54524  0.03666  0.68666  1.0000
  H   H11       1.0  0.95483  0.35012  0.31307  1.0000
  H   H12       1.0  0.64131  0.65020  0.68692  1.0000
  C   C1        1.0  0.18866  0.05339  0.37725  1.0000
  C   C2        1.0  0.31111  0.67586  0.62278  1.0000
  C   C3        1.0  0.68892  0.32412  0.37724  1.0000
  C   C4        1.0  0.81132  0.94664  0.62272  1.0000
  C   C5        1.0  0.99327  0.92905  0.29061  1.0000
  C   C6        1.0  0.29760  0.92883  0.29104  1.0000
  C   C7        1.0  0.20231  0.63763  0.70912  1.0000
  C   C8        1.0  0.49364  0.36218  0.29097  1.0000
  C   C9        1.0  0.00658  0.07112  0.70912  1.0000
  C   C10       1.0  0.70249  0.07105  0.70920  1.0000
  C   C11       1.0  0.79760  0.36198  0.29064  1.0000
  C   C12       1.0  0.50652  0.63817  0.70931  1.0000
  N   N1        1.0  0.98654  0.74231  0.16258  1.0000
  N   N2        1.0  0.17618  0.74215  0.16279  1.0000
  N   N3        1.0  0.32384  0.57931  0.83736  1.0000
  N   N4        1.0  0.48667  0.42054  0.16269  1.0000
  N   N5        1.0  0.01336  0.25780  0.83730  1.0000
  N   N6        1.0  0.82384  0.25776  0.83731  1.0000
  N   N7        1.0  0.67612  0.42045  0.16254  1.0000
  N   N8        1.0  0.51341  0.57965  0.83745  1.0000
