data_image0
_chemical_formula_structural       Mn2H10C20N4Cl4O10
_chemical_formula_sum              "Mn2 H10 C20 N4 Cl4 O10"
_cell_length_a       8.94283
_cell_length_b       9.4119
_cell_length_c       11.0583
_cell_angle_alpha    61.3567
_cell_angle_beta     67.7176
_cell_angle_gamma    78.3381

_space_group_name_H-M_alt    "P 1"
_space_group_IT_number       1

loop_
  _space_group_symop_operation_xyz
  'x, y, z'

loop_
  _atom_site_type_symbol
  _atom_site_label
  _atom_site_symmetry_multiplicity
  _atom_site_fract_x
  _atom_site_fract_y
  _atom_site_fract_z
  _atom_site_occupancy
  Mn  Mn1       1.0  0.63459  0.74103  0.55204  1.0000
  Mn  Mn2       1.0  0.36511  0.25907  0.44808  1.0000
  H   H1        1.0  0.48603  0.95963  0.35945  1.0000
  H   H2        1.0  0.51382  0.04008  0.64100  1.0000
  H   H3        1.0  0.66728  0.00355  0.27969  1.0000
  H   H4        1.0  0.33248  0.99644  0.72077  1.0000
  H   H5        1.0  0.22037  0.73336  0.71054  1.0000
  H   H6        1.0  0.77988  0.26683  0.28939  1.0000
  H   H7        1.0  0.98380  0.59655  0.73490  1.0000
  H   H8        1.0  0.01634  0.40362  0.26517  1.0000
  H   H9        1.0  0.05132  0.40564  0.62065  1.0000
  H   H10       1.0  0.94868  0.59456  0.37946  1.0000
  C   C1        1.0  0.95346  0.90182  0.45264  1.0000
  C   C2        1.0  0.04663  0.09794  0.54737  1.0000
  C   C3        1.0  0.16925  0.02548  0.45033  1.0000
  C   C4        1.0  0.83088  0.97426  0.54968  1.0000
  C   C5        1.0  0.11783  0.93941  0.39970  1.0000
  C   C6        1.0  0.88231  0.06028  0.60035  1.0000
  C   C7        1.0  0.61841  0.52260  0.85980  1.0000
  C   C8        1.0  0.38144  0.47745  0.14009  1.0000
  C   C9        1.0  0.53396  0.36943  0.12502  1.0000
  C   C10       1.0  0.46599  0.63060  0.87487  1.0000
  C   C11       1.0  0.64456  0.39620  0.98609  1.0000
  C   C12       1.0  0.35536  0.60385  0.01376  1.0000
  C   C13       1.0  0.23719  0.64979  0.66395  1.0000
  C   C14       1.0  0.76298  0.35031  0.33599  1.0000
  C   C15       1.0  0.10862  0.57460  0.67806  1.0000
  C   C16       1.0  0.89147  0.42548  0.32195  1.0000
  C   C17       1.0  0.14481  0.46965  0.61455  1.0000
  C   C18       1.0  0.85521  0.53043  0.38551  1.0000
  C   C19       1.0  0.41495  0.51676  0.53748  1.0000
  C   C20       1.0  0.58510  0.48327  0.46249  1.0000
  N   N1        1.0  0.39070  0.62194  0.59273  1.0000
  N   N2        1.0  0.60948  0.37817  0.40717  1.0000
  N   N3        1.0  0.29835  0.43976  0.54480  1.0000
  N   N4        1.0  0.70165  0.56031  0.45526  1.0000
  Cl  Cl1       1.0  0.25644  0.86183  0.28645  1.0000
  Cl  Cl2       1.0  0.74348  0.13794  0.71342  1.0000
  Cl  Cl3       1.0  0.81517  0.27157  0.97360  1.0000
  Cl  Cl4       1.0  0.18487  0.72872  0.02587  1.0000
  O   O1        1.0  0.89771  0.80862  0.42806  1.0000
  O   O2        1.0  0.10227  0.19128  0.57188  1.0000
  O   O3        1.0  0.31617  0.04887  0.42394  1.0000
  O   O4        1.0  0.68394  0.95097  0.57604  1.0000
  O   O5        1.0  0.71299  0.55734  0.73024  1.0000
  O   O6        1.0  0.28679  0.44277  0.26961  1.0000
  O   O7        1.0  0.55154  0.25958  0.24346  1.0000
  O   O8        1.0  0.44840  0.74050  0.75644  1.0000
  O   O9        1.0  0.59766  0.91011  0.34405  1.0000
  O   O10       1.0  0.40225  0.08974  0.65616  1.0000
