data_image0
_chemical_formula_structural       Cd4H48C24S8N40
_chemical_formula_sum              "Cd4 H48 C24 S8 N40"
_cell_length_a       6.71089
_cell_length_b       13.3024
_cell_length_c       15.7024
_cell_angle_alpha    107.376
_cell_angle_beta     89.9846
_cell_angle_gamma    104.628

_space_group_name_H-M_alt    "P 1"
_space_group_IT_number       1

loop_
  _space_group_symop_operation_xyz
  'x, y, z'

loop_
  _atom_site_type_symbol
  _atom_site_label
  _atom_site_symmetry_multiplicity
  _atom_site_fract_x
  _atom_site_fract_y
  _atom_site_fract_z
  _atom_site_occupancy
  Cd  Cd1       1.0  0.87820  0.24888  0.37414  1.0000
  Cd  Cd2       1.0  0.62914  0.75110  0.12582  1.0000
  Cd  Cd3       1.0  0.12180  0.75112  0.62586  1.0000
  Cd  Cd4       1.0  0.37088  0.24890  0.87418  1.0000
  H   H1        1.0  0.10798  0.41642  0.29329  1.0000
  H   H2        1.0  0.69142  0.58352  0.20665  1.0000
  H   H3        1.0  0.89202  0.58358  0.70671  1.0000
  H   H4        1.0  0.30857  0.41647  0.79335  1.0000
  H   H5        1.0  0.72823  0.31806  0.06588  1.0000
  H   H6        1.0  0.41031  0.68201  0.43417  1.0000
  H   H7        1.0  0.27176  0.68194  0.93413  1.0000
  H   H8        1.0  0.58968  0.31799  0.56583  1.0000
  H   H9        1.0  0.73199  0.02731  0.43486  1.0000
  H   H10       1.0  0.70484  0.97270  0.06526  1.0000
  H   H11       1.0  0.26801  0.97268  0.56514  1.0000
  H   H12       1.0  0.29517  0.02730  0.93474  1.0000
  H   H13       1.0  0.96742  0.18015  0.69512  1.0000
  H   H14       1.0  0.78679  0.81995  0.80487  1.0000
  H   H15       1.0  0.03259  0.81985  0.30488  1.0000
  H   H16       1.0  0.21321  0.18005  0.19513  1.0000
  H   H17       1.0  0.30005  0.51595  0.18085  1.0000
  H   H18       1.0  0.78432  0.48425  0.31921  1.0000
  H   H19       1.0  0.69994  0.48405  0.81914  1.0000
  H   H20       1.0  0.21567  0.51574  0.68079  1.0000
  H   H21       1.0  0.10569  0.57507  0.23633  1.0000
  H   H22       1.0  0.53083  0.42497  0.26376  1.0000
  H   H23       1.0  0.89430  0.42493  0.76367  1.0000
  H   H24       1.0  0.46916  0.57503  0.73624  1.0000
  H   H25       1.0  0.93433  0.51801  0.08794  1.0000
  H   H26       1.0  0.41627  0.48205  0.41208  1.0000
  H   H27       1.0  0.06566  0.48199  0.91206  1.0000
  H   H28       1.0  0.58372  0.51795  0.58791  1.0000
  H   H29       1.0  0.08956  0.42597  0.04496  1.0000
  H   H30       1.0  0.66356  0.57413  0.45510  1.0000
  H   H31       1.0  0.91042  0.57403  0.95504  1.0000
  H   H32       1.0  0.33643  0.42587  0.54490  1.0000
  H   H33       1.0  0.81184  0.89013  0.50793  1.0000
  H   H34       1.0  0.92162  0.10999  0.99216  1.0000
  H   H35       1.0  0.18816  0.10987  0.49207  1.0000
  H   H36       1.0  0.07840  0.89001  0.00783  1.0000
  H   H37       1.0  0.55997  0.90263  0.53263  1.0000
  H   H38       1.0  0.65717  0.09736  0.96757  1.0000
  H   H39       1.0  0.44003  0.09737  0.46737  1.0000
  H   H40       1.0  0.34285  0.90264  0.03243  1.0000
  H   H41       1.0  0.67144  0.01449  0.68201  1.0000
  H   H42       1.0  0.65687  0.98577  0.81813  1.0000
  H   H43       1.0  0.32856  0.98552  0.31799  1.0000
  H   H44       1.0  0.34313  0.01423  0.18187  1.0000
  H   H45       1.0  0.90237  0.96985  0.66541  1.0000
  H   H46       1.0  0.93245  0.03026  0.83469  1.0000
  H   H47       1.0  0.09762  0.03015  0.33460  1.0000
  H   H48       1.0  0.06755  0.96974  0.16531  1.0000
  C   C1        1.0  0.89219  0.33831  0.18487  1.0000
  C   C2        1.0  0.55398  0.66172  0.31515  1.0000
  C   C3        1.0  0.10781  0.66169  0.81513  1.0000
  C   C4        1.0  0.44602  0.33828  0.68485  1.0000
  C   C5        1.0  0.13527  0.50009  0.19130  1.0000
  C   C6        1.0  0.63533  0.50000  0.30875  1.0000
  C   C7        1.0  0.86472  0.49992  0.80869  1.0000
  C   C8        1.0  0.36466  0.50000  0.69125  1.0000
  C   C9        1.0  0.00201  0.45701  0.10150  1.0000
  C   C10       1.0  0.54507  0.54307  0.39854  1.0000
  C   C11       1.0  0.99798  0.54299  0.89850  1.0000
  C   C12       1.0  0.45492  0.45693  0.60146  1.0000
  C   C13       1.0  0.86752  0.13232  0.55910  1.0000
  C   C14       1.0  0.73506  0.86773  0.94093  1.0000
  C   C15       1.0  0.13248  0.86768  0.44090  1.0000
  C   C16       1.0  0.26495  0.13227  0.05907  1.0000
  C   C17       1.0  0.72315  0.94802  0.54056  1.0000
  C   C18       1.0  0.77507  0.05206  0.95959  1.0000
  C   C19       1.0  0.27685  0.05198  0.45945  1.0000
  C   C20       1.0  0.22495  0.94794  0.04041  1.0000
  C   C21       1.0  0.80087  0.00873  0.63947  1.0000
  C   C22       1.0  0.79200  0.99139  0.86063  1.0000
  C   C23       1.0  0.19913  0.99127  0.36053  1.0000
  C   C24       1.0  0.20801  0.00861  0.13937  1.0000
  S   S1        1.0  0.74855  0.22879  0.21128  1.0000
  S   S2        1.0  0.51983  0.77120  0.28873  1.0000
  S   S3        1.0  0.25146  0.77121  0.78872  1.0000
  S   S4        1.0  0.48017  0.22879  0.71127  1.0000
  S   S5        1.0  0.94900  0.25588  0.54049  1.0000
  S   S6        1.0  0.69306  0.74415  0.95949  1.0000
  S   S7        1.0  0.05099  0.74412  0.45951  1.0000
  S   S8        1.0  0.30695  0.25585  0.04051  1.0000
  N   N1        1.0  0.06873  0.40921  0.22870  1.0000
  N   N2        1.0  0.65960  0.59082  0.27129  1.0000
  N   N3        1.0  0.93126  0.59079  0.77130  1.0000
  N   N4        1.0  0.34039  0.40918  0.72870  1.0000
  N   N5        1.0  0.84067  0.36726  0.11478  1.0000
  N   N6        1.0  0.47354  0.63280  0.38527  1.0000
  N   N7        1.0  0.15932  0.63273  0.88522  1.0000
  N   N8        1.0  0.52646  0.36719  0.61473  1.0000
  N   N9        1.0  0.75483  0.03793  0.50197  1.0000
  N   N10       1.0  0.71701  0.96212  0.99815  1.0000
  N   N11       1.0  0.24517  0.96207  0.49803  1.0000
  N   N12       1.0  0.28300  0.03788  0.00185  1.0000
  N   N13       1.0  0.91272  0.11747  0.63697  1.0000
  N   N14       1.0  0.79480  0.88260  0.86303  1.0000
  N   N15       1.0  0.08728  0.88253  0.36303  1.0000
  N   N16       1.0  0.20521  0.11740  0.13697  1.0000
  N   N17       1.0  0.72839  0.05404  0.32607  1.0000
  N   N18       1.0  0.67432  0.94597  0.17402  1.0000
  N   N19       1.0  0.27162  0.94597  0.67394  1.0000
  N   N20       1.0  0.32568  0.05403  0.82599  1.0000
  N   N21       1.0  0.70282  0.99999  0.25004  1.0000
  N   N22       1.0  0.29718  1.00000  0.74995  1.0000
  N   N23       1.0  0.03406  0.44276  0.43093  1.0000
  N   N24       1.0  0.59098  0.55718  0.06915  1.0000
  N   N25       1.0  0.96593  0.55725  0.56907  1.0000
  N   N26       1.0  0.40901  0.44282  0.93085  1.0000
  N   N27       1.0  0.00000  0.49999  0.49999  1.0000
  N   N28       1.0  0.50001  0.50000  0.00000  1.0000
  N   N29       1.0  0.22324  0.24325  0.32636  1.0000
  N   N30       1.0  0.97995  0.75695  0.17355  1.0000
  N   N31       1.0  0.77676  0.75674  0.67365  1.0000
  N   N32       1.0  0.02006  0.24305  0.82645  1.0000
  N   N33       1.0  0.38019  0.26422  0.37117  1.0000
  N   N34       1.0  0.11591  0.73583  0.12877  1.0000
  N   N35       1.0  0.61981  0.73578  0.62883  1.0000
  N   N36       1.0  0.88409  0.26417  0.87123  1.0000
  N   N37       1.0  0.53668  0.28600  0.41527  1.0000
  N   N38       1.0  0.25062  0.71392  0.08469  1.0000
  N   N39       1.0  0.46332  0.71400  0.58473  1.0000
  N   N40       1.0  0.74939  0.28608  0.91530  1.0000
