data_image0
_chemical_formula_structural       Zn2H36C56N8O8
_chemical_formula_sum              "Zn2 H36 C56 N8 O8"
_cell_length_a       7.72028
_cell_length_b       10.2312
_cell_length_c       15.2239
_cell_angle_alpha    73.3942
_cell_angle_beta     80.7217
_cell_angle_gamma    81.8556

_space_group_name_H-M_alt    "P 1"
_space_group_IT_number       1

loop_
  _space_group_symop_operation_xyz
  'x, y, z'

loop_
  _atom_site_type_symbol
  _atom_site_label
  _atom_site_symmetry_multiplicity
  _atom_site_fract_x
  _atom_site_fract_y
  _atom_site_fract_z
  _atom_site_occupancy
  Zn  Zn1       1.0  0.21537  0.47869  0.98578  1.0000
  Zn  Zn2       1.0  0.78463  0.52131  0.01423  1.0000
  H   H1        1.0  0.21312  0.53083  0.53999  1.0000
  H   H2        1.0  0.78688  0.46917  0.46001  1.0000
  H   H3        1.0  0.03193  0.94532  0.29348  1.0000
  H   H4        1.0  0.96807  0.05468  0.70653  1.0000
  H   H5        1.0  0.10348  0.17564  0.29542  1.0000
  H   H6        1.0  0.89652  0.82436  0.70458  1.0000
  H   H7        1.0  0.25847  0.20119  0.41822  1.0000
  H   H8        1.0  0.74153  0.79881  0.58178  1.0000
  H   H9        1.0  0.35251  0.99803  0.54324  1.0000
  H   H10       1.0  0.64749  0.00197  0.45676  1.0000
  H   H11       1.0  0.53726  0.52421  0.56240  1.0000
  H   H12       1.0  0.46274  0.47579  0.43760  1.0000
  H   H13       1.0  0.71494  0.43969  0.69335  1.0000
  H   H14       1.0  0.28506  0.56030  0.30666  1.0000
  H   H15       1.0  0.43046  0.74824  0.81805  1.0000
  H   H16       1.0  0.56955  0.25177  0.18194  1.0000
  H   H17       1.0  0.25254  0.83385  0.68680  1.0000
  H   H18       1.0  0.74747  0.16615  0.31319  1.0000
  H   H19       1.0  0.56086  0.27800  0.98272  1.0000
  H   H20       1.0  0.43914  0.72200  0.01728  1.0000
  H   H21       1.0  0.07164  0.47912  0.78723  1.0000
  H   H22       1.0  0.92836  0.52087  0.21277  1.0000
  H   H23       1.0  0.04277  0.38130  0.65751  1.0000
  H   H24       1.0  0.95722  0.61870  0.34249  1.0000
  H   H25       1.0  0.25782  0.19957  0.61919  1.0000
  H   H26       1.0  0.74218  0.80044  0.38081  1.0000
  H   H27       1.0  0.50974  0.09903  0.71150  1.0000
  H   H28       1.0  0.49025  0.90097  0.28850  1.0000
  H   H29       1.0  0.50757  0.94516  0.87286  1.0000
  H   H30       1.0  0.49242  0.05484  0.12714  1.0000
  H   H31       1.0  0.73906  0.75240  0.89295  1.0000
  H   H32       1.0  0.26094  0.24759  0.10705  1.0000
  H   H33       1.0  0.11470  0.01799  0.90553  1.0000
  H   H34       1.0  0.88530  0.98201  0.09447  1.0000
  H   H35       1.0  0.87967  0.21735  0.87957  1.0000
  H   H36       1.0  0.12032  0.78265  0.12043  1.0000
  C   C1        1.0  0.20743  0.64016  0.50644  1.0000
  C   C2        1.0  0.79258  0.35983  0.49356  1.0000
  C   C3        1.0  0.15164  0.84248  0.41785  1.0000
  C   C4        1.0  0.84836  0.15752  0.58215  1.0000
  C   C5        1.0  0.10012  0.95707  0.34771  1.0000
  C   C6        1.0  0.89988  0.04293  0.65229  1.0000
  C   C7        1.0  0.14059  0.08470  0.34947  1.0000
  C   C8        1.0  0.85941  0.91530  0.65053  1.0000
  C   C9        1.0  0.23002  0.09940  0.41923  1.0000
  C   C10       1.0  0.76998  0.90060  0.58078  1.0000
  C   C11       1.0  0.28312  0.98668  0.48941  1.0000
  C   C12       1.0  0.71688  0.01332  0.51059  1.0000
  C   C13       1.0  0.24326  0.85891  0.48723  1.0000
  C   C14       1.0  0.75674  0.14110  0.51277  1.0000
  C   C15       1.0  0.38355  0.68364  0.61684  1.0000
  C   C16       1.0  0.61646  0.31636  0.38315  1.0000
  C   C17       1.0  0.51442  0.57335  0.61849  1.0000
  C   C18       1.0  0.48559  0.42664  0.38151  1.0000
  C   C19       1.0  0.61406  0.52617  0.69174  1.0000
  C   C20       1.0  0.38594  0.47383  0.30826  1.0000
  C   C21       1.0  0.58380  0.58873  0.76437  1.0000
  C   C22       1.0  0.41621  0.41127  0.23563  1.0000
  C   C23       1.0  0.45587  0.70121  0.76100  1.0000
  C   C24       1.0  0.54414  0.29879  0.23900  1.0000
  C   C25       1.0  0.35548  0.74890  0.68788  1.0000
  C   C26       1.0  0.64452  0.25110  0.31212  1.0000
  C   C27       1.0  0.68276  0.52971  0.84605  1.0000
  C   C28       1.0  0.31723  0.47030  0.15395  1.0000
  C   C29       1.0  0.48999  0.28211  0.92568  1.0000
  C   C30       1.0  0.51001  0.71789  0.07432  1.0000
  C   C31       1.0  0.30074  0.33756  0.82496  1.0000
  C   C32       1.0  0.69926  0.66244  0.17504  1.0000
  C   C33       1.0  0.16613  0.39750  0.77091  1.0000
  C   C34       1.0  0.83387  0.60250  0.22910  1.0000
  C   C35       1.0  0.15232  0.34387  0.69823  1.0000
  C   C36       1.0  0.84768  0.65613  0.30177  1.0000
  C   C37       1.0  0.27408  0.23747  0.67714  1.0000
  C   C38       1.0  0.72591  0.76253  0.32287  1.0000
  C   C39       1.0  0.41314  0.17943  0.72864  1.0000
  C   C40       1.0  0.58685  0.82057  0.27136  1.0000
  C   C41       1.0  0.42209  0.23073  0.80332  1.0000
  C   C42       1.0  0.57790  0.76927  0.19668  1.0000
  C   C43       1.0  0.68045  0.09096  0.87779  1.0000
  C   C44       1.0  0.31956  0.90904  0.12221  1.0000
  C   C45       1.0  0.64094  0.96132  0.87942  1.0000
  C   C46       1.0  0.35906  0.03869  0.12058  1.0000
  C   C47       1.0  0.77196  0.85236  0.89221  1.0000
  C   C48       1.0  0.22804  0.14764  0.10779  1.0000
  C   C49       1.0  0.94148  0.87050  0.90511  1.0000
  C   C50       1.0  0.05852  0.12951  0.09489  1.0000
  C   C51       1.0  0.98115  0.00306  0.89865  1.0000
  C   C52       1.0  0.01886  0.99694  0.10135  1.0000
  C   C53       1.0  0.85137  0.11388  0.88486  1.0000
  C   C54       1.0  0.14864  0.88612  0.11514  1.0000
  C   C55       1.0  0.07723  0.75137  0.92933  1.0000
  C   C56       1.0  0.92278  0.24862  0.07067  1.0000
  N   N1        1.0  0.13003  0.70453  0.43271  1.0000
  N   N2        1.0  0.86997  0.29547  0.56728  1.0000
  N   N3        1.0  0.27946  0.72654  0.54302  1.0000
  N   N4        1.0  0.72055  0.27346  0.45698  1.0000
  N   N5        1.0  0.34596  0.36576  0.90252  1.0000
  N   N6        1.0  0.65403  0.63424  0.09748  1.0000
  N   N7        1.0  0.54116  0.19932  0.86834  1.0000
  N   N8        1.0  0.45883  0.80068  0.13166  1.0000
  O   O1        1.0  0.62845  0.57818  0.91756  1.0000
  O   O2        1.0  0.37155  0.42182  0.08244  1.0000
  O   O3        1.0  0.80712  0.43791  0.84483  1.0000
  O   O4        1.0  0.19288  0.56210  0.15517  1.0000
  O   O5        1.0  0.23204  0.76762  0.93320  1.0000
  O   O6        1.0  0.76796  0.23238  0.06679  1.0000
  O   O7        1.0  0.02522  0.62710  0.94769  1.0000
  O   O8        1.0  0.97478  0.37290  0.05232  1.0000
