data_image0
_chemical_formula_structural       Mn2H24C32N16
_chemical_formula_sum              "Mn2 H24 C32 N16"
_cell_length_a       7.43839
_cell_length_b       9.06204
_cell_length_c       13.4969
_cell_angle_alpha    86.5223
_cell_angle_beta     81.5396
_cell_angle_gamma    65.7494

_space_group_name_H-M_alt    "P 1"
_space_group_IT_number       1

loop_
  _space_group_symop_operation_xyz
  'x, y, z'

loop_
  _atom_site_type_symbol
  _atom_site_label
  _atom_site_symmetry_multiplicity
  _atom_site_fract_x
  _atom_site_fract_y
  _atom_site_fract_z
  _atom_site_occupancy
  Mn  Mn1       1.0  0.09329  0.81299  0.74988  1.0000
  Mn  Mn2       1.0  0.90052  0.19804  0.24977  1.0000
  H   H1        1.0  0.30888  0.18189  0.70643  1.0000
  H   H2        1.0  0.50895  0.18198  0.79369  1.0000
  H   H3        1.0  0.69356  0.81603  0.29385  1.0000
  H   H4        1.0  0.49095  0.81554  0.20618  1.0000
  H   H5        1.0  0.79640  0.71627  0.64331  1.0000
  H   H6        1.0  0.48667  0.71640  0.85643  1.0000
  H   H7        1.0  0.20293  0.27971  0.35733  1.0000
  H   H8        1.0  0.51868  0.27908  0.14324  1.0000
  H   H9        1.0  0.60322  0.59836  0.57589  1.0000
  H   H10       1.0  0.79774  0.59859  0.92390  1.0000
  H   H11       1.0  0.38167  0.39302  0.43829  1.0000
  H   H12       1.0  0.22629  0.39199  0.06254  1.0000
  H   H13       1.0  0.64434  0.39630  0.61070  1.0000
  H   H14       1.0  0.95882  0.39658  0.88927  1.0000
  H   H15       1.0  0.37072  0.58058  0.38679  1.0000
  H   H16       1.0  0.04974  0.58001  0.11349  1.0000
  H   H17       1.0  0.76412  0.43432  0.49536  1.0000
  H   H18       1.0  0.80110  0.43468  0.00461  1.0000
  H   H19       1.0  0.23009  0.57706  0.50362  1.0000
  H   H20       1.0  0.19427  0.57550  0.99664  1.0000
  H   H21       1.0  0.03097  0.19613  0.62248  1.0000
  H   H22       1.0  0.77248  0.19628  0.87769  1.0000
  H   H23       1.0  0.97145  0.79964  0.37952  1.0000
  H   H24       1.0  0.22967  0.79888  0.12042  1.0000
  C   C1        1.0  0.19979  0.44250  0.72233  1.0000
  C   C2        1.0  0.35727  0.44256  0.77757  1.0000
  C   C3        1.0  0.80035  0.55670  0.27716  1.0000
  C   C4        1.0  0.64400  0.55633  0.22308  1.0000
  C   C5        1.0  0.88839  0.45843  0.62451  1.0000
  C   C6        1.0  0.65263  0.45855  0.87545  1.0000
  C   C7        1.0  0.11167  0.53681  0.37670  1.0000
  C   C8        1.0  0.35276  0.53600  0.12360  1.0000
  C   C9        1.0  0.19407  0.29949  0.69200  1.0000
  C   C10       1.0  0.50605  0.29961  0.80800  1.0000
  C   C11       1.0  0.80885  0.69840  0.30787  1.0000
  C   C12       1.0  0.49348  0.69784  0.19224  1.0000
  C   C13       1.0  0.90785  0.59504  0.65577  1.0000
  C   C14       1.0  0.49650  0.59516  0.84408  1.0000
  C   C15       1.0  0.09273  0.40096  0.34453  1.0000
  C   C16       1.0  0.50767  0.40030  0.15588  1.0000
  C   C17       1.0  0.74941  0.03218  0.61446  1.0000
  C   C18       1.0  0.21788  0.03217  0.88531  1.0000
  C   C19       1.0  0.22537  0.98086  0.37397  1.0000
  C   C20       1.0  0.79365  0.98059  0.12574  1.0000
  C   C21       1.0  0.71574  0.47370  0.57386  1.0000
  C   C22       1.0  0.80997  0.47396  0.92604  1.0000
  C   C23       1.0  0.28250  0.52008  0.42932  1.0000
  C   C24       1.0  0.19865  0.51904  0.07108  1.0000
  C   C25       1.0  0.70126  0.14051  0.45835  1.0000
  C   C26       1.0  0.15786  0.14061  0.04128  1.0000
  C   C27       1.0  0.30443  0.86680  0.52566  1.0000
  C   C28       1.0  0.82925  0.86594  0.97421  1.0000
  C   C29       1.0  0.03777  0.30781  0.64373  1.0000
  C   C30       1.0  0.65396  0.30792  0.85631  1.0000
  C   C31       1.0  0.96418  0.68880  0.35712  1.0000
  C   C32       1.0  0.34792  0.68816  0.14297  1.0000
  N   N1        1.0  0.05766  0.58847  0.70280  1.0000
  N   N2        1.0  0.35335  0.58854  0.79700  1.0000
  N   N3        1.0  0.94236  0.40899  0.29668  1.0000
  N   N4        1.0  0.65025  0.40828  0.20370  1.0000
  N   N5        1.0  0.83849  0.97048  0.68220  1.0000
  N   N6        1.0  0.19031  0.97048  0.81767  1.0000
  N   N7        1.0  0.12538  0.04561  0.31059  1.0000
  N   N8        1.0  0.82846  0.04590  0.18896  1.0000
  N   N9        1.0  0.63698  0.10091  0.54623  1.0000
  N   N10       1.0  0.26161  0.10109  0.95338  1.0000
  N   N11       1.0  0.35197  0.91156  0.43614  1.0000
  N   N12       1.0  0.73681  0.91081  0.06370  1.0000
  N   N13       1.0  0.74296  0.18464  0.37775  1.0000
  N   N14       1.0  0.07192  0.18471  0.12185  1.0000
  N   N15       1.0  0.27676  0.82031  0.60765  1.0000
  N   N16       1.0  0.90334  0.81955  0.89220  1.0000
