data_image0
_chemical_formula_structural       Zn10H36C64O36
_chemical_formula_sum              "Zn10 H36 C64 O36"
_cell_length_a       5.69187
_cell_length_b       16.6767
_cell_length_c       17.0337
_cell_angle_alpha    90.4892
_cell_angle_beta     89.9998
_cell_angle_gamma    90.0007

_space_group_name_H-M_alt    "P 1"
_space_group_IT_number       1

loop_
  _space_group_symop_operation_xyz
  'x, y, z'

loop_
  _atom_site_type_symbol
  _atom_site_label
  _atom_site_symmetry_multiplicity
  _atom_site_fract_x
  _atom_site_fract_y
  _atom_site_fract_z
  _atom_site_occupancy
  Zn  Zn1       1.0  0.02183  0.41673  0.95743  1.0000
  Zn  Zn2       1.0  0.52183  0.08327  0.04257  1.0000
  Zn  Zn3       1.0  0.97817  0.58327  0.04257  1.0000
  Zn  Zn4       1.0  0.47817  0.91673  0.95743  1.0000
  Zn  Zn5       1.0  0.52615  0.29507  0.99266  1.0000
  Zn  Zn6       1.0  0.02615  0.20493  0.00734  1.0000
  Zn  Zn7       1.0  0.47385  0.70493  0.00734  1.0000
  Zn  Zn8       1.0  0.97385  0.79507  0.99266  1.0000
  Zn  Zn9       1.0  0.50001  0.50000  1.00000  1.0000
  Zn  Zn10      1.0  0.00001  0.00000  0.00000  1.0000
  H   H1        1.0  0.02774  0.87804  0.72743  1.0000
  H   H2        1.0  0.52774  0.62196  0.27258  1.0000
  H   H3        1.0  0.97228  0.12196  0.27258  1.0000
  H   H4        1.0  0.47225  0.37804  0.72743  1.0000
  H   H5        1.0  0.01316  0.31285  0.75481  1.0000
  H   H6        1.0  0.51318  0.18715  0.24519  1.0000
  H   H7        1.0  0.98681  0.68715  0.24519  1.0000
  H   H8        1.0  0.48683  0.81285  0.75481  1.0000
  H   H9        1.0  0.81095  0.99939  0.51634  1.0000
  H   H10       1.0  0.31096  0.50061  0.48366  1.0000
  H   H11       1.0  0.18908  0.00061  0.48367  1.0000
  H   H12       1.0  0.68907  0.49939  0.51634  1.0000
  H   H13       1.0  0.21984  0.21381  0.53048  1.0000
  H   H14       1.0  0.71986  0.28619  0.46952  1.0000
  H   H15       1.0  0.78013  0.78618  0.46952  1.0000
  H   H16       1.0  0.28015  0.71381  0.53048  1.0000
  H   H17       1.0  0.96890  0.30663  0.60944  1.0000
  H   H18       1.0  0.46892  0.19336  0.39055  1.0000
  H   H19       1.0  0.03106  0.69336  0.39055  1.0000
  H   H20       1.0  0.53107  0.80663  0.60945  1.0000
  H   H21       1.0  0.05404  0.89357  0.58207  1.0000
  H   H22       1.0  0.55403  0.60642  0.41793  1.0000
  H   H23       1.0  0.94599  0.10643  0.41794  1.0000
  H   H24       1.0  0.44596  0.39357  0.58207  1.0000
  H   H25       1.0  0.85433  0.28623  0.90237  1.0000
  H   H26       1.0  0.35433  0.21377  0.09763  1.0000
  H   H27       1.0  0.14566  0.71377  0.09763  1.0000
  H   H28       1.0  0.64566  0.78623  0.90237  1.0000
  H   H29       1.0  0.28148  0.38710  0.07161  1.0000
  H   H30       1.0  0.78148  0.11291  0.92839  1.0000
  H   H31       1.0  0.71853  0.61291  0.92839  1.0000
  H   H32       1.0  0.21852  0.88709  0.07161  1.0000
  H   H33       1.0  0.80138  0.43374  0.08773  1.0000
  H   H34       1.0  0.30139  0.06627  0.91228  1.0000
  H   H35       1.0  0.19861  0.56627  0.91228  1.0000
  H   H36       1.0  0.69862  0.93374  0.08772  1.0000
  C   C1        1.0  0.76367  0.96045  0.82928  1.0000
  C   C2        1.0  0.26367  0.53955  0.17072  1.0000
  C   C3        1.0  0.23634  0.03955  0.17072  1.0000
  C   C4        1.0  0.73634  0.46045  0.82929  1.0000
  C   C5        1.0  0.79560  0.97856  0.74343  1.0000
  C   C6        1.0  0.29558  0.52145  0.25657  1.0000
  C   C7        1.0  0.20441  0.02144  0.25657  1.0000
  C   C8        1.0  0.70441  0.47855  0.74343  1.0000
  C   C9        1.0  0.93269  0.92606  0.69815  1.0000
  C   C10       1.0  0.43265  0.57395  0.30185  1.0000
  C   C11       1.0  0.06732  0.07394  0.30185  1.0000
  C   C12       1.0  0.56732  0.42606  0.69815  1.0000
  C   C13       1.0  0.55952  0.10499  0.75478  1.0000
  C   C14       1.0  0.05952  0.39501  0.24522  1.0000
  C   C15       1.0  0.44048  0.89501  0.24522  1.0000
  C   C16       1.0  0.94048  0.60499  0.75479  1.0000
  C   C17       1.0  0.27459  0.21901  0.75872  1.0000
  C   C18       1.0  0.77461  0.28099  0.24128  1.0000
  C   C19       1.0  0.72539  0.78099  0.24128  1.0000
  C   C20       1.0  0.22539  0.71901  0.75871  1.0000
  C   C21       1.0  0.29138  0.22585  0.84701  1.0000
  C   C22       1.0  0.79140  0.27416  0.15299  1.0000
  C   C23       1.0  0.70860  0.77416  0.15299  1.0000
  C   C24       1.0  0.20860  0.72584  0.84701  1.0000
  C   C25       1.0  0.40713  0.16354  0.71441  1.0000
  C   C26       1.0  0.90714  0.33645  0.28559  1.0000
  C   C27       1.0  0.59286  0.83646  0.28559  1.0000
  C   C28       1.0  0.09285  0.66355  0.71441  1.0000
  C   C29       1.0  0.11564  0.26970  0.72043  1.0000
  C   C30       1.0  0.61565  0.23030  0.27956  1.0000
  C   C31       1.0  0.88435  0.73030  0.27956  1.0000
  C   C32       1.0  0.38435  0.76970  0.72043  1.0000
  C   C33       1.0  0.38927  0.16337  0.63156  1.0000
  C   C34       1.0  0.88929  0.33662  0.36844  1.0000
  C   C35       1.0  0.61071  0.83662  0.36844  1.0000
  C   C36       1.0  0.11069  0.66338  0.63155  1.0000
  C   C37       1.0  0.67841  0.04273  0.70702  1.0000
  C   C38       1.0  0.17840  0.45727  0.29298  1.0000
  C   C39       1.0  0.32160  0.95727  0.29298  1.0000
  C   C40       1.0  0.82159  0.54273  0.70702  1.0000
  C   C41       1.0  0.81501  0.99416  0.57988  1.0000
  C   C42       1.0  0.31501  0.50584  0.42012  1.0000
  C   C43       1.0  0.18501  0.00584  0.42012  1.0000
  C   C44       1.0  0.68498  0.49415  0.57988  1.0000
  C   C45       1.0  0.23111  0.21478  0.59434  1.0000
  C   C46       1.0  0.73112  0.28521  0.40566  1.0000
  C   C47       1.0  0.76887  0.78521  0.40566  1.0000
  C   C48       1.0  0.26887  0.71478  0.59434  1.0000
  C   C49       1.0  0.68364  0.04879  0.62438  1.0000
  C   C50       1.0  0.18363  0.45120  0.37562  1.0000
  C   C51       1.0  0.31638  0.95121  0.37562  1.0000
  C   C52       1.0  0.81636  0.54879  0.62438  1.0000
  C   C53       1.0  0.09153  0.26671  0.63886  1.0000
  C   C54       1.0  0.59155  0.23329  0.36114  1.0000
  C   C55       1.0  0.90844  0.73329  0.36114  1.0000
  C   C56       1.0  0.40846  0.76671  0.63886  1.0000
  C   C57       1.0  0.54479  0.11107  0.58327  1.0000
  C   C58       1.0  0.04480  0.38893  0.41673  1.0000
  C   C59       1.0  0.45522  0.88893  0.41672  1.0000
  C   C60       1.0  0.95520  0.61107  0.58327  1.0000
  C   C61       1.0  0.94457  0.93433  0.61667  1.0000
  C   C62       1.0  0.44454  0.56568  0.38333  1.0000
  C   C63       1.0  0.05547  0.06568  0.38333  1.0000
  C   C64       1.0  0.55544  0.43432  0.61667  1.0000
  O   O1        1.0  0.93017  0.97397  0.87573  1.0000
  O   O2        1.0  0.43018  0.52603  0.12427  1.0000
  O   O3        1.0  0.06984  0.02603  0.12426  1.0000
  O   O4        1.0  0.56984  0.47397  0.87574  1.0000
  O   O5        1.0  0.14385  0.18492  0.88521  1.0000
  O   O6        1.0  0.64387  0.31508  0.11478  1.0000
  O   O7        1.0  0.85615  0.81508  0.11479  1.0000
  O   O8        1.0  0.35615  0.68492  0.88521  1.0000
  O   O9        1.0  0.56529  0.92725  0.84477  1.0000
  O   O10       1.0  0.06529  0.57275  0.15522  1.0000
  O   O11       1.0  0.43471  0.07275  0.15523  1.0000
  O   O12       1.0  0.93471  0.42725  0.84478  1.0000
  O   O13       1.0  0.31704  0.38752  0.01524  1.0000
  O   O14       1.0  0.81704  0.11248  0.98476  1.0000
  O   O15       1.0  0.68297  0.61248  0.98476  1.0000
  O   O16       1.0  0.18296  0.88753  0.01524  1.0000
  O   O17       1.0  0.86184  0.30052  0.95807  1.0000
  O   O18       1.0  0.36185  0.19948  0.04193  1.0000
  O   O19       1.0  0.13815  0.69948  0.04193  1.0000
  O   O20       1.0  0.63816  0.80052  0.95807  1.0000
  O   O21       1.0  0.43755  0.27668  0.87427  1.0000
  O   O22       1.0  0.93755  0.22333  0.12573  1.0000
  O   O23       1.0  0.56246  0.72332  0.12572  1.0000
  O   O24       1.0  0.06246  0.77668  0.87428  1.0000
  O   O25       1.0  0.81575  0.46505  0.03978  1.0000
  O   O26       1.0  0.31575  0.03495  0.96022  1.0000
  O   O27       1.0  0.18425  0.53495  0.96022  1.0000
  O   O28       1.0  0.68425  0.96505  0.03978  1.0000
  O   O29       1.0  0.58584  0.10819  0.82720  1.0000
  O   O30       1.0  0.08585  0.39181  0.17281  1.0000
  O   O31       1.0  0.41416  0.89180  0.17280  1.0000
  O   O32       1.0  0.91416  0.60820  0.82719  1.0000
  O   O33       1.0  0.55673  0.11888  0.51107  1.0000
  O   O34       1.0  0.05670  0.38112  0.48893  1.0000
  O   O35       1.0  0.44329  0.88112  0.48893  1.0000
  O   O36       1.0  0.94327  0.61887  0.51106  1.0000
