data_image0
_chemical_formula_structural       Cd2H32C34N6Cl2O6
_chemical_formula_sum              "Cd2 H32 C34 N6 Cl2 O6"
_cell_length_a       9.92303
_cell_length_b       10.6666
_cell_length_c       11.2498
_cell_angle_alpha    64.5554
_cell_angle_beta     84.3524
_cell_angle_gamma    73.4863

_space_group_name_H-M_alt    "P 1"
_space_group_IT_number       1

loop_
  _space_group_symop_operation_xyz
  'x, y, z'

loop_
  _atom_site_type_symbol
  _atom_site_label
  _atom_site_symmetry_multiplicity
  _atom_site_fract_x
  _atom_site_fract_y
  _atom_site_fract_z
  _atom_site_occupancy
  Cd  Cd1       1.0  0.98087  0.32625  0.11436  1.0000
  Cd  Cd2       1.0  0.01914  0.67374  0.88565  1.0000
  H   H1        1.0  0.71425  0.63682  0.03912  1.0000
  H   H2        1.0  0.28576  0.36317  0.96088  1.0000
  H   H3        1.0  0.76411  0.10984  0.20786  1.0000
  H   H4        1.0  0.23587  0.89015  0.79214  1.0000
  H   H5        1.0  0.55886  0.01066  0.31108  1.0000
  H   H6        1.0  0.44113  0.98934  0.68893  1.0000
  H   H7        1.0  0.33159  0.17232  0.33139  1.0000
  H   H8        1.0  0.66840  0.82769  0.66861  1.0000
  H   H9        1.0  0.29888  0.43238  0.25576  1.0000
  H   H10       1.0  0.70112  0.56763  0.74423  1.0000
  H   H11       1.0  0.25371  0.63448  0.10150  1.0000
  H   H12       1.0  0.74629  0.36553  0.89848  1.0000
  H   H13       1.0  0.09212  0.86178  0.09291  1.0000
  H   H14       1.0  0.90789  0.13823  0.90709  1.0000
  H   H15       1.0  0.44199  0.00547  0.13022  1.0000
  H   H16       1.0  0.55801  0.99451  0.86980  1.0000
  H   H17       1.0  0.60712  0.77414  0.14563  1.0000
  H   H18       1.0  0.39288  0.22585  0.85437  1.0000
  H   H19       1.0  0.84916  0.39888  0.36112  1.0000
  H   H20       1.0  0.15084  0.60112  0.63888  1.0000
  H   H21       1.0  0.66842  0.29909  0.63412  1.0000
  H   H22       1.0  0.33157  0.70092  0.36587  1.0000
  H   H23       1.0  0.55614  0.32612  0.50538  1.0000
  H   H24       1.0  0.44386  0.67389  0.49461  1.0000
  H   H25       1.0  0.66948  0.44019  0.47353  1.0000
  H   H26       1.0  0.33052  0.55982  0.52647  1.0000
  H   H27       1.0  0.75760  0.04274  0.65229  1.0000
  H   H28       1.0  0.24240  0.95727  0.34770  1.0000
  H   H29       1.0  0.86755  0.01722  0.52479  1.0000
  H   H30       1.0  0.13245  0.98279  0.47521  1.0000
  H   H31       1.0  0.67991  0.07048  0.50310  1.0000
  H   H32       1.0  0.32008  0.92953  0.49690  1.0000
  C   C1        1.0  0.67127  0.54430  0.08971  1.0000
  C   C2        1.0  0.32874  0.45570  0.91028  1.0000
  C   C3        1.0  0.64420  0.32723  0.17340  1.0000
  C   C4        1.0  0.35580  0.67277  0.82660  1.0000
  C   C5        1.0  0.66319  0.17896  0.21805  1.0000
  C   C6        1.0  0.33681  0.82103  0.78195  1.0000
  C   C7        1.0  0.54868  0.12560  0.27546  1.0000
  C   C8        1.0  0.45131  0.87440  0.72454  1.0000
  C   C9        1.0  0.41998  0.21693  0.28886  1.0000
  C   C10       1.0  0.58002  0.78307  0.71114  1.0000
  C   C11       1.0  0.40035  0.36464  0.24590  1.0000
  C   C12       1.0  0.59964  0.63537  0.75410  1.0000
  C   C13       1.0  0.51443  0.41891  0.18652  1.0000
  C   C14       1.0  0.48557  0.58108  0.81348  1.0000
  C   C15       1.0  0.44096  0.68825  0.12633  1.0000
  C   C16       1.0  0.55904  0.31176  0.87367  1.0000
  C   C17       1.0  0.29603  0.71291  0.11171  1.0000
  C   C18       1.0  0.70397  0.28709  0.88828  1.0000
  C   C19       1.0  0.20470  0.84150  0.10589  1.0000
  C   C20       1.0  0.79531  0.15851  0.89410  1.0000
  C   C21       1.0  0.25681  0.94753  0.11228  1.0000
  C   C22       1.0  0.74320  0.05247  0.88773  1.0000
  C   C23       1.0  0.40231  0.92243  0.12542  1.0000
  C   C24       1.0  0.59770  0.07756  0.87459  1.0000
  C   C25       1.0  0.49440  0.79320  0.13373  1.0000
  C   C26       1.0  0.50561  0.20679  0.86627  1.0000
  C   C27       1.0  0.15862  0.08444  0.10904  1.0000
  C   C28       1.0  0.84139  0.91555  0.89097  1.0000
  C   C29       1.0  0.86162  0.28179  0.39739  1.0000
  C   C30       1.0  0.13838  0.71822  0.60261  1.0000
  C   C31       1.0  0.66005  0.32971  0.52811  1.0000
  C   C32       1.0  0.33994  0.67029  0.47188  1.0000
  C   C33       1.0  0.76883  0.08160  0.54552  1.0000
  C   C34       1.0  0.23116  0.91841  0.45448  1.0000
  N   N1        1.0  0.73862  0.40934  0.11303  1.0000
  N   N2        1.0  0.26138  0.59065  0.88697  1.0000
  N   N3        1.0  0.53551  0.55741  0.13241  1.0000
  N   N4        1.0  0.46449  0.44258  0.86759  1.0000
  N   N5        1.0  0.76997  0.23232  0.48930  1.0000
  N   N6        1.0  0.23003  0.76769  0.51070  1.0000
  Cl  Cl1       1.0  0.02213  0.53458  0.15014  1.0000
  Cl  Cl2       1.0  0.97787  0.46541  0.84987  1.0000
  O   O1        1.0  0.02662  0.09747  0.11373  1.0000
  O   O2        1.0  0.97339  0.90253  0.88628  1.0000
  O   O3        1.0  0.21091  0.18303  0.10524  1.0000
  O   O4        1.0  0.78910  0.81695  0.89478  1.0000
  O   O5        1.0  0.95354  0.20623  0.35307  1.0000
  O   O6        1.0  0.04646  0.79377  0.64694  1.0000
