data_image0
_chemical_formula_structural       Cd2H38C56N8Cl2O8
_chemical_formula_sum              "Cd2 H38 C56 N8 Cl2 O8"
_cell_length_a       8.48537
_cell_length_b       11.6588
_cell_length_c       14.5518
_cell_angle_alpha    113.05
_cell_angle_beta     93.3385
_cell_angle_gamma    106.706

_space_group_name_H-M_alt    "P 1"
_space_group_IT_number       1

loop_
  _space_group_symop_operation_xyz
  'x, y, z'

loop_
  _atom_site_type_symbol
  _atom_site_label
  _atom_site_symmetry_multiplicity
  _atom_site_fract_x
  _atom_site_fract_y
  _atom_site_fract_z
  _atom_site_occupancy
  Cd  Cd1       1.0  0.70418  0.06710  0.08408  1.0000
  Cd  Cd2       1.0  0.29582  0.93290  0.91592  1.0000
  H   H1        1.0  0.98210  0.51098  0.09733  1.0000
  H   H2        1.0  0.01791  0.48903  0.90267  1.0000
  H   H3        1.0  0.23370  0.69694  0.11705  1.0000
  H   H4        1.0  0.76630  0.30306  0.88295  1.0000
  H   H5        1.0  0.54381  0.46090  0.11856  1.0000
  H   H6        1.0  0.45620  0.53911  0.88144  1.0000
  H   H7        1.0  0.29036  0.27902  0.10501  1.0000
  H   H8        1.0  0.70965  0.72099  0.89498  1.0000
  H   H9        1.0  0.41488  0.77045  0.03852  1.0000
  H   H10       1.0  0.58512  0.22956  0.96148  1.0000
  H   H11       1.0  0.03478  0.98095  0.14700  1.0000
  H   H12       1.0  0.96523  0.01905  0.85300  1.0000
  H   H13       1.0  0.19548  0.90636  0.24880  1.0000
  H   H14       1.0  0.80452  0.09364  0.75120  1.0000
  H   H15       1.0  0.05059  0.72327  0.29245  1.0000
  H   H16       1.0  0.94941  0.27673  0.70754  1.0000
  H   H17       1.0  0.74293  0.60683  0.23669  1.0000
  H   H18       1.0  0.25707  0.39318  0.76331  1.0000
  H   H19       1.0  0.05205  0.27548  0.26299  1.0000
  H   H20       1.0  0.94794  0.72452  0.73701  1.0000
  H   H21       1.0  0.49890  0.98025  0.26717  1.0000
  H   H22       1.0  0.50110  0.01974  0.73283  1.0000
  H   H23       1.0  0.47654  0.88931  0.39866  1.0000
  H   H24       1.0  0.52345  0.11067  0.60133  1.0000
  H   H25       1.0  0.72003  0.95834  0.53298  1.0000
  H   H26       1.0  0.27996  0.04165  0.46701  1.0000
  H   H27       1.0  0.99578  0.11488  0.54079  1.0000
  H   H28       1.0  0.00421  0.88510  0.45921  1.0000
  H   H29       1.0  0.17675  0.33093  0.58262  1.0000
  H   H30       1.0  0.82325  0.66906  0.41739  1.0000
  H   H31       1.0  0.48389  0.40929  0.65129  1.0000
  H   H32       1.0  0.51611  0.59071  0.34871  1.0000
  H   H33       1.0  0.57969  0.28706  0.34604  1.0000
  H   H34       1.0  0.42030  0.71294  0.65396  1.0000
  H   H35       1.0  0.27482  0.20069  0.27691  1.0000
  H   H36       1.0  0.72518  0.79931  0.72310  1.0000
  H   H37       1.0  0.90286  0.47227  0.65567  1.0000
  H   H38       1.0  0.09713  0.52772  0.34434  1.0000
  C   C1        1.0  0.96607  0.27067  0.08503  1.0000
  C   C2        1.0  0.03393  0.72933  0.91497  1.0000
  C   C3        1.0  0.11991  0.38280  0.09855  1.0000
  C   C4        1.0  0.88010  0.61720  0.90145  1.0000
  C   C5        1.0  0.10574  0.50128  0.10266  1.0000
  C   C6        1.0  0.89427  0.49873  0.89734  1.0000
  C   C7        1.0  0.24710  0.60531  0.11353  1.0000
  C   C8        1.0  0.75290  0.39469  0.88647  1.0000
  C   C9        1.0  0.40538  0.59102  0.11865  1.0000
  C   C10       1.0  0.59462  0.40899  0.88135  1.0000
  C   C11       1.0  0.42186  0.47400  0.11690  1.0000
  C   C12       1.0  0.57814  0.52601  0.88310  1.0000
  C   C13       1.0  0.27938  0.37117  0.10787  1.0000
  C   C14       1.0  0.72062  0.62883  0.89212  1.0000
  C   C15       1.0  0.53345  0.77913  0.07832  1.0000
  C   C16       1.0  0.46655  0.22088  0.92168  1.0000
  C   C17       1.0  0.79835  0.83960  0.13991  1.0000
  C   C18       1.0  0.20165  0.16040  0.86008  1.0000
  C   C19       1.0  0.97202  0.90273  0.16903  1.0000
  C   C20       1.0  0.02799  0.09728  0.83097  1.0000
  C   C21       1.0  0.05979  0.85914  0.22456  1.0000
  C   C22       1.0  0.94022  0.14086  0.77544  1.0000
  C   C23       1.0  0.97679  0.75465  0.24918  1.0000
  C   C24       1.0  0.02322  0.24535  0.75082  1.0000
  C   C25       1.0  0.80401  0.68853  0.21811  1.0000
  C   C26       1.0  0.19599  0.31147  0.78189  1.0000
  C   C27       1.0  0.71547  0.73210  0.16231  1.0000
  C   C28       1.0  0.28453  0.26790  0.83769  1.0000
  C   C29       1.0  0.97171  0.22110  0.29814  1.0000
  C   C30       1.0  0.02829  0.77890  0.70186  1.0000
  C   C31       1.0  0.76070  0.09576  0.32989  1.0000
  C   C32       1.0  0.23929  0.90423  0.67011  1.0000
  C   C33       1.0  0.60550  0.00834  0.32644  1.0000
  C   C34       1.0  0.39449  0.99164  0.67356  1.0000
  C   C35       1.0  0.59483  0.95903  0.39974  1.0000
  C   C36       1.0  0.40516  0.04095  0.60026  1.0000
  C   C37       1.0  0.73386  0.99847  0.47651  1.0000
  C   C38       1.0  0.26613  0.00152  0.52348  1.0000
  C   C39       1.0  0.88905  0.08674  0.48182  1.0000
  C   C40       1.0  0.11094  0.91325  0.51818  1.0000
  C   C41       1.0  0.90040  0.13317  0.40671  1.0000
  C   C42       1.0  0.09959  0.86682  0.59329  1.0000
  C   C43       1.0  0.20737  0.26199  0.42599  1.0000
  C   C44       1.0  0.79263  0.73802  0.57402  1.0000
  C   C45       1.0  0.26536  0.32017  0.53139  1.0000
  C   C46       1.0  0.73464  0.67984  0.46862  1.0000
  C   C47       1.0  0.43677  0.36481  0.56953  1.0000
  C   C48       1.0  0.56323  0.63521  0.43048  1.0000
  C   C49       1.0  0.55045  0.35359  0.50294  1.0000
  C   C50       1.0  0.44955  0.64642  0.49707  1.0000
  C   C51       1.0  0.49107  0.29692  0.39753  1.0000
  C   C52       1.0  0.50892  0.70308  0.60248  1.0000
  C   C53       1.0  0.32034  0.25009  0.35902  1.0000
  C   C54       1.0  0.67966  0.74991  0.64099  1.0000
  C   C55       1.0  0.73380  0.39865  0.53858  1.0000
  C   C56       1.0  0.26621  0.60135  0.46142  1.0000
  N   N1        1.0  0.81014  0.15381  0.26410  1.0000
  N   N2        1.0  0.18985  0.84618  0.73591  1.0000
  N   N3        1.0  0.03428  0.21296  0.38353  1.0000
  N   N4        1.0  0.96572  0.78704  0.61648  1.0000
  N   N5        1.0  0.54549  0.69503  0.12134  1.0000
  N   N6        1.0  0.45452  0.30498  0.87866  1.0000
  N   N7        1.0  0.68049  0.86595  0.08836  1.0000
  N   N8        1.0  0.31951  0.13405  0.91164  1.0000
  Cl  Cl1       1.0  0.40438  0.05922  0.11551  1.0000
  Cl  Cl2       1.0  0.59563  0.94078  0.88449  1.0000
  O   O1        1.0  0.98506  0.16383  0.08077  1.0000
  O   O2        1.0  0.01494  0.83617  0.91923  1.0000
  O   O3        1.0  0.82318  0.28632  0.08129  1.0000
  O   O4        1.0  0.17683  0.71368  0.91872  1.0000
  O   O5        1.0  0.78011  0.44410  0.64163  1.0000
  O   O6        1.0  0.21989  0.55590  0.35837  1.0000
  O   O7        1.0  0.83682  0.39606  0.48316  1.0000
  O   O8        1.0  0.16318  0.60393  0.51684  1.0000
