data_image0
_chemical_formula_structural       Cu2H24C32N20
_chemical_formula_sum              "Cu2 H24 C32 N20"
_cell_length_a       7.08571
_cell_length_b       9.4886
_cell_length_c       13.8483
_cell_angle_alpha    90
_cell_angle_beta     90.0005
_cell_angle_gamma    90.1266

_space_group_name_H-M_alt    "P 1"
_space_group_IT_number       1

loop_
  _space_group_symop_operation_xyz
  'x, y, z'

loop_
  _atom_site_type_symbol
  _atom_site_label
  _atom_site_symmetry_multiplicity
  _atom_site_fract_x
  _atom_site_fract_y
  _atom_site_fract_z
  _atom_site_occupancy
  Cu  Cu1       1.0  0.99999  0.00000  0.50000  1.0000
  Cu  Cu2       1.0  0.50000  0.00000  1.00000  1.0000
  H   H1        1.0  0.16615  0.46248  0.66440  1.0000
  H   H2        1.0  0.33384  0.53751  0.16440  1.0000
  H   H3        1.0  0.83382  0.53752  0.33560  1.0000
  H   H4        1.0  0.66618  0.46248  0.83560  1.0000
  H   H5        1.0  0.81827  0.50042  0.61369  1.0000
  H   H6        1.0  0.68173  0.49957  0.11369  1.0000
  H   H7        1.0  0.18170  0.49959  0.38631  1.0000
  H   H8        1.0  0.31830  0.50042  0.88631  1.0000
  H   H9        1.0  0.71745  0.24661  0.52564  1.0000
  H   H10       1.0  0.78255  0.75338  0.02565  1.0000
  H   H11       1.0  0.28253  0.75339  0.47435  1.0000
  H   H12       1.0  0.21747  0.24662  0.97435  1.0000
  H   H13       1.0  0.42841  0.28685  0.64659  1.0000
  H   H14       1.0  0.07158  0.71314  0.14658  1.0000
  H   H15       1.0  0.57158  0.71314  0.35342  1.0000
  H   H16       1.0  0.92842  0.28685  0.85341  1.0000
  H   H17       1.0  0.37611  0.12205  0.58971  1.0000
  H   H18       1.0  0.12389  0.87795  0.08970  1.0000
  H   H19       1.0  0.62388  0.87795  0.41030  1.0000
  H   H20       1.0  0.87612  0.12205  0.91029  1.0000
  H   H21       1.0  0.32064  0.14933  0.71345  1.0000
  H   H22       1.0  0.17935  0.85066  0.21344  1.0000
  H   H23       1.0  0.67933  0.85066  0.28655  1.0000
  H   H24       1.0  0.82065  0.14933  0.78654  1.0000
  C   C1        1.0  0.13831  0.25484  0.61377  1.0000
  C   C2        1.0  0.36168  0.74516  0.11376  1.0000
  C   C3        1.0  0.86167  0.74516  0.38623  1.0000
  C   C4        1.0  0.63832  0.25484  0.88622  1.0000
  C   C5        1.0  0.89611  0.40360  0.60317  1.0000
  C   C6        1.0  0.60388  0.59640  0.10317  1.0000
  C   C7        1.0  0.10386  0.59638  0.39684  1.0000
  C   C8        1.0  0.39614  0.40363  0.89684  1.0000
  C   C9        1.0  0.84752  0.27836  0.56042  1.0000
  C   C10       1.0  0.65247  0.72164  0.06042  1.0000
  C   C11       1.0  0.15247  0.72164  0.43959  1.0000
  C   C12       1.0  0.34754  0.27835  0.93959  1.0000
  C   C13       1.0  0.32641  0.20001  0.64199  1.0000
  C   C14       1.0  0.17358  0.79998  0.14198  1.0000
  C   C15       1.0  0.67358  0.79999  0.35802  1.0000
  C   C16       1.0  0.82641  0.20001  0.85801  1.0000
  C   C17       1.0  0.07783  0.86382  0.69499  1.0000
  C   C18       1.0  0.42219  0.13619  0.19498  1.0000
  C   C19       1.0  0.92218  0.13619  0.30502  1.0000
  C   C20       1.0  0.57783  0.86382  0.80501  1.0000
  C   C21       1.0  0.05298  0.81402  0.78855  1.0000
  C   C22       1.0  0.44704  0.18597  0.28855  1.0000
  C   C23       1.0  0.94705  0.18597  0.21145  1.0000
  C   C24       1.0  0.55296  0.81404  0.71145  1.0000
  C   C25       1.0  0.12072  0.89417  0.86648  1.0000
  C   C26       1.0  0.37927  0.10582  0.36647  1.0000
  C   C27       1.0  0.87929  0.10582  0.13353  1.0000
  C   C28       1.0  0.62073  0.89418  0.63352  1.0000
  C   C29       1.0  0.96135  0.68488  0.80417  1.0000
  C   C30       1.0  0.53865  0.31511  0.30417  1.0000
  C   C31       1.0  0.03867  0.31510  0.19583  1.0000
  C   C32       1.0  0.46135  0.68490  0.69582  1.0000
  N   N1        1.0  0.99922  0.18705  0.56697  1.0000
  N   N2        1.0  0.50077  0.81296  0.06697  1.0000
  N   N3        1.0  0.00076  0.81295  0.43303  1.0000
  N   N4        1.0  0.49924  0.18705  0.93303  1.0000
  N   N5        1.0  0.07823  0.38652  0.63590  1.0000
  N   N6        1.0  0.42176  0.61348  0.13590  1.0000
  N   N7        1.0  0.92174  0.61348  0.36411  1.0000
  N   N8        1.0  0.57827  0.38653  0.86410  1.0000
  N   N9        1.0  0.10585  0.90496  0.61632  1.0000
  N   N10       1.0  0.39415  0.09505  0.11632  1.0000
  N   N11       1.0  0.89415  0.09504  0.38368  1.0000
  N   N12       1.0  0.60585  0.90496  0.88368  1.0000
  N   N13       1.0  0.68055  0.96178  0.56956  1.0000
  N   N14       1.0  0.81947  0.03824  0.06956  1.0000
  N   N15       1.0  0.31944  0.03823  0.43044  1.0000
  N   N16       1.0  0.18054  0.96177  0.93044  1.0000
  N   N17       1.0  0.88331  0.57720  0.81628  1.0000
  N   N18       1.0  0.61668  0.42280  0.31628  1.0000
  N   N19       1.0  0.11672  0.42279  0.18372  1.0000
  N   N20       1.0  0.38331  0.57720  0.68372  1.0000
