data_image0
_chemical_formula_structural       Cd3H50C46N4O18
_chemical_formula_sum              "Cd3 H50 C46 N4 O18"
_cell_length_a       9.68349
_cell_length_b       12.0172
_cell_length_c       12.3605
_cell_angle_alpha    110.29
_cell_angle_beta     105.14
_cell_angle_gamma    100.493

_space_group_name_H-M_alt    "P 1"
_space_group_IT_number       1

loop_
  _space_group_symop_operation_xyz
  'x, y, z'

loop_
  _atom_site_type_symbol
  _atom_site_label
  _atom_site_symmetry_multiplicity
  _atom_site_fract_x
  _atom_site_fract_y
  _atom_site_fract_z
  _atom_site_occupancy
  Cd  Cd1       1.0  0.00000  0.50000  0.00000  1.0000
  Cd  Cd2       1.0  0.90622  0.31688  0.67192  1.0000
  Cd  Cd3       1.0  0.09378  0.68312  0.32808  1.0000
  H   H1        1.0  0.40955  0.37346  0.74984  1.0000
  H   H2        1.0  0.59046  0.62654  0.25017  1.0000
  H   H3        1.0  0.40821  0.73337  0.98486  1.0000
  H   H4        1.0  0.59179  0.26663  0.01513  1.0000
  H   H5        1.0  0.81380  0.68361  0.91952  1.0000
  H   H6        1.0  0.18621  0.31640  0.08048  1.0000
  H   H7        1.0  0.83624  0.07548  0.15370  1.0000
  H   H8        1.0  0.16376  0.92452  0.84630  1.0000
  H   H9        1.0  0.92077  0.22882  0.07038  1.0000
  H   H10       1.0  0.07923  0.77118  0.92962  1.0000
  H   H11       1.0  0.71731  0.94319  0.70308  1.0000
  H   H12       1.0  0.28269  0.05681  0.29692  1.0000
  H   H13       1.0  0.63301  0.78897  0.78355  1.0000
  H   H14       1.0  0.36699  0.21103  0.21645  1.0000
  H   H15       1.0  0.95259  0.71886  0.72310  1.0000
  H   H16       1.0  0.04740  0.28113  0.27690  1.0000
  H   H17       1.0  0.06053  0.68193  0.62633  1.0000
  H   H18       1.0  0.93947  0.31806  0.37368  1.0000
  H   H19       1.0  0.05991  0.61418  0.73417  1.0000
  H   H20       1.0  0.94009  0.38582  0.26583  1.0000
  H   H21       1.0  0.51680  0.47213  0.39445  1.0000
  H   H22       1.0  0.48320  0.52786  0.60555  1.0000
  H   H23       1.0  0.59633  0.37669  0.46077  1.0000
  H   H24       1.0  0.40366  0.62331  0.53922  1.0000
  H   H25       1.0  0.64212  0.39782  0.33696  1.0000
  H   H26       1.0  0.35788  0.60218  0.66304  1.0000
  H   H27       1.0  0.62312  0.66889  0.46348  1.0000
  H   H28       1.0  0.37688  0.33111  0.53651  1.0000
  H   H29       1.0  0.81816  0.71633  0.48643  1.0000
  H   H30       1.0  0.18183  0.28366  0.51357  1.0000
  H   H31       1.0  0.75816  0.74018  0.61563  1.0000
  H   H32       1.0  0.24183  0.25981  0.38437  1.0000
  H   H33       1.0  0.51734  0.01632  0.36425  1.0000
  H   H34       1.0  0.48265  0.98368  0.63575  1.0000
  H   H35       1.0  0.61004  0.17999  0.43137  1.0000
  H   H36       1.0  0.38996  0.82001  0.56864  1.0000
  H   H37       1.0  0.61987  0.09863  0.52604  1.0000
  H   H38       1.0  0.38013  0.90138  0.47396  1.0000
  H   H39       1.0  0.88093  0.88400  0.23059  1.0000
  H   H40       1.0  0.11907  0.11600  0.76941  1.0000
  H   H41       1.0  0.95919  0.91371  0.38934  1.0000
  H   H42       1.0  0.04080  0.08629  0.61065  1.0000
  H   H43       1.0  0.98065  0.03940  0.34403  1.0000
  H   H44       1.0  0.01935  0.96059  0.65597  1.0000
  H   H45       1.0  0.65988  0.78267  0.21295  1.0000
  H   H46       1.0  0.34011  0.21733  0.78705  1.0000
  H   H47       1.0  0.54290  0.87908  0.20417  1.0000
  H   H48       1.0  0.45710  0.12092  0.79583  1.0000
  H   H49       1.0  0.57803  0.83100  0.32778  1.0000
  H   H50       1.0  0.42197  0.16900  0.67223  1.0000
  C   C1        1.0  0.69664  0.43619  0.76141  1.0000
  C   C2        1.0  0.30336  0.56381  0.23859  1.0000
  C   C3        1.0  0.61999  0.51866  0.82838  1.0000
  C   C4        1.0  0.38002  0.48134  0.17162  1.0000
  C   C5        1.0  0.46933  0.47037  0.81076  1.0000
  C   C6        1.0  0.53068  0.52963  0.18924  1.0000
  C   C7        1.0  0.39414  0.54591  0.86943  1.0000
  C   C8        1.0  0.60587  0.45409  0.13057  1.0000
  C   C9        1.0  0.23253  0.49291  0.85108  1.0000
  C   C10       1.0  0.76747  0.50710  0.14892  1.0000
  C   C11       1.0  0.46761  0.67307  0.94143  1.0000
  C   C12       1.0  0.53240  0.32693  0.05857  1.0000
  C   C13       1.0  0.61599  0.72101  0.95442  1.0000
  C   C14       1.0  0.38401  0.27899  0.04557  1.0000
  C   C15       1.0  0.69538  0.64501  0.90245  1.0000
  C   C16       1.0  0.30462  0.35499  0.09756  1.0000
  C   C17       1.0  0.73164  0.92395  0.97384  1.0000
  C   C18       1.0  0.26836  0.07605  0.02616  1.0000
  C   C19       1.0  0.81253  0.04770  0.05532  1.0000
  C   C20       1.0  0.18747  0.95231  0.94468  1.0000
  C   C21       1.0  0.85925  0.13192  0.00912  1.0000
  C   C22       1.0  0.14075  0.86808  0.99088  1.0000
  C   C23       1.0  0.82557  0.09498  0.88197  1.0000
  C   C24       1.0  0.17443  0.90502  0.11803  1.0000
  C   C25       1.0  0.74388  0.97123  0.80181  1.0000
  C   C26       1.0  0.25613  0.02877  0.19819  1.0000
  C   C27       1.0  0.69682  0.88504  0.84650  1.0000
  C   C28       1.0  0.30318  0.11496  0.15350  1.0000
  C   C29       1.0  0.87571  0.18796  0.83472  1.0000
  C   C30       1.0  0.12429  0.81204  0.16529  1.0000
  C   C31       1.0  0.86373  0.53395  0.57427  1.0000
  C   C32       1.0  0.13627  0.46605  0.42573  1.0000
  C   C33       1.0  0.99145  0.64458  0.67108  1.0000
  C   C34       1.0  0.00854  0.35542  0.32892  1.0000
  C   C35       1.0  0.61666  0.44322  0.42017  1.0000
  C   C36       1.0  0.38334  0.55678  0.57982  1.0000
  C   C37       1.0  0.73554  0.67669  0.51991  1.0000
  C   C38       1.0  0.26445  0.32331  0.48009  1.0000
  C   C39       1.0  0.76282  0.07456  0.42123  1.0000
  C   C40       1.0  0.23718  0.92544  0.57877  1.0000
  C   C41       1.0  0.61698  0.09089  0.43422  1.0000
  C   C42       1.0  0.38302  0.90911  0.56579  1.0000
  C   C43       1.0  0.90454  0.95001  0.32504  1.0000
  C   C44       1.0  0.09545  0.04999  0.67496  1.0000
  C   C45       1.0  0.62774  0.85975  0.26772  1.0000
  C   C46       1.0  0.37226  0.14025  0.73228  1.0000
  N   N1        1.0  0.74075  0.55298  0.51123  1.0000
  N   N2        1.0  0.25925  0.44701  0.48876  1.0000
  N   N3        1.0  0.76301  0.96700  0.33841  1.0000
  N   N4        1.0  0.23699  0.03300  0.66159  1.0000
  O   O1        1.0  0.84247  0.46986  0.80783  1.0000
  O   O2        1.0  0.15754  0.53014  0.19217  1.0000
  O   O3        1.0  0.62172  0.34224  0.66288  1.0000
  O   O4        1.0  0.37828  0.65776  0.33713  1.0000
  O   O5        1.0  0.15820  0.39254  0.75491  1.0000
  O   O6        1.0  0.84180  0.60746  0.24509  1.0000
  O   O7        1.0  0.18499  0.55489  0.93186  1.0000
  O   O8        1.0  0.81501  0.44511  0.06813  1.0000
  O   O9        1.0  0.68680  0.84766  0.02744  1.0000
  O   O10       1.0  0.31320  0.15234  0.97256  1.0000
  O   O11       1.0  0.97548  0.29000  0.91111  1.0000
  O   O12       1.0  0.02453  0.71000  0.08889  1.0000
  O   O13       1.0  0.81694  0.15827  0.71909  1.0000
  O   O14       1.0  0.18306  0.84174  0.28092  1.0000
  O   O15       1.0  0.86938  0.42399  0.54908  1.0000
  O   O16       1.0  0.13062  0.57601  0.45092  1.0000
  O   O17       1.0  0.88480  0.16183  0.48754  1.0000
  O   O18       1.0  0.11520  0.83817  0.51246  1.0000
