data_image0
_chemical_formula_structural       Zn2H26C36N4O10F2
_chemical_formula_sum              "Zn2 H26 C36 N4 O10 F2"
_cell_length_a       8.98249
_cell_length_b       10.9884
_cell_length_c       10.9829
_cell_angle_alpha    103.593
_cell_angle_beta     111.034
_cell_angle_gamma    108.721

_space_group_name_H-M_alt    "P 1"
_space_group_IT_number       1

loop_
  _space_group_symop_operation_xyz
  'x, y, z'

loop_
  _atom_site_type_symbol
  _atom_site_label
  _atom_site_symmetry_multiplicity
  _atom_site_fract_x
  _atom_site_fract_y
  _atom_site_fract_z
  _atom_site_occupancy
  Zn  Zn1       1.0  0.17576  0.36083  0.98548  1.0000
  Zn  Zn2       1.0  0.82424  0.63918  0.01452  1.0000
  H   H1        1.0  0.63766  0.42818  0.33128  1.0000
  H   H2        1.0  0.36236  0.57183  0.66874  1.0000
  H   H3        1.0  0.65565  0.27320  0.46164  1.0000
  H   H4        1.0  0.34436  0.72680  0.53836  1.0000
  H   H5        1.0  0.86226  0.16149  0.46955  1.0000
  H   H6        1.0  0.13772  0.83850  0.53043  1.0000
  H   H7        1.0  0.82197  0.34517  0.86134  1.0000
  H   H8        1.0  0.17803  0.65484  0.13867  1.0000
  H   H9        1.0  0.52570  0.20833  0.65331  1.0000
  H   H10       1.0  0.47430  0.79166  0.34671  1.0000
  H   H11       1.0  0.70592  0.90208  0.52262  1.0000
  H   H12       1.0  0.29407  0.09792  0.47739  1.0000
  H   H13       1.0  0.99704  0.05629  0.73465  1.0000
  H   H14       1.0  0.00296  0.94372  0.26535  1.0000
  H   H15       1.0  0.13916  0.11502  0.05906  1.0000
  H   H16       1.0  0.86084  0.88497  0.94093  1.0000
  H   H17       1.0  0.26679  0.94578  0.06494  1.0000
  H   H18       1.0  0.73321  0.05422  0.93505  1.0000
  H   H19       1.0  0.61562  0.17843  0.92571  1.0000
  H   H20       1.0  0.38439  0.82158  0.07430  1.0000
  H   H21       1.0  0.46032  0.32591  0.91122  1.0000
  H   H22       1.0  0.53969  0.67410  0.08879  1.0000
  H   H23       1.0  0.52383  0.53322  0.19419  1.0000
  H   H24       1.0  0.47617  0.46678  0.80581  1.0000
  H   H25       1.0  0.36315  0.52300  0.24051  1.0000
  H   H26       1.0  0.63685  0.47700  0.75949  1.0000
  C   C1        1.0  0.80943  0.49802  0.18458  1.0000
  C   C2        1.0  0.19057  0.50198  0.81542  1.0000
  C   C3        1.0  0.83187  0.40866  0.26774  1.0000
  C   C4        1.0  0.16813  0.59134  0.73226  1.0000
  C   C5        1.0  0.72624  0.37934  0.33486  1.0000
  C   C6        1.0  0.27377  0.62066  0.66515  1.0000
  C   C7        1.0  0.73500  0.29095  0.40682  1.0000
  C   C8        1.0  0.26500  0.70905  0.59318  1.0000
  C   C9        1.0  0.85028  0.22977  0.41290  1.0000
  C   C10       1.0  0.14971  0.77022  0.58708  1.0000
  C   C11       1.0  0.95624  0.26213  0.34825  1.0000
  C   C12       1.0  0.04374  0.73785  0.65173  1.0000
  C   C13       1.0  0.95336  0.35115  0.27677  1.0000
  C   C14       1.0  0.04663  0.64884  0.72322  1.0000
  C   C15       1.0  0.08954  0.38948  0.22463  1.0000
  C   C16       1.0  0.91045  0.61051  0.77536  1.0000
  C   C17       1.0  0.79088  0.24691  0.78267  1.0000
  C   C18       1.0  0.20913  0.75310  0.21733  1.0000
  C   C19       1.0  0.62363  0.16797  0.66490  1.0000
  C   C20       1.0  0.37638  0.83204  0.33512  1.0000
  C   C21       1.0  0.58712  0.04199  0.56473  1.0000
  C   C22       1.0  0.41288  0.95800  0.43529  1.0000
  C   C23       1.0  0.72392  0.99999  0.59261  1.0000
  C   C24       1.0  0.27607  0.00000  0.40741  1.0000
  C   C25       1.0  0.88827  0.08576  0.71238  1.0000
  C   C26       1.0  0.11173  0.91425  0.28763  1.0000
  C   C27       1.0  0.24262  0.12177  0.02731  1.0000
  C   C28       1.0  0.75738  0.87823  0.97269  1.0000
  C   C29       1.0  0.31809  0.02980  0.03302  1.0000
  C   C30       1.0  0.68191  0.97020  0.96698  1.0000
  C   C31       1.0  0.45598  0.04642  0.99629  1.0000
  C   C32       1.0  0.54402  0.95359  0.00371  1.0000
  C   C33       1.0  0.50759  0.15601  0.95288  1.0000
  C   C34       1.0  0.49242  0.84401  0.04713  1.0000
  C   C35       1.0  0.42269  0.24153  0.94628  1.0000
  C   C36       1.0  0.57732  0.75848  0.05372  1.0000
  N   N1        1.0  0.92229  0.20765  0.80530  1.0000
  N   N2        1.0  0.07772  0.79235  0.19470  1.0000
  N   N3        1.0  0.29291  0.22571  0.98384  1.0000
  N   N4        1.0  0.70709  0.77430  0.01616  1.0000
  O   O1        1.0  0.04755  0.30710  0.10107  1.0000
  O   O2        1.0  0.95244  0.69289  0.89892  1.0000
  O   O3        1.0  0.23565  0.49589  0.31048  1.0000
  O   O4        1.0  0.76434  0.50411  0.68950  1.0000
  O   O5        1.0  0.87601  0.49838  0.09887  1.0000
  O   O6        1.0  0.12400  0.50163  0.90114  1.0000
  O   O7        1.0  0.72421  0.56818  0.19820  1.0000
  O   O8        1.0  0.27581  0.43183  0.80182  1.0000
  O   O9        1.0  0.40448  0.53144  0.16667  1.0000
  O   O10       1.0  0.59552  0.46856  0.83333  1.0000
  F   F1        1.0  0.07324  0.20455  0.35724  1.0000
  F   F2        1.0  0.92674  0.79542  0.64273  1.0000
