data_image0
_chemical_formula_structural       Mn2H44C58N12O8
_chemical_formula_sum              "Mn2 H44 C58 N12 O8"
_cell_length_a       8.53456
_cell_length_b       12.4976
_cell_length_c       13.2223
_cell_angle_alpha    69.9957
_cell_angle_beta     69.8266
_cell_angle_gamma    82.8106

_space_group_name_H-M_alt    "P 1"
_space_group_IT_number       1

loop_
  _space_group_symop_operation_xyz
  'x, y, z'

loop_
  _atom_site_type_symbol
  _atom_site_label
  _atom_site_symmetry_multiplicity
  _atom_site_fract_x
  _atom_site_fract_y
  _atom_site_fract_z
  _atom_site_occupancy
  Mn  Mn1       1.0  0.14193  0.88805  0.09575  1.0000
  Mn  Mn2       1.0  0.85808  0.11194  0.90425  1.0000
  H   H1        1.0  0.29452  0.50750  0.20393  1.0000
  H   H2        1.0  0.70550  0.49236  0.79623  1.0000
  H   H3        1.0  0.42273  0.33898  0.31830  1.0000
  H   H4        1.0  0.57742  0.66098  0.68185  1.0000
  H   H5        1.0  0.61102  0.36952  0.41157  1.0000
  H   H6        1.0  0.38916  0.63060  0.58850  1.0000
  H   H7        1.0  0.67392  0.56537  0.39321  1.0000
  H   H8        1.0  0.32621  0.43480  0.60672  1.0000
  H   H9        1.0  0.54155  0.73308  0.28192  1.0000
  H   H10       1.0  0.45846  0.26700  0.71800  1.0000
  H   H11       1.0  0.87896  0.72962  0.26446  1.0000
  H   H12       1.0  0.12112  0.27035  0.73553  1.0000
  H   H13       1.0  0.65341  0.71824  0.44800  1.0000
  H   H14       1.0  0.34662  0.28171  0.55198  1.0000
  H   H15       1.0  0.85283  0.02503  0.43773  1.0000
  H   H16       1.0  0.14708  0.97494  0.56228  1.0000
  H   H17       1.0  0.06934  0.02314  0.25807  1.0000
  H   H18       1.0  0.93062  0.97687  0.74195  1.0000
  H   H19       1.0  0.34456  0.78524  0.73078  1.0000
  H   H20       1.0  0.65543  0.21467  0.26925  1.0000
  H   H21       1.0  0.17219  0.76952  0.93019  1.0000
  H   H22       1.0  0.82781  0.23040  0.06985  1.0000
  H   H23       1.0  0.42412  0.03711  0.92505  1.0000
  H   H24       1.0  0.57582  0.96290  0.07490  1.0000
  H   H25       1.0  0.60609  0.06189  0.72984  1.0000
  H   H26       1.0  0.39380  0.93813  0.27009  1.0000
  H   H27       1.0  0.66403  0.83236  0.87922  1.0000
  H   H28       1.0  0.33597  0.16770  0.12078  1.0000
  H   H29       1.0  0.57627  0.65000  0.87955  1.0000
  H   H30       1.0  0.42367  0.35007  0.12044  1.0000
  H   H31       1.0  0.66952  0.46504  0.99392  1.0000
  H   H32       1.0  0.33039  0.53502  0.00607  1.0000
  H   H33       1.0  0.84766  0.46432  0.10828  1.0000
  H   H34       1.0  0.15228  0.53570  0.89170  1.0000
  H   H35       1.0  0.93689  0.64777  0.10634  1.0000
  H   H36       1.0  0.06309  0.35223  0.89365  1.0000
  H   H37       1.0  0.98746  0.33255  0.20425  1.0000
  H   H38       1.0  0.01249  0.66747  0.79573  1.0000
  H   H39       1.0  0.03262  0.50400  0.25012  1.0000
  H   H40       1.0  0.96739  0.49601  0.74985  1.0000
  H   H41       1.0  0.86382  0.30273  0.60424  1.0000
  H   H42       1.0  0.13624  0.69728  0.39574  1.0000
  H   H43       1.0  0.80524  0.14440  0.54500  1.0000
  H   H44       1.0  0.19479  0.85561  0.45499  1.0000
  C   C1        1.0  0.32312  0.73022  0.17924  1.0000
  C   C2        1.0  0.67684  0.26972  0.82078  1.0000
  C   C3        1.0  0.40860  0.62984  0.23747  1.0000
  C   C4        1.0  0.59139  0.37013  0.76256  1.0000
  C   C5        1.0  0.37732  0.51932  0.24585  1.0000
  C   C6        1.0  0.62273  0.48061  0.75425  1.0000
  C   C7        1.0  0.44999  0.42584  0.30821  1.0000
  C   C8        1.0  0.55015  0.57414  0.69190  1.0000
  C   C9        1.0  0.55584  0.44281  0.36166  1.0000
  C   C10       1.0  0.44433  0.55727  0.63838  1.0000
  C   C11       1.0  0.59060  0.55310  0.35156  1.0000
  C   C12       1.0  0.40952  0.44701  0.64842  1.0000
  C   C13       1.0  0.51745  0.64649  0.28975  1.0000
  C   C14       1.0  0.48259  0.35357  0.71022  1.0000
  C   C15       1.0  0.86751  0.79289  0.30614  1.0000
  C   C16       1.0  0.13253  0.20708  0.69384  1.0000
  C   C17       1.0  0.74279  0.78748  0.40720  1.0000
  C   C18       1.0  0.25721  0.21249  0.59277  1.0000
  C   C19       1.0  0.73169  0.87076  0.45976  1.0000
  C   C20       1.0  0.26827  0.12922  0.54022  1.0000
  C   C21       1.0  0.85423  0.95722  0.40357  1.0000
  C   C22       1.0  0.14571  0.04276  0.59643  1.0000
  C   C23       1.0  0.97501  0.95713  0.30281  1.0000
  C   C24       1.0  0.02496  0.04287  0.69720  1.0000
  C   C25       1.0  0.49650  0.92359  0.71247  1.0000
  C   C26       1.0  0.50343  0.07635  0.28752  1.0000
  C   C27       1.0  0.36700  0.84119  0.77183  1.0000
  C   C28       1.0  0.63297  0.15875  0.22820  1.0000
  C   C29       1.0  0.26951  0.83333  0.88161  1.0000
  C   C30       1.0  0.73047  0.16660  0.11842  1.0000
  C   C31       1.0  0.40843  0.98361  0.87971  1.0000
  C   C32       1.0  0.59151  0.01638  0.12027  1.0000
  C   C33       1.0  0.51043  0.99684  0.77000  1.0000
  C   C34       1.0  0.48949  0.00314  0.22996  1.0000
  C   C35       1.0  0.85889  0.85949  0.99435  1.0000
  C   C36       1.0  0.14113  0.14052  0.00566  1.0000
  C   C37       1.0  0.80625  0.75113  0.99248  1.0000
  C   C38       1.0  0.19375  0.24889  0.00752  1.0000
  C   C39       1.0  0.70433  0.75153  0.92876  1.0000
  C   C40       1.0  0.29567  0.24852  0.07123  1.0000
  C   C41       1.0  0.65519  0.64893  0.92949  1.0000
  C   C42       1.0  0.34477  0.35113  0.07050  1.0000
  C   C43       1.0  0.70735  0.54543  0.99360  1.0000
  C   C44       1.0  0.29258  0.45462  0.00639  1.0000
  C   C45       1.0  0.80840  0.54481  0.05744  1.0000
  C   C46       1.0  0.19155  0.45522  0.94255  1.0000
  C   C47       1.0  0.85794  0.64704  0.05699  1.0000
  C   C48       1.0  0.14203  0.35297  0.94300  1.0000
  C   C49       1.0  0.95850  0.32942  0.29237  1.0000
  C   C50       1.0  0.04148  0.67059  0.70761  1.0000
  C   C51       1.0  0.98680  0.42397  0.31675  1.0000
  C   C52       1.0  0.01321  0.57604  0.68323  1.0000
  C   C53       1.0  0.95708  0.41391  0.43056  1.0000
  C   C54       1.0  0.04294  0.58610  0.56942  1.0000
  C   C55       1.0  0.89129  0.31174  0.51519  1.0000
  C   C56       1.0  0.10875  0.68827  0.48478  1.0000
  C   C57       1.0  0.86056  0.22438  0.48167  1.0000
  C   C58       1.0  0.13946  0.77562  0.51832  1.0000
  N   N1        1.0  0.98361  0.87701  0.25236  1.0000
  N   N2        1.0  0.01641  0.12298  0.74764  1.0000
  N   N3        1.0  0.60711  0.85957  0.56206  1.0000
  N   N4        1.0  0.39283  0.14039  0.43793  1.0000
  N   N5        1.0  0.61296  0.93671  0.60736  1.0000
  N   N6        1.0  0.38696  0.06324  0.39262  1.0000
  N   N7        1.0  0.28803  0.90269  0.93706  1.0000
  N   N8        1.0  0.71193  0.09728  0.06295  1.0000
  N   N9        1.0  0.89538  0.23125  0.37230  1.0000
  N   N10       1.0  0.10460  0.76877  0.62768  1.0000
  N   N11       1.0  0.99135  0.51084  0.45185  1.0000
  N   N12       1.0  0.00870  0.48917  0.54812  1.0000
  O   O1        1.0  0.20001  0.71728  0.14755  1.0000
  O   O2        1.0  0.79995  0.28265  0.85248  1.0000
  O   O3        1.0  0.36353  0.82997  0.16418  1.0000
  O   O4        1.0  0.63643  0.16999  0.83579  1.0000
  O   O5        1.0  0.93508  0.85596  0.06197  1.0000
  O   O6        1.0  0.06492  0.14405  0.93805  1.0000
  O   O7        1.0  0.82017  0.95282  0.92666  1.0000
  O   O8        1.0  0.17988  0.04719  0.07334  1.0000
