data_image0
_chemical_formula_structural       Cu8H52C36S8N4Cl8
_chemical_formula_sum              "Cu8 H52 C36 S8 N4 Cl8"
_cell_length_a       7.93544
_cell_length_b       11.8806
_cell_length_c       14.4836
_cell_angle_alpha    93.0646
_cell_angle_beta     91.1227
_cell_angle_gamma    105.854

_space_group_name_H-M_alt    "P 1"
_space_group_IT_number       1

loop_
  _space_group_symop_operation_xyz
  'x, y, z'

loop_
  _atom_site_type_symbol
  _atom_site_label
  _atom_site_symmetry_multiplicity
  _atom_site_fract_x
  _atom_site_fract_y
  _atom_site_fract_z
  _atom_site_occupancy
  Cu  Cu1       1.0  0.68496  0.96308  0.23448  1.0000
  Cu  Cu2       1.0  0.31505  0.03692  0.76552  1.0000
  Cu  Cu3       1.0  0.53630  0.73019  0.23671  1.0000
  Cu  Cu4       1.0  0.46370  0.26982  0.76328  1.0000
  Cu  Cu5       1.0  0.50694  0.24401  0.25758  1.0000
  Cu  Cu6       1.0  0.49306  0.75598  0.74242  1.0000
  Cu  Cu7       1.0  0.66090  0.46411  0.25385  1.0000
  Cu  Cu8       1.0  0.33909  0.53589  0.74615  1.0000
  H   H1        1.0  0.08721  0.14860  0.23911  1.0000
  H   H2        1.0  0.91280  0.85140  0.76089  1.0000
  H   H3        1.0  0.20548  0.05820  0.28754  1.0000
  H   H4        1.0  0.79452  0.94180  0.71247  1.0000
  H   H5        1.0  0.92791  0.82903  0.33982  1.0000
  H   H6        1.0  0.07209  0.17097  0.66019  1.0000
  H   H7        1.0  0.85908  0.87568  0.44781  1.0000
  H   H8        1.0  0.14092  0.12431  0.55219  1.0000
  H   H9        1.0  0.08670  0.92113  0.42217  1.0000
  H   H10       1.0  0.91330  0.07887  0.57783  1.0000
  H   H11       1.0  0.30528  0.99429  0.14365  1.0000
  H   H12       1.0  0.69473  0.00572  0.85636  1.0000
  H   H13       1.0  0.23092  0.86863  0.99470  1.0000
  H   H14       1.0  0.76909  0.13138  0.00530  1.0000
  H   H15       1.0  0.91341  0.78421  0.94656  1.0000
  H   H16       1.0  0.08661  0.21580  0.05343  1.0000
  H   H17       1.0  0.61478  0.79800  0.96264  1.0000
  H   H18       1.0  0.38522  0.20201  0.03736  1.0000
  H   H19       1.0  0.55771  0.87546  0.06274  1.0000
  H   H20       1.0  0.44230  0.12454  0.93726  1.0000
  H   H21       1.0  0.35310  0.62266  0.96127  1.0000
  H   H22       1.0  0.64692  0.37733  0.03873  1.0000
  H   H23       1.0  0.25378  0.67919  0.05813  1.0000
  H   H24       1.0  0.74623  0.32081  0.94186  1.0000
  H   H25       1.0  0.28318  0.53414  0.05667  1.0000
  H   H26       1.0  0.71683  0.46586  0.94333  1.0000
  H   H27       1.0  0.56256  0.44056  0.43768  1.0000
  H   H28       1.0  0.43743  0.55944  0.56232  1.0000
  H   H29       1.0  0.59647  0.35928  0.53364  1.0000
  H   H30       1.0  0.40353  0.64071  0.46636  1.0000
  H   H31       1.0  0.65292  0.12807  0.43522  1.0000
  H   H32       1.0  0.34707  0.87193  0.56479  1.0000
  H   H33       1.0  0.43297  0.03924  0.42304  1.0000
  H   H34       1.0  0.56702  0.96076  0.57696  1.0000
  H   H35       1.0  0.50627  0.12805  0.52916  1.0000
  H   H36       1.0  0.49372  0.87195  0.47084  1.0000
  H   H37       1.0  0.88438  0.33231  0.55613  1.0000
  H   H38       1.0  0.11561  0.66768  0.44387  1.0000
  H   H39       1.0  0.18210  0.34226  0.49533  1.0000
  H   H40       1.0  0.81790  0.65774  0.50467  1.0000
  H   H41       1.0  0.23546  0.38533  0.32761  1.0000
  H   H42       1.0  0.76453  0.61468  0.67239  1.0000
  H   H43       1.0  0.92161  0.33484  0.16228  1.0000
  H   H44       1.0  0.07838  0.66516  0.83773  1.0000
  H   H45       1.0  0.13362  0.43554  0.18345  1.0000
  H   H46       1.0  0.86637  0.56446  0.81655  1.0000
  H   H47       1.0  0.00626  0.65421  0.29572  1.0000
  H   H48       1.0  0.99373  0.34580  0.70428  1.0000
  H   H49       1.0  0.00181  0.73140  0.19366  1.0000
  H   H50       1.0  0.99818  0.26860  0.80634  1.0000
  H   H51       1.0  0.17342  0.66369  0.21199  1.0000
  H   H52       1.0  0.82658  0.33631  0.78801  1.0000
  C   C1        1.0  0.03406  0.97643  0.17222  1.0000
  C   C2        1.0  0.96594  0.02357  0.82778  1.0000
  C   C3        1.0  0.07695  0.05830  0.25788  1.0000
  C   C4        1.0  0.92305  0.94170  0.74212  1.0000
  C   C5        1.0  0.95255  0.90141  0.39282  1.0000
  C   C6        1.0  0.04745  0.09859  0.60718  1.0000
  C   C7        1.0  0.16945  0.95538  0.12000  1.0000
  C   C8        1.0  0.83055  0.04463  0.88000  1.0000
  C   C9        1.0  0.12815  0.88525  0.03792  1.0000
  C   C10       1.0  0.87186  0.11476  0.96208  1.0000
  C   C11       1.0  0.95261  0.83907  0.01034  1.0000
  C   C12       1.0  0.04740  0.16094  0.98965  1.0000
  C   C13       1.0  0.82302  0.86407  0.06529  1.0000
  C   C14       1.0  0.17699  0.13594  0.93471  1.0000
  C   C15       1.0  0.63343  0.81587  0.03781  1.0000
  C   C16       1.0  0.36658  0.18413  0.96219  1.0000
  C   C17       1.0  0.33787  0.62403  0.03635  1.0000
  C   C18       1.0  0.66214  0.37597  0.96365  1.0000
  C   C19       1.0  0.78559  0.37235  0.42624  1.0000
  C   C20       1.0  0.21441  0.62765  0.57376  1.0000
  C   C21       1.0  0.60572  0.36493  0.45852  1.0000
  C   C22       1.0  0.39428  0.63507  0.54148  1.0000
  C   C23       1.0  0.51749  0.12228  0.45373  1.0000
  C   C24       1.0  0.48251  0.87772  0.54628  1.0000
  C   C25       1.0  0.91424  0.35118  0.48449  1.0000
  C   C26       1.0  0.08575  0.64881  0.51551  1.0000
  C   C27       1.0  0.07910  0.35675  0.45043  1.0000
  C   C28       1.0  0.92089  0.64325  0.54957  1.0000
  C   C29       1.0  0.10953  0.38110  0.35813  1.0000
  C   C30       1.0  0.89046  0.61890  0.64187  1.0000
  C   C31       1.0  0.97440  0.39907  0.30273  1.0000
  C   C32       1.0  0.02559  0.60093  0.69727  1.0000
  C   C33       1.0  0.99531  0.41660  0.20111  1.0000
  C   C34       1.0  0.00468  0.58340  0.79890  1.0000
  C   C35       1.0  0.03407  0.65586  0.22192  1.0000
  C   C36       1.0  0.96593  0.34414  0.77807  1.0000
  S   S1        1.0  0.91487  0.03099  0.34616  1.0000
  S   S2        1.0  0.08514  0.96900  0.65384  1.0000
  S   S3        1.0  0.55443  0.67481  0.09043  1.0000
  S   S4        1.0  0.44558  0.32520  0.90957  1.0000
  S   S5        1.0  0.44324  0.23699  0.40436  1.0000
  S   S6        1.0  0.55676  0.76301  0.59564  1.0000
  S   S7        1.0  0.89838  0.52675  0.15904  1.0000
  S   S8        1.0  0.10161  0.47325  0.84096  1.0000
  N   N1        1.0  0.86337  0.92984  0.14618  1.0000
  N   N2        1.0  0.13664  0.07016  0.85381  1.0000
  N   N3        1.0  0.81629  0.39701  0.33689  1.0000
  N   N4        1.0  0.18371  0.60298  0.66311  1.0000
  Cl  Cl1       1.0  0.62322  0.62501  0.34338  1.0000
  Cl  Cl2       1.0  0.37677  0.37498  0.65662  1.0000
  Cl  Cl3       1.0  0.40688  0.36982  0.16979  1.0000
  Cl  Cl4       1.0  0.59312  0.63018  0.83021  1.0000
  Cl  Cl5       1.0  0.63633  0.13445  0.16878  1.0000
  Cl  Cl6       1.0  0.36368  0.86555  0.83121  1.0000
  Cl  Cl7       1.0  0.41883  0.87173  0.29145  1.0000
  Cl  Cl8       1.0  0.58118  0.12827  0.70855  1.0000
