data_image0
_chemical_formula_structural       Cu4H28C36S8N12
_chemical_formula_sum              "Cu4 H28 C36 S8 N12"
_cell_length_a       10.2458
_cell_length_b       10.2458
_cell_length_c       10.3825
_cell_angle_alpha    94.1315
_cell_angle_beta     94.131
_cell_angle_gamma    111.094

_space_group_name_H-M_alt    "P 1"
_space_group_IT_number       1

loop_
  _space_group_symop_operation_xyz
  'x, y, z'

loop_
  _atom_site_type_symbol
  _atom_site_label
  _atom_site_symmetry_multiplicity
  _atom_site_fract_x
  _atom_site_fract_y
  _atom_site_fract_z
  _atom_site_occupancy
  Cu  Cu1       1.0  0.86003  0.13998  0.75000  1.0000
  Cu  Cu2       1.0  0.13998  0.86002  0.25000  1.0000
  Cu  Cu3       1.0  0.03056  0.96943  0.75000  1.0000
  Cu  Cu4       1.0  0.96944  0.03057  0.25000  1.0000
  H   H1        1.0  0.71627  0.64623  0.64267  1.0000
  H   H2        1.0  0.35378  0.28373  0.85732  1.0000
  H   H3        1.0  0.28373  0.35377  0.35733  1.0000
  H   H4        1.0  0.64622  0.71627  0.14267  1.0000
  H   H5        1.0  0.69203  0.87393  0.57982  1.0000
  H   H6        1.0  0.12607  0.30797  0.92019  1.0000
  H   H7        1.0  0.30797  0.12607  0.42019  1.0000
  H   H8        1.0  0.87393  0.69203  0.07981  1.0000
  H   H9        1.0  0.49065  0.67616  0.67255  1.0000
  H   H10       1.0  0.32384  0.50935  0.82745  1.0000
  H   H11       1.0  0.50935  0.32384  0.32746  1.0000
  H   H12       1.0  0.67616  0.49065  0.17254  1.0000
  H   H13       1.0  0.85468  0.56589  0.48044  1.0000
  H   H14       1.0  0.43412  0.14532  0.01957  1.0000
  H   H15       1.0  0.14532  0.43412  0.51957  1.0000
  H   H16       1.0  0.56588  0.85468  0.98043  1.0000
  H   H17       1.0  0.76488  0.41233  0.36920  1.0000
  H   H18       1.0  0.58767  0.23512  0.13081  1.0000
  H   H19       1.0  0.23512  0.58767  0.63081  1.0000
  H   H20       1.0  0.41233  0.76489  0.86919  1.0000
  H   H21       1.0  0.57086  0.81486  0.35308  1.0000
  H   H22       1.0  0.18515  0.42915  0.14692  1.0000
  H   H23       1.0  0.42914  0.18515  0.64692  1.0000
  H   H24       1.0  0.81486  0.57086  0.85308  1.0000
  H   H25       1.0  0.55854  0.01964  0.23345  1.0000
  H   H26       1.0  0.98036  0.44146  0.26656  1.0000
  H   H27       1.0  0.44146  0.98036  0.76656  1.0000
  H   H28       1.0  0.01964  0.55854  0.73344  1.0000
  C   C1        1.0  0.62135  0.58160  0.57979  1.0000
  C   C2        1.0  0.41840  0.37865  0.92021  1.0000
  C   C3        1.0  0.37865  0.41840  0.42022  1.0000
  C   C4        1.0  0.58160  0.62135  0.07978  1.0000
  C   C5        1.0  0.82890  0.94998  0.97570  1.0000
  C   C6        1.0  0.05003  0.17110  0.52429  1.0000
  C   C7        1.0  0.17110  0.05002  0.02429  1.0000
  C   C8        1.0  0.94997  0.82890  0.47570  1.0000
  C   C9        1.0  0.72992  0.19090  0.50717  1.0000
  C   C10       1.0  0.80909  0.27008  0.99283  1.0000
  C   C11       1.0  0.27008  0.80910  0.49283  1.0000
  C   C12       1.0  0.19090  0.72992  0.00717  1.0000
  C   C13       1.0  0.68348  0.95603  0.52268  1.0000
  C   C14       1.0  0.04397  0.31652  0.97732  1.0000
  C   C15       1.0  0.31652  0.04397  0.47732  1.0000
  C   C16       1.0  0.95603  0.68348  0.02268  1.0000
  C   C17       1.0  0.49454  0.59852  0.59702  1.0000
  C   C18       1.0  0.40148  0.50546  0.90298  1.0000
  C   C19       1.0  0.50546  0.40148  0.40299  1.0000
  C   C20       1.0  0.59852  0.49454  0.09701  1.0000
  C   C21       1.0  0.76563  0.46503  0.46519  1.0000
  C   C22       1.0  0.53497  0.23437  0.03481  1.0000
  C   C23       1.0  0.23437  0.53497  0.53482  1.0000
  C   C24       1.0  0.46503  0.76563  0.96518  1.0000
  C   C25       1.0  0.62883  0.48306  0.48249  1.0000
  C   C26       1.0  0.51694  0.37117  0.01751  1.0000
  C   C27       1.0  0.37117  0.51694  0.51751  1.0000
  C   C28       1.0  0.48306  0.62883  0.98249  1.0000
  C   C29       1.0  0.61669  0.92327  0.39698  1.0000
  C   C30       1.0  0.07673  0.38331  0.10302  1.0000
  C   C31       1.0  0.38331  0.07673  0.60303  1.0000
  C   C32       1.0  0.92327  0.61669  0.89697  1.0000
  C   C33       1.0  0.61068  0.03559  0.33190  1.0000
  C   C34       1.0  0.96441  0.38932  0.16810  1.0000
  C   C35       1.0  0.38932  0.96442  0.66810  1.0000
  C   C36       1.0  0.03559  0.61068  0.83190  1.0000
  S   S1        1.0  0.79022  0.90548  0.81930  1.0000
  S   S2        1.0  0.09452  0.20977  0.68069  1.0000
  S   S3        1.0  0.20977  0.09451  0.18069  1.0000
  S   S4        1.0  0.90548  0.79023  0.31930  1.0000
  S   S5        1.0  0.81099  0.36098  0.58483  1.0000
  S   S6        1.0  0.63902  0.18901  0.91517  1.0000
  S   S7        1.0  0.18902  0.63902  0.41518  1.0000
  S   S8        1.0  0.36098  0.81098  0.08483  1.0000
  N   N1        1.0  0.85869  0.98455  0.08843  1.0000
  N   N2        1.0  0.01545  0.14131  0.41157  1.0000
  N   N3        1.0  0.14131  0.01545  0.91157  1.0000
  N   N4        1.0  0.98454  0.85868  0.58843  1.0000
  N   N5        1.0  0.73987  0.08905  0.58041  1.0000
  N   N6        1.0  0.91095  0.26013  0.91959  1.0000
  N   N7        1.0  0.26013  0.91095  0.41959  1.0000
  N   N8        1.0  0.08905  0.73986  0.08041  1.0000
  N   N9        1.0  0.66682  0.16872  0.38646  1.0000
  N   N10       1.0  0.83129  0.33319  0.11354  1.0000
  N   N11       1.0  0.33319  0.83129  0.61355  1.0000
  N   N12       1.0  0.16871  0.66681  0.88646  1.0000
