data_image0
_chemical_formula_structural       Cu4H28C32S4I4N8
_chemical_formula_sum              "Cu4 H28 C32 S4 I4 N8"
_cell_length_a       4.32502
_cell_length_b       12.79
_cell_length_c       16.6612
_cell_angle_alpha    90
_cell_angle_beta     89.9999
_cell_angle_gamma    93.9867

_space_group_name_H-M_alt    "P 1"
_space_group_IT_number       1

loop_
  _space_group_symop_operation_xyz
  'x, y, z'

loop_
  _atom_site_type_symbol
  _atom_site_label
  _atom_site_symmetry_multiplicity
  _atom_site_fract_x
  _atom_site_fract_y
  _atom_site_fract_z
  _atom_site_occupancy
  Cu  Cu1       1.0  0.18786  0.48351  0.07777  1.0000
  Cu  Cu2       1.0  0.81217  0.01649  0.57776  1.0000
  Cu  Cu3       1.0  0.81214  0.51649  0.92223  1.0000
  Cu  Cu4       1.0  0.18787  0.98351  0.42223  1.0000
  H   H1        1.0  0.85924  0.81104  0.29708  1.0000
  H   H2        1.0  0.14075  0.68895  0.79708  1.0000
  H   H3        1.0  0.14076  0.18896  0.70292  1.0000
  H   H4        1.0  0.85924  0.31104  0.20292  1.0000
  H   H5        1.0  0.64002  0.80095  0.15542  1.0000
  H   H6        1.0  0.36000  0.69904  0.65542  1.0000
  H   H7        1.0  0.35999  0.19905  0.84458  1.0000
  H   H8        1.0  0.64002  0.30095  0.34458  1.0000
  H   H9        1.0  0.22035  0.34906  0.43269  1.0000
  H   H10       1.0  0.77963  0.15094  0.93269  1.0000
  H   H11       1.0  0.77964  0.65094  0.56731  1.0000
  H   H12       1.0  0.22036  0.84906  0.06731  1.0000
  H   H13       1.0  0.15574  0.68183  0.45671  1.0000
  H   H14       1.0  0.84425  0.81817  0.95670  1.0000
  H   H15       1.0  0.84423  0.31817  0.54329  1.0000
  H   H16       1.0  0.15574  0.18183  0.04329  1.0000
  H   H17       1.0  0.80999  0.65552  0.06704  1.0000
  H   H18       1.0  0.19004  0.84447  0.56704  1.0000
  H   H19       1.0  0.19003  0.34447  0.93296  1.0000
  H   H20       1.0  0.80999  0.15553  0.43296  1.0000
  H   H21       1.0  0.66144  0.49535  0.38580  1.0000
  H   H22       1.0  0.33855  0.00465  0.88580  1.0000
  H   H23       1.0  0.33855  0.50465  0.61420  1.0000
  H   H24       1.0  0.66144  0.99535  0.11420  1.0000
  H   H25       1.0  0.53020  0.62165  0.36868  1.0000
  H   H26       1.0  0.46979  0.87835  0.86868  1.0000
  H   H27       1.0  0.46979  0.37835  0.63132  1.0000
  H   H28       1.0  0.53020  0.12165  0.13132  1.0000
  C   C1        1.0  0.90777  0.74770  0.25604  1.0000
  C   C2        1.0  0.09223  0.75229  0.75605  1.0000
  C   C3        1.0  0.09223  0.25230  0.74396  1.0000
  C   C4        1.0  0.90777  0.24770  0.24396  1.0000
  C   C5        1.0  0.79041  0.74315  0.17821  1.0000
  C   C6        1.0  0.20961  0.75685  0.67822  1.0000
  C   C7        1.0  0.20960  0.25685  0.82179  1.0000
  C   C8        1.0  0.79041  0.24315  0.32179  1.0000
  C   C9        1.0  0.21505  0.51797  0.43646  1.0000
  C   C10       1.0  0.78494  0.98203  0.93646  1.0000
  C   C11       1.0  0.78494  0.48203  0.56354  1.0000
  C   C12       1.0  0.21504  0.01797  0.06353  1.0000
  C   C13       1.0  0.14920  0.59672  0.23545  1.0000
  C   C14       1.0  0.85082  0.90328  0.73545  1.0000
  C   C15       1.0  0.85081  0.40328  0.76455  1.0000
  C   C16       1.0  0.14919  0.09672  0.26455  1.0000
  C   C17       1.0  0.12226  0.41593  0.46142  1.0000
  C   C18       1.0  0.87772  0.08408  0.96142  1.0000
  C   C19       1.0  0.87773  0.58408  0.53858  1.0000
  C   C20       1.0  0.12226  0.91592  0.03858  1.0000
  C   C21       1.0  0.08971  0.60197  0.47613  1.0000
  C   C22       1.0  0.91029  0.89804  0.97613  1.0000
  C   C23       1.0  0.91029  0.39804  0.52386  1.0000
  C   C24       1.0  0.08969  0.10196  0.02386  1.0000
  C   C25       1.0  0.88208  0.66295  0.12963  1.0000
  C   C26       1.0  0.11794  0.83705  0.62964  1.0000
  C   C27       1.0  0.11793  0.33705  0.87037  1.0000
  C   C28       1.0  0.88208  0.16295  0.37037  1.0000
  C   C29       1.0  0.45618  0.53820  0.37246  1.0000
  C   C30       1.0  0.54381  0.96180  0.87246  1.0000
  C   C31       1.0  0.54382  0.46181  0.62754  1.0000
  C   C32       1.0  0.45617  0.03820  0.12754  1.0000
  S   S1        1.0  0.35884  0.49421  0.27060  1.0000
  S   S2        1.0  0.64117  0.00578  0.77059  1.0000
  S   S3        1.0  0.64117  0.50579  0.72941  1.0000
  S   S4        1.0  0.35883  0.99421  0.22940  1.0000
  I   I1        1.0  0.65170  0.37308  0.05324  1.0000
  I   I2        1.0  0.34832  0.12691  0.55324  1.0000
  I   I3        1.0  0.34830  0.62691  0.94676  1.0000
  I   I4        1.0  0.65170  0.87309  0.44676  1.0000
  N   N1        1.0  0.06797  0.59017  0.15660  1.0000
  N   N2        1.0  0.93205  0.90983  0.65659  1.0000
  N   N3        1.0  0.93204  0.40983  0.84341  1.0000
  N   N4        1.0  0.06797  0.09017  0.34341  1.0000
  N   N5        1.0  0.08301  0.67403  0.28503  1.0000
  N   N6        1.0  0.91699  0.82597  0.78503  1.0000
  N   N7        1.0  0.91700  0.32597  0.71497  1.0000
  N   N8        1.0  0.08300  0.17403  0.21497  1.0000
