data_image0
_chemical_formula_structural       Cd4H36C44N12O16
_chemical_formula_sum              "Cd4 H36 C44 N12 O16"
_cell_length_a       8.81058
_cell_length_b       10.3324
_cell_length_c       13.3061
_cell_angle_alpha    89.9991
_cell_angle_beta     89.9998
_cell_angle_gamma    93.5761

_space_group_name_H-M_alt    "P 1"
_space_group_IT_number       1

loop_
  _space_group_symop_operation_xyz
  'x, y, z'

loop_
  _atom_site_type_symbol
  _atom_site_label
  _atom_site_symmetry_multiplicity
  _atom_site_fract_x
  _atom_site_fract_y
  _atom_site_fract_z
  _atom_site_occupancy
  Cd  Cd1       1.0  0.51363  0.86060  0.91263  1.0000
  Cd  Cd2       1.0  0.98638  0.63940  0.41262  1.0000
  Cd  Cd3       1.0  0.48638  0.13941  0.08739  1.0000
  Cd  Cd4       1.0  0.01361  0.36060  0.58739  1.0000
  H   H1        1.0  0.14591  0.92239  0.36226  1.0000
  H   H2        1.0  0.35410  0.57762  0.86227  1.0000
  H   H3        1.0  0.85408  0.07761  0.63772  1.0000
  H   H4        1.0  0.64591  0.42239  0.13772  1.0000
  H   H5        1.0  0.32254  0.09494  0.44136  1.0000
  H   H6        1.0  0.17747  0.40507  0.94138  1.0000
  H   H7        1.0  0.67746  0.90507  0.55864  1.0000
  H   H8        1.0  0.82252  0.59493  0.05863  1.0000
  H   H9        1.0  0.41003  0.06133  0.61821  1.0000
  H   H10       1.0  0.08998  0.43869  0.11823  1.0000
  H   H11       1.0  0.58995  0.93868  0.38178  1.0000
  H   H12       1.0  0.91003  0.56131  0.88178  1.0000
  H   H13       1.0  0.76242  0.85550  0.10257  1.0000
  H   H14       1.0  0.73758  0.64449  0.60256  1.0000
  H   H15       1.0  0.23757  0.14450  0.89743  1.0000
  H   H16       1.0  0.26241  0.35550  0.39743  1.0000
  H   H17       1.0  0.07351  0.84866  0.07848  1.0000
  H   H18       1.0  0.42648  0.65133  0.57848  1.0000
  H   H19       1.0  0.92649  0.15133  0.92152  1.0000
  H   H20       1.0  0.57350  0.34865  0.42151  1.0000
  H   H21       1.0  0.81179  0.75049  0.73444  1.0000
  H   H22       1.0  0.68820  0.74952  0.23445  1.0000
  H   H23       1.0  0.18821  0.24952  0.26555  1.0000
  H   H24       1.0  0.31179  0.25050  0.76556  1.0000
  H   H25       1.0  0.96462  0.87122  0.72547  1.0000
  H   H26       1.0  0.53538  0.62879  0.22548  1.0000
  H   H27       1.0  0.03538  0.12880  0.27452  1.0000
  H   H28       1.0  0.46463  0.37121  0.77452  1.0000
  H   H29       1.0  0.77278  0.91669  0.74172  1.0000
  H   H30       1.0  0.72722  0.58331  0.24173  1.0000
  H   H31       1.0  0.22722  0.08332  0.25827  1.0000
  H   H32       1.0  0.27278  0.41669  0.75827  1.0000
  H   H33       1.0  0.11317  0.85378  0.88429  1.0000
  H   H34       1.0  0.38683  0.64623  0.38429  1.0000
  H   H35       1.0  0.88683  0.14623  0.11571  1.0000
  H   H36       1.0  0.61316  0.35377  0.61570  1.0000
  C   C1        1.0  0.18334  0.91512  0.43998  1.0000
  C   C2        1.0  0.31667  0.58490  0.93999  1.0000
  C   C3        1.0  0.81665  0.08488  0.56001  1.0000
  C   C4        1.0  0.68335  0.41510  0.06002  1.0000
  C   C5        1.0  0.28204  0.00959  0.48394  1.0000
  C   C6        1.0  0.21797  0.49042  0.98395  1.0000
  C   C7        1.0  0.71795  0.99042  0.51607  1.0000
  C   C8        1.0  0.78205  0.50956  0.01606  1.0000
  C   C9        1.0  0.33018  0.99095  0.58212  1.0000
  C   C10       1.0  0.16982  0.50906  0.08213  1.0000
  C   C11       1.0  0.66980  0.00905  0.41789  1.0000
  C   C12       1.0  0.83019  0.49093  0.91788  1.0000
  C   C13       1.0  0.27934  0.87857  0.63436  1.0000
  C   C14       1.0  0.22069  0.62144  0.13437  1.0000
  C   C15       1.0  0.72068  0.12145  0.36565  1.0000
  C   C16       1.0  0.77932  0.37855  0.86564  1.0000
  C   C17       1.0  0.17923  0.78856  0.58519  1.0000
  C   C18       1.0  0.32078  0.71146  0.08519  1.0000
  C   C19       1.0  0.82078  0.21147  0.41481  1.0000
  C   C20       1.0  0.67922  0.28853  0.91481  1.0000
  C   C21       1.0  0.34125  0.86018  0.73847  1.0000
  C   C22       1.0  0.15876  0.63982  0.23847  1.0000
  C   C23       1.0  0.65875  0.13983  0.26154  1.0000
  C   C24       1.0  0.84124  0.36016  0.76153  1.0000
  C   C25       1.0  0.12465  0.66157  0.63516  1.0000
  C   C26       1.0  0.37536  0.83844  0.13517  1.0000
  C   C27       1.0  0.87535  0.33844  0.36484  1.0000
  C   C28       1.0  0.62464  0.16156  0.86484  1.0000
  C   C29       1.0  0.82902  0.84785  0.03470  1.0000
  C   C30       1.0  0.67098  0.65213  0.53469  1.0000
  C   C31       1.0  0.17098  0.15213  0.96530  1.0000
  C   C32       1.0  0.32901  0.34786  0.46530  1.0000
  C   C33       1.0  0.98352  0.84591  0.02321  1.0000
  C   C34       1.0  0.51648  0.65408  0.52321  1.0000
  C   C35       1.0  0.01648  0.15407  0.97678  1.0000
  C   C36       1.0  0.48351  0.34591  0.47678  1.0000
  C   C37       1.0  0.87436  0.84485  0.87268  1.0000
  C   C38       1.0  0.62563  0.65515  0.37268  1.0000
  C   C39       1.0  0.12564  0.15516  0.12732  1.0000
  C   C40       1.0  0.37436  0.34485  0.62731  1.0000
  C   C41       1.0  0.85542  0.84589  0.76207  1.0000
  C   C42       1.0  0.64458  0.65411  0.26207  1.0000
  C   C43       1.0  0.14458  0.15412  0.23793  1.0000
  C   C44       1.0  0.35542  0.34590  0.73793  1.0000
  N   N1        1.0  0.13335  0.80826  0.48988  1.0000
  N   N2        1.0  0.36664  0.69176  0.98988  1.0000
  N   N3        1.0  0.86664  0.19174  0.51012  1.0000
  N   N4        1.0  0.63337  0.30824  0.01013  1.0000
  N   N5        1.0  0.76222  0.84658  0.94054  1.0000
  N   N6        1.0  0.73778  0.65341  0.44054  1.0000
  N   N7        1.0  0.23778  0.15341  0.05946  1.0000
  N   N8        1.0  0.26221  0.34660  0.55946  1.0000
  N   N9        1.0  0.00952  0.84305  0.92102  1.0000
  N   N10       1.0  0.49048  0.65694  0.42102  1.0000
  N   N11       1.0  0.99048  0.15694  0.07898  1.0000
  N   N12       1.0  0.50951  0.34304  0.57897  1.0000
  O   O1        1.0  0.47041  0.81169  0.74463  1.0000
  O   O2        1.0  0.02961  0.68832  0.24462  1.0000
  O   O3        1.0  0.52959  0.18832  0.25538  1.0000
  O   O4        1.0  0.97041  0.31168  0.75539  1.0000
  O   O5        1.0  0.27220  0.90699  0.81254  1.0000
  O   O6        1.0  0.22779  0.59301  0.31255  1.0000
  O   O7        1.0  0.72780  0.09303  0.18746  1.0000
  O   O8        1.0  0.77219  0.40695  0.68745  1.0000
  O   O9        1.0  0.03620  0.58531  0.58090  1.0000
  O   O10       1.0  0.46383  0.91470  0.08092  1.0000
  O   O11       1.0  0.96381  0.41470  0.41909  1.0000
  O   O12       1.0  0.53619  0.08530  0.91910  1.0000
  O   O13       1.0  0.16882  0.63930  0.72198  1.0000
  O   O14       1.0  0.33120  0.86070  0.22199  1.0000
  O   O15       1.0  0.83119  0.36072  0.27802  1.0000
  O   O16       1.0  0.66883  0.13928  0.77802  1.0000
