data_image0
_chemical_formula_structural       Cu6H16C24N28O8
_chemical_formula_sum              "Cu6 H16 C24 N28 O8"
_cell_length_a       6.08781
_cell_length_b       9.04836
_cell_length_c       17.297
_cell_angle_alpha    100.166
_cell_angle_beta     89.9863
_cell_angle_gamma    90.0019

_space_group_name_H-M_alt    "P 1"
_space_group_IT_number       1

loop_
  _space_group_symop_operation_xyz
  'x, y, z'

loop_
  _atom_site_type_symbol
  _atom_site_label
  _atom_site_symmetry_multiplicity
  _atom_site_fract_x
  _atom_site_fract_y
  _atom_site_fract_z
  _atom_site_occupancy
  Cu  Cu1       1.0  0.15924  0.02984  0.83219  1.0000
  Cu  Cu2       1.0  0.65941  0.97014  0.66784  1.0000
  Cu  Cu3       1.0  0.84201  0.97011  0.16786  1.0000
  Cu  Cu4       1.0  0.34157  0.02995  0.33191  1.0000
  Cu  Cu5       1.0  0.99950  0.99990  0.99975  1.0000
  Cu  Cu6       1.0  0.49925  0.00011  0.50045  1.0000
  H   H1        1.0  0.41588  0.26781  0.77084  1.0000
  H   H2        1.0  0.91586  0.73227  0.72923  1.0000
  H   H3        1.0  0.58479  0.73182  0.22923  1.0000
  H   H4        1.0  0.08456  0.26835  0.27058  1.0000
  H   H5        1.0  0.41354  0.54969  0.79230  1.0000
  H   H6        1.0  0.91354  0.45041  0.70785  1.0000
  H   H7        1.0  0.58667  0.45002  0.20767  1.0000
  H   H8        1.0  0.08638  0.55016  0.29226  1.0000
  H   H9        1.0  0.83187  0.53983  0.93444  1.0000
  H   H10       1.0  0.33215  0.46016  0.56565  1.0000
  H   H11       1.0  0.16819  0.45969  0.06541  1.0000
  H   H12       1.0  0.66732  0.54036  0.43467  1.0000
  H   H13       1.0  0.85151  0.26013  0.90513  1.0000
  H   H14       1.0  0.35175  0.73983  0.59489  1.0000
  H   H15       1.0  0.14872  0.73930  0.09472  1.0000
  H   H16       1.0  0.64798  0.26070  0.40523  1.0000
  C   C1        1.0  0.28781  0.33286  0.80558  1.0000
  C   C2        1.0  0.78786  0.66719  0.69449  1.0000
  C   C3        1.0  0.71273  0.66678  0.19441  1.0000
  C   C4        1.0  0.21239  0.33337  0.30544  1.0000
  C   C5        1.0  0.28641  0.48911  0.81810  1.0000
  C   C6        1.0  0.78645  0.51095  0.68202  1.0000
  C   C7        1.0  0.71390  0.51053  0.18188  1.0000
  C   C8        1.0  0.21351  0.48961  0.31805  1.0000
  C   C9        1.0  0.12339  0.56652  0.86581  1.0000
  C   C10       1.0  0.62350  0.43351  0.63432  1.0000
  C   C11       1.0  0.87689  0.43308  0.13415  1.0000
  C   C12       1.0  0.37632  0.56703  0.36585  1.0000
  C   C13       1.0  0.96240  0.48396  0.89715  1.0000
  C   C14       1.0  0.46260  0.51605  0.60296  1.0000
  C   C15       1.0  0.03773  0.51557  0.10274  1.0000
  C   C16       1.0  0.53708  0.48447  0.39728  1.0000
  C   C17       1.0  0.97170  0.32824  0.88075  1.0000
  C   C18       1.0  0.47190  0.67175  0.61931  1.0000
  C   C19       1.0  0.02857  0.67125  0.11914  1.0000
  C   C20       1.0  0.52798  0.32880  0.38080  1.0000
  C   C21       1.0  0.11802  0.73537  0.88422  1.0000
  C   C22       1.0  0.61807  0.26466  0.61593  1.0000
  C   C23       1.0  0.88258  0.26428  0.11581  1.0000
  C   C24       1.0  0.38193  0.73581  0.38425  1.0000
  N   N1        1.0  0.13328  0.25405  0.83679  1.0000
  N   N2        1.0  0.63340  0.74598  0.66325  1.0000
  N   N3        1.0  0.86729  0.74557  0.16321  1.0000
  N   N4        1.0  0.36687  0.25453  0.33663  1.0000
  N   N5        1.0  0.26751  0.06207  0.94480  1.0000
  N   N6        1.0  0.76784  0.93793  0.55512  1.0000
  N   N7        1.0  0.73182  0.93787  0.05491  1.0000
  N   N8        1.0  0.23346  0.06283  0.44490  1.0000
  N   N9        1.0  0.35990  0.17813  0.97351  1.0000
  N   N10       1.0  0.85992  0.82172  0.52644  1.0000
  N   N11       1.0  0.63978  0.82162  0.02634  1.0000
  N   N12       1.0  0.14011  0.17843  0.47364  1.0000
  N   N13       1.0  0.45272  0.28682  0.00065  1.0000
  N   N14       1.0  0.95247  0.71284  0.49935  1.0000
  N   N15       1.0  0.54730  0.71259  0.99949  1.0000
  N   N16       1.0  0.04681  0.28702  0.50072  1.0000
  N   N17       1.0  0.52135  0.01266  0.77675  1.0000
  N   N18       1.0  0.02151  0.98735  0.72331  1.0000
  N   N19       1.0  0.48054  0.98788  0.22244  1.0000
  N   N20       1.0  0.98049  0.01203  0.27740  1.0000
  N   N21       1.0  0.65055  0.00562  0.82833  1.0000
  N   N22       1.0  0.15061  0.99414  0.67165  1.0000
  N   N23       1.0  0.34893  0.99282  0.17135  1.0000
  N   N24       1.0  0.84879  0.00694  0.32847  1.0000
  N   N25       1.0  0.77622  0.00056  0.87898  1.0000
  N   N26       1.0  0.27595  0.99887  0.62085  1.0000
  N   N27       1.0  0.21996  0.99584  0.12145  1.0000
  N   N28       1.0  0.71965  0.00370  0.37832  1.0000
  O   O1        1.0  0.17696  0.80437  0.82980  1.0000
  O   O2        1.0  0.67723  0.19562  0.67029  1.0000
  O   O3        1.0  0.82482  0.19536  0.17040  1.0000
  O   O4        1.0  0.32390  0.80475  0.32969  1.0000
  O   O5        1.0  0.04893  0.78919  0.95281  1.0000
  O   O6        1.0  0.54872  0.21085  0.54738  1.0000
  O   O7        1.0  0.95079  0.21043  0.04711  1.0000
  O   O8        1.0  0.45018  0.78966  0.45292  1.0000
