data_image0
_chemical_formula_structural       Cd2H38C56N6O12
_chemical_formula_sum              "Cd2 H38 C56 N6 O12"
_cell_length_a       10.245
_cell_length_b       10.5074
_cell_length_c       13.9571
_cell_angle_alpha    89.2919
_cell_angle_beta     70.4572
_cell_angle_gamma    63.9227

_space_group_name_H-M_alt    "P 1"
_space_group_IT_number       1

loop_
  _space_group_symop_operation_xyz
  'x, y, z'

loop_
  _atom_site_type_symbol
  _atom_site_label
  _atom_site_symmetry_multiplicity
  _atom_site_fract_x
  _atom_site_fract_y
  _atom_site_fract_z
  _atom_site_occupancy
  Cd  Cd1       1.0  0.85132  0.59900  0.81772  1.0000
  Cd  Cd2       1.0  0.14868  0.40100  0.18228  1.0000
  H   H1        1.0  0.38854  0.78161  0.56890  1.0000
  H   H2        1.0  0.61146  0.21839  0.43110  1.0000
  H   H3        1.0  0.89345  0.31021  0.06997  1.0000
  H   H4        1.0  0.10655  0.68979  0.93003  1.0000
  H   H5        1.0  0.63446  0.65235  0.42327  1.0000
  H   H6        1.0  0.36555  0.34765  0.57673  1.0000
  H   H7        1.0  0.63093  0.40305  0.18245  1.0000
  H   H8        1.0  0.36907  0.59695  0.81755  1.0000
  H   H9        1.0  0.20682  0.64477  0.44083  1.0000
  H   H10       1.0  0.79318  0.35523  0.55917  1.0000
  H   H11       1.0  0.09919  0.87393  0.52789  1.0000
  H   H12       1.0  0.90081  0.12606  0.47211  1.0000
  H   H13       1.0  0.13098  0.74744  0.61358  1.0000
  H   H14       1.0  0.86902  0.25256  0.38642  1.0000
  H   H15       1.0  0.10161  0.81243  0.78377  1.0000
  H   H16       1.0  0.89839  0.18757  0.21623  1.0000
  H   H17       1.0  0.00539  0.00184  0.92805  1.0000
  H   H18       1.0  0.99461  0.99816  0.07195  1.0000
  H   H19       1.0  0.99228  0.30876  0.71815  1.0000
  H   H20       1.0  0.00772  0.69125  0.28186  1.0000
  H   H21       1.0  0.08775  0.11832  0.57382  1.0000
  H   H22       1.0  0.91225  0.88168  0.42618  1.0000
  H   H23       1.0  0.80561  0.79841  0.63441  1.0000
  H   H24       1.0  0.19439  0.20159  0.36559  1.0000
  H   H25       1.0  0.72446  0.05715  0.60881  1.0000
  H   H26       1.0  0.27554  0.94286  0.39119  1.0000
  H   H27       1.0  0.64227  0.23944  0.75916  1.0000
  H   H28       1.0  0.35773  0.76056  0.24084  1.0000
  H   H29       1.0  0.58775  0.29675  0.94679  1.0000
  H   H30       1.0  0.41225  0.70325  0.05322  1.0000
  H   H31       1.0  0.57934  0.21561  0.11343  1.0000
  H   H32       1.0  0.42066  0.78439  0.88657  1.0000
  H   H33       1.0  0.62101  0.01617  0.21918  1.0000
  H   H34       1.0  0.37900  0.98383  0.78082  1.0000
  H   H35       1.0  0.69647  0.75570  0.22821  1.0000
  H   H36       1.0  0.30353  0.24429  0.77179  1.0000
  H   H37       1.0  0.78208  0.59009  0.06668  1.0000
  H   H38       1.0  0.21793  0.40991  0.93332  1.0000
  C   C1        1.0  0.40724  0.66927  0.44226  1.0000
  C   C2        1.0  0.59276  0.33073  0.55774  1.0000
  C   C3        1.0  0.56954  0.61633  0.39220  1.0000
  C   C4        1.0  0.43046  0.38367  0.60779  1.0000
  C   C5        1.0  0.65047  0.51921  0.30034  1.0000
  C   C6        1.0  0.34953  0.48079  0.69965  1.0000
  C   C7        1.0  0.57051  0.47330  0.25643  1.0000
  C   C8        1.0  0.42949  0.52670  0.74357  1.0000
  C   C9        1.0  0.41100  0.51924  0.30873  1.0000
  C   C10       1.0  0.58900  0.48076  0.69127  1.0000
  C   C11       1.0  0.33022  0.61426  0.40202  1.0000
  C   C12       1.0  0.66978  0.38574  0.59798  1.0000
  C   C13       1.0  0.15978  0.83297  0.58229  1.0000
  C   C14       1.0  0.84022  0.16703  0.41771  1.0000
  C   C15       1.0  0.10157  0.95169  0.66876  1.0000
  C   C16       1.0  0.89843  0.04831  0.33124  1.0000
  C   C17       1.0  0.07877  0.92087  0.76906  1.0000
  C   C18       1.0  0.92123  0.07913  0.23094  1.0000
  C   C19       1.0  0.02351  0.02811  0.85077  1.0000
  C   C20       1.0  0.97649  0.97189  0.14923  1.0000
  C   C21       1.0  0.99039  0.16891  0.83393  1.0000
  C   C22       1.0  0.00961  0.83110  0.16607  1.0000
  C   C23       1.0  0.01522  0.20049  0.73327  1.0000
  C   C24       1.0  0.98478  0.79951  0.26673  1.0000
  C   C25       1.0  0.07019  0.09239  0.65170  1.0000
  C   C26       1.0  0.92981  0.90762  0.34830  1.0000
  C   C27       1.0  0.93433  0.28147  0.92212  1.0000
  C   C28       1.0  0.06567  0.71852  0.07789  1.0000
  C   C29       1.0  0.82242  0.46988  0.24780  1.0000
  C   C30       1.0  0.17758  0.53012  0.75220  1.0000
  C   C31       1.0  0.32175  0.47273  0.26365  1.0000
  C   C32       1.0  0.67825  0.52727  0.73635  1.0000
  C   C33       1.0  0.76739  0.88240  0.69766  1.0000
  C   C34       1.0  0.23260  0.11760  0.30234  1.0000
  C   C35       1.0  0.72341  0.02618  0.68382  1.0000
  C   C36       1.0  0.27659  0.97382  0.31618  1.0000
  C   C37       1.0  0.67683  0.12700  0.76708  1.0000
  C   C38       1.0  0.32317  0.87300  0.23292  1.0000
  C   C39       1.0  0.67233  0.08461  0.86398  1.0000
  C   C40       1.0  0.32767  0.91539  0.13602  1.0000
  C   C41       1.0  0.62339  0.18368  0.95338  1.0000
  C   C42       1.0  0.37661  0.81632  0.04662  1.0000
  C   C43       1.0  0.61991  0.13811  0.04577  1.0000
  C   C44       1.0  0.38008  0.86189  0.95423  1.0000
  C   C45       1.0  0.66294  0.99101  0.05621  1.0000
  C   C46       1.0  0.33706  0.00899  0.94379  1.0000
  C   C47       1.0  0.65754  0.94080  0.15109  1.0000
  C   C48       1.0  0.34246  0.05920  0.84891  1.0000
  C   C49       1.0  0.69855  0.79772  0.15633  1.0000
  C   C50       1.0  0.30146  0.20228  0.84367  1.0000
  C   C51       1.0  0.74588  0.70431  0.06634  1.0000
  C   C52       1.0  0.25413  0.29569  0.93366  1.0000
  C   C53       1.0  0.71178  0.88911  0.96931  1.0000
  C   C54       1.0  0.28822  0.11089  0.03069  1.0000
  C   C55       1.0  0.71763  0.93695  0.87100  1.0000
  C   C56       1.0  0.28237  0.06305  0.12900  1.0000
  N   N1        1.0  0.32669  0.77850  0.52612  1.0000
  N   N2        1.0  0.67332  0.22150  0.47388  1.0000
  N   N3        1.0  0.76494  0.83962  0.78818  1.0000
  N   N4        1.0  0.23506  0.16038  0.21183  1.0000
  N   N5        1.0  0.75183  0.74893  0.97607  1.0000
  N   N6        1.0  0.24817  0.25106  0.02393  1.0000
  O   O1        1.0  0.90802  0.40751  0.91475  1.0000
  O   O2        1.0  0.09198  0.59250  0.08526  1.0000
  O   O3        1.0  0.91750  0.23439  0.01200  1.0000
  O   O4        1.0  0.08250  0.76561  0.98800  1.0000
  O   O5        1.0  0.89020  0.50995  0.29339  1.0000
  O   O6        1.0  0.10980  0.49005  0.70661  1.0000
  O   O7        1.0  0.89692  0.39019  0.15965  1.0000
  O   O8        1.0  0.10308  0.60981  0.84035  1.0000
  O   O9        1.0  0.37189  0.43988  0.16594  1.0000
  O   O10       1.0  0.62811  0.56012  0.83406  1.0000
  O   O11       1.0  0.19805  0.47065  0.32418  1.0000
  O   O12       1.0  0.80195  0.52935  0.67582  1.0000
