data_image0
_chemical_formula_structural       Co2P4H28C18N4O12
_chemical_formula_sum              "Co2 P4 H28 C18 N4 O12"
_cell_length_a       6.82819
_cell_length_b       10.5328
_cell_length_c       10.6857
_cell_angle_alpha    113.415
_cell_angle_beta     94.4095
_cell_angle_gamma    101.029

_space_group_name_H-M_alt    "P 1"
_space_group_IT_number       1

loop_
  _space_group_symop_operation_xyz
  'x, y, z'

loop_
  _atom_site_type_symbol
  _atom_site_label
  _atom_site_symmetry_multiplicity
  _atom_site_fract_x
  _atom_site_fract_y
  _atom_site_fract_z
  _atom_site_occupancy
  Co  Co1       1.0  0.12742  0.37305  0.31599  1.0000
  Co  Co2       1.0  0.87258  0.62696  0.68401  1.0000
  P   P1        1.0  0.27836  0.53404  0.64673  1.0000
  P   P2        1.0  0.72164  0.46596  0.35328  1.0000
  P   P3        1.0  0.93987  0.88817  0.62978  1.0000
  P   P4        1.0  0.06012  0.11184  0.37022  1.0000
  H   H1        1.0  0.26434  0.31125  0.60361  1.0000
  H   H2        1.0  0.73566  0.68875  0.39639  1.0000
  H   H3        1.0  0.07956  0.09345  0.62094  1.0000
  H   H4        1.0  0.92044  0.90656  0.37906  1.0000
  H   H5        1.0  0.55227  0.68146  0.56690  1.0000
  H   H6        1.0  0.44773  0.31854  0.43310  1.0000
  H   H7        1.0  0.38569  0.77914  0.78722  1.0000
  H   H8        1.0  0.61432  0.22086  0.21278  1.0000
  H   H9        1.0  0.86513  0.93326  0.90909  1.0000
  H   H10       1.0  0.13487  0.06673  0.09091  1.0000
  H   H11       1.0  0.83970  0.08482  0.88125  1.0000
  H   H12       1.0  0.16029  0.91518  0.11875  1.0000
  H   H13       1.0  0.62749  0.98012  0.91114  1.0000
  H   H14       1.0  0.37251  0.01987  0.08886  1.0000
  H   H15       1.0  0.41080  0.93535  0.68183  1.0000
  H   H16       1.0  0.58919  0.06465  0.31817  1.0000
  H   H17       1.0  0.61570  0.05705  0.66503  1.0000
  H   H18       1.0  0.38429  0.94295  0.33497  1.0000
  H   H19       1.0  0.51846  0.88454  0.52789  1.0000
  H   H20       1.0  0.48154  0.11546  0.47211  1.0000
  H   H21       1.0  0.99447  0.59101  0.93987  1.0000
  H   H22       1.0  0.00555  0.40899  0.06012  1.0000
  H   H23       1.0  0.85911  0.61930  0.15999  1.0000
  H   H24       1.0  0.14090  0.38070  0.84001  1.0000
  H   H25       1.0  0.53315  0.69542  0.19163  1.0000
  H   H26       1.0  0.46686  0.30457  0.80836  1.0000
  H   H27       1.0  0.35503  0.73810  0.00221  1.0000
  H   H28       1.0  0.64496  0.26189  0.99779  1.0000
  C   C1        1.0  0.47670  0.69935  0.75242  1.0000
  C   C2        1.0  0.52331  0.30065  0.24757  1.0000
  C   C3        1.0  0.70368  0.88686  0.70433  1.0000
  C   C4        1.0  0.29632  0.11314  0.29567  1.0000
  C   C5        1.0  0.76224  0.97553  0.86102  1.0000
  C   C6        1.0  0.23776  0.02447  0.13898  1.0000
  C   C7        1.0  0.55318  0.94415  0.64090  1.0000
  C   C8        1.0  0.44681  0.05585  0.35910  1.0000
  C   C9        1.0  0.58097  0.68570  0.87390  1.0000
  C   C10       1.0  0.41903  0.31430  0.12610  1.0000
  C   C11       1.0  0.85366  0.62362  0.96005  1.0000
  C   C12       1.0  0.14633  0.37637  0.03995  1.0000
  C   C13       1.0  0.77814  0.64016  0.08104  1.0000
  C   C14       1.0  0.22186  0.35983  0.91894  1.0000
  C   C15       1.0  0.59670  0.68268  0.09823  1.0000
  C   C16       1.0  0.40331  0.31731  0.90178  1.0000
  C   C17       1.0  0.49761  0.70587  0.99348  1.0000
  C   C18       1.0  0.50239  0.29413  0.00651  1.0000
  N   N1        1.0  0.62285  0.73115  0.66849  1.0000
  N   N2        1.0  0.37715  0.26885  0.33150  1.0000
  N   N3        1.0  0.75745  0.64585  0.85801  1.0000
  N   N4        1.0  0.24255  0.35416  0.14198  1.0000
  O   O1        1.0  0.24857  0.52854  0.50197  1.0000
  O   O2        1.0  0.75143  0.47146  0.49803  1.0000
  O   O3        1.0  0.09690  0.54125  0.72179  1.0000
  O   O4        1.0  0.90310  0.45875  0.27821  1.0000
  O   O5        1.0  0.37157  0.40857  0.65042  1.0000
  O   O6        1.0  0.62843  0.59143  0.34958  1.0000
  O   O7        1.0  0.05233  0.80324  0.68439  1.0000
  O   O8        1.0  0.94767  0.19677  0.31561  1.0000
  O   O9        1.0  0.88514  0.82855  0.47127  1.0000
  O   O10       1.0  0.11485  0.17145  0.52873  1.0000
  O   O11       1.0  0.06569  0.04745  0.68975  1.0000
  O   O12       1.0  0.93430  0.95256  0.31025  1.0000
