data_image0
_chemical_formula_structural       Cu2H24C28N6O12
_chemical_formula_sum              "Cu2 H24 C28 N6 O12"
_cell_length_a       6.84397
_cell_length_b       10.3678
_cell_length_c       10.8677
_cell_angle_alpha    68.989
_cell_angle_beta     81.0579
_cell_angle_gamma    75.4589

_space_group_name_H-M_alt    "P 1"
_space_group_IT_number       1

loop_
  _space_group_symop_operation_xyz
  'x, y, z'

loop_
  _atom_site_type_symbol
  _atom_site_label
  _atom_site_symmetry_multiplicity
  _atom_site_fract_x
  _atom_site_fract_y
  _atom_site_fract_z
  _atom_site_occupancy
  Cu  Cu1       1.0  0.14756  0.08480  0.36510  1.0000
  Cu  Cu2       1.0  0.85244  0.91520  0.63490  1.0000
  H   H1        1.0  0.17295  0.08459  0.58298  1.0000
  H   H2        1.0  0.82705  0.91541  0.41702  1.0000
  H   H3        1.0  0.31782  0.92789  0.59479  1.0000
  H   H4        1.0  0.68218  0.07211  0.40522  1.0000
  H   H5        1.0  0.37141  0.76338  0.49034  1.0000
  H   H6        1.0  0.62860  0.23662  0.50966  1.0000
  H   H7        1.0  0.51720  0.57263  0.39264  1.0000
  H   H8        1.0  0.48281  0.42737  0.60736  1.0000
  H   H9        1.0  0.50928  0.62260  0.15184  1.0000
  H   H10       1.0  0.49073  0.37740  0.84816  1.0000
  H   H11       1.0  0.25620  0.05336  0.79719  1.0000
  H   H12       1.0  0.74379  0.94664  0.20281  1.0000
  H   H13       1.0  0.42716  0.81071  0.92539  1.0000
  H   H14       1.0  0.57284  0.18930  0.07461  1.0000
  H   H15       1.0  0.04371  0.29331  0.79609  1.0000
  H   H16       1.0  0.95629  0.70669  0.20391  1.0000
  H   H17       1.0  0.86514  0.45060  0.92910  1.0000
  H   H18       1.0  0.13485  0.54940  0.07090  1.0000
  H   H19       1.0  0.90547  0.36252  0.17465  1.0000
  H   H20       1.0  0.09453  0.63748  0.82536  1.0000
  H   H21       1.0  0.11821  0.51651  0.36428  1.0000
  H   H22       1.0  0.88179  0.48349  0.63572  1.0000
  H   H23       1.0  0.86037  0.51209  0.39586  1.0000
  H   H24       1.0  0.13963  0.48791  0.60414  1.0000
  C   C1        1.0  0.36606  0.78476  0.38488  1.0000
  C   C2        1.0  0.63394  0.21524  0.61512  1.0000
  C   C3        1.0  0.44956  0.67766  0.32920  1.0000
  C   C4        1.0  0.55045  0.32234  0.67080  1.0000
  C   C5        1.0  0.44569  0.70554  0.19522  1.0000
  C   C6        1.0  0.55432  0.29446  0.80478  1.0000
  C   C7        1.0  0.35580  0.84278  0.11554  1.0000
  C   C8        1.0  0.64420  0.15722  0.88446  1.0000
  C   C9        1.0  0.26801  0.94245  0.18018  1.0000
  C   C10       1.0  0.73199  0.05755  0.81982  1.0000
  C   C11       1.0  0.16636  0.08103  0.10653  1.0000
  C   C12       1.0  0.83363  0.91897  0.89347  1.0000
  C   C13       1.0  0.15902  0.12125  0.96824  1.0000
  C   C14       1.0  0.84098  0.87875  0.03176  1.0000
  C   C15       1.0  0.25734  0.02038  0.90421  1.0000
  C   C16       1.0  0.74266  0.97962  0.09579  1.0000
  C   C17       1.0  0.35116  0.88645  0.97495  1.0000
  C   C18       1.0  0.64884  0.11355  0.02505  1.0000
  C   C19       1.0  0.05217  0.25922  0.90284  1.0000
  C   C20       1.0  0.94782  0.74078  0.09716  1.0000
  C   C21       1.0  0.95689  0.34606  0.97574  1.0000
  C   C22       1.0  0.04310  0.65394  0.02426  1.0000
  C   C23       1.0  0.97489  0.29772  0.11309  1.0000
  C   C24       1.0  0.02510  0.70228  0.88691  1.0000
  C   C25       1.0  0.06161  0.31460  0.47708  1.0000
  C   C26       1.0  0.93840  0.68540  0.52292  1.0000
  C   C27       1.0  0.00485  0.47419  0.44233  1.0000
  C   C28       1.0  0.99515  0.52581  0.55767  1.0000
  N   N1        1.0  0.27583  0.91368  0.31188  1.0000
  N   N2        1.0  0.72417  0.08632  0.68812  1.0000
  N   N3        1.0  0.07885  0.16916  0.17575  1.0000
  N   N4        1.0  0.92115  0.83084  0.82425  1.0000
  N   N5        1.0  0.48087  0.29961  0.25972  1.0000
  N   N6        1.0  0.51913  0.70039  0.74028  1.0000
  O   O1        1.0  0.18982  0.99559  0.55741  1.0000
  O   O2        1.0  0.81018  0.00441  0.44259  1.0000
  O   O3        1.0  0.04009  0.27188  0.38346  1.0000
  O   O4        1.0  0.95991  0.72812  0.61654  1.0000
  O   O5        1.0  0.12527  0.23598  0.58858  1.0000
  O   O6        1.0  0.87473  0.76402  0.41141  1.0000
  O   O7        1.0  0.49250  0.16438  0.31437  1.0000
  O   O8        1.0  0.50750  0.83562  0.68563  1.0000
  O   O9        1.0  0.55100  0.36350  0.31608  1.0000
  O   O10       1.0  0.44900  0.63650  0.68392  1.0000
  O   O11       1.0  0.40118  0.36268  0.15172  1.0000
  O   O12       1.0  0.59882  0.63732  0.84828  1.0000
