data_image0
_chemical_formula_structural       Cu2H20C12N28Cl4
_chemical_formula_sum              "Cu2 H20 C12 N28 Cl4"
_cell_length_a       6.60867
_cell_length_b       7.074
_cell_length_c       15.7213
_cell_angle_alpha    91.6567
_cell_angle_beta     90.0004
_cell_angle_gamma    89.9993

_space_group_name_H-M_alt    "P 1"
_space_group_IT_number       1

loop_
  _space_group_symop_operation_xyz
  'x, y, z'

loop_
  _atom_site_type_symbol
  _atom_site_label
  _atom_site_symmetry_multiplicity
  _atom_site_fract_x
  _atom_site_fract_y
  _atom_site_fract_z
  _atom_site_occupancy
  Cu  Cu1       1.0  0.50000  0.50000  1.00000  1.0000
  Cu  Cu2       1.0  1.00000  0.00000  1.00000  1.0000
  H   H1        1.0  0.96598  0.53062  0.07788  1.0000
  H   H2        1.0  0.53402  0.03061  0.07788  1.0000
  H   H3        1.0  0.03403  0.46939  0.92212  1.0000
  H   H4        1.0  0.46597  0.96939  0.92212  1.0000
  H   H5        1.0  0.19024  0.49208  0.20985  1.0000
  H   H6        1.0  0.30976  0.99208  0.20985  1.0000
  H   H7        1.0  0.80976  0.50792  0.79015  1.0000
  H   H8        1.0  0.69024  0.00792  0.79015  1.0000
  H   H9        1.0  0.09040  0.29751  0.26526  1.0000
  H   H10       1.0  0.40961  0.79751  0.26525  1.0000
  H   H11       1.0  0.90960  0.70249  0.73474  1.0000
  H   H12       1.0  0.59039  0.20249  0.73475  1.0000
  H   H13       1.0  0.93267  0.52117  0.37419  1.0000
  H   H14       1.0  0.56734  0.02116  0.37419  1.0000
  H   H15       1.0  0.06733  0.47883  0.62581  1.0000
  H   H16       1.0  0.43266  0.97884  0.62581  1.0000
  H   H17       1.0  0.04035  0.71696  0.32174  1.0000
  H   H18       1.0  0.45965  0.21696  0.32174  1.0000
  H   H19       1.0  0.95965  0.28304  0.67826  1.0000
  H   H20       1.0  0.54035  0.78304  0.67826  1.0000
  C   C1        1.0  0.84724  0.49989  0.12312  1.0000
  C   C2        1.0  0.65276  0.99989  0.12312  1.0000
  C   C3        1.0  0.15276  0.50011  0.87688  1.0000
  C   C4        1.0  0.34724  0.00011  0.87688  1.0000
  C   C5        1.0  0.06788  0.44769  0.25195  1.0000
  C   C6        1.0  0.43213  0.94770  0.25195  1.0000
  C   C7        1.0  0.93212  0.55231  0.74805  1.0000
  C   C8        1.0  0.56787  0.05230  0.74805  1.0000
  C   C9        1.0  0.05988  0.56608  0.33452  1.0000
  C   C10       1.0  0.44012  0.06608  0.33451  1.0000
  C   C11       1.0  0.94013  0.43392  0.66549  1.0000
  C   C12       1.0  0.55987  0.93393  0.66549  1.0000
  N   N1        1.0  0.87830  0.46488  0.20544  1.0000
  N   N2        1.0  0.62170  0.96488  0.20544  1.0000
  N   N3        1.0  0.12170  0.53513  0.79456  1.0000
  N   N4        1.0  0.37830  0.03512  0.79456  1.0000
  N   N5        1.0  0.69676  0.43655  0.24360  1.0000
  N   N6        1.0  0.80324  0.93656  0.24360  1.0000
  N   N7        1.0  0.30324  0.56345  0.75639  1.0000
  N   N8        1.0  0.19675  0.06344  0.75640  1.0000
  N   N9        1.0  0.55909  0.45481  0.18569  1.0000
  N   N10       1.0  0.94091  0.95481  0.18569  1.0000
  N   N11       1.0  0.44091  0.54519  0.81431  1.0000
  N   N12       1.0  0.05909  0.04519  0.81431  1.0000
  N   N13       1.0  0.64851  0.49335  0.11012  1.0000
  N   N14       1.0  0.85149  0.99335  0.11012  1.0000
  N   N15       1.0  0.35150  0.50666  0.88988  1.0000
  N   N16       1.0  0.14850  0.00665  0.88988  1.0000
  N   N17       1.0  0.25411  0.53468  0.37819  1.0000
  N   N18       1.0  0.24589  0.03468  0.37819  1.0000
  N   N19       1.0  0.74589  0.46532  0.62181  1.0000
  N   N20       1.0  0.75411  0.96533  0.62181  1.0000
  N   N21       1.0  0.27705  0.61076  0.44857  1.0000
  N   N22       1.0  0.22295  0.11076  0.44857  1.0000
  N   N23       1.0  0.72295  0.38924  0.55142  1.0000
  N   N24       1.0  0.77705  0.88925  0.55143  1.0000
  N   N25       1.0  0.31817  0.67259  0.51490  1.0000
  N   N26       1.0  0.18184  0.17258  0.51490  1.0000
  N   N27       1.0  0.68183  0.32742  0.48510  1.0000
  N   N28       1.0  0.81817  0.82743  0.48510  1.0000
  Cl  Cl1       1.0  0.72292  0.27902  0.94235  1.0000
  Cl  Cl2       1.0  0.77709  0.77902  0.94235  1.0000
  Cl  Cl3       1.0  0.27709  0.72098  0.05765  1.0000
  Cl  Cl4       1.0  0.22291  0.22099  0.05765  1.0000
