data_image0
_chemical_formula_structural       Zn8H28C44N12O28
_chemical_formula_sum              "Zn8 H28 C44 N12 O28"
_cell_length_a       8.75645
_cell_length_b       9.75369
_cell_length_c       15.3399
_cell_angle_alpha    89.9999
_cell_angle_beta     94.8964
_cell_angle_gamma    89.9999

_space_group_name_H-M_alt    "P 1"
_space_group_IT_number       1

loop_
  _space_group_symop_operation_xyz
  'x, y, z'

loop_
  _atom_site_type_symbol
  _atom_site_label
  _atom_site_symmetry_multiplicity
  _atom_site_fract_x
  _atom_site_fract_y
  _atom_site_fract_z
  _atom_site_occupancy
  Zn  Zn1       1.0  0.44485  0.97915  0.14091  1.0000
  Zn  Zn2       1.0  0.55515  0.47915  0.35909  1.0000
  Zn  Zn3       1.0  0.55515  0.02085  0.85909  1.0000
  Zn  Zn4       1.0  0.44485  0.52085  0.64091  1.0000
  Zn  Zn5       1.0  0.08221  0.07146  0.20395  1.0000
  Zn  Zn6       1.0  0.91779  0.57146  0.29605  1.0000
  Zn  Zn7       1.0  0.91779  0.92854  0.79605  1.0000
  Zn  Zn8       1.0  0.08221  0.42854  0.70395  1.0000
  H   H1        1.0  0.04273  0.16247  0.03274  1.0000
  H   H2        1.0  0.95727  0.66247  0.46726  1.0000
  H   H3        1.0  0.95727  0.83753  0.96726  1.0000
  H   H4        1.0  0.04273  0.33753  0.53274  1.0000
  H   H5        1.0  0.03077  0.28460  0.10753  1.0000
  H   H6        1.0  0.96923  0.78460  0.39247  1.0000
  H   H7        1.0  0.96923  0.71540  0.89247  1.0000
  H   H8        1.0  0.03077  0.21540  0.60753  1.0000
  H   H9        1.0  0.58461  0.17267  0.61059  1.0000
  H   H10       1.0  0.41539  0.67267  0.88941  1.0000
  H   H11       1.0  0.41539  0.82733  0.38941  1.0000
  H   H12       1.0  0.58461  0.32733  0.11059  1.0000
  H   H13       1.0  0.62883  0.92831  0.57260  1.0000
  H   H14       1.0  0.37117  0.42832  0.92740  1.0000
  H   H15       1.0  0.37117  0.07168  0.42740  1.0000
  H   H16       1.0  0.62883  0.57169  0.07260  1.0000
  H   H17       1.0  0.78228  0.87282  0.44851  1.0000
  H   H18       1.0  0.21772  0.37282  0.05149  1.0000
  H   H19       1.0  0.21772  0.12718  0.55149  1.0000
  H   H20       1.0  0.78228  0.62718  0.94851  1.0000
  H   H21       1.0  0.64107  0.20856  0.25152  1.0000
  H   H22       1.0  0.35893  0.70856  0.24848  1.0000
  H   H23       1.0  0.35893  0.79144  0.74848  1.0000
  H   H24       1.0  0.64107  0.29144  0.75152  1.0000
  H   H25       1.0  0.21912  0.32976  0.34164  1.0000
  H   H26       1.0  0.78088  0.82977  0.15836  1.0000
  H   H27       1.0  0.78088  0.67024  0.65836  1.0000
  H   H28       1.0  0.21912  0.17024  0.84164  1.0000
  C   C1        1.0  0.82402  0.08394  0.41677  1.0000
  C   C2        1.0  0.17597  0.58394  0.08323  1.0000
  C   C3        1.0  0.17597  0.91606  0.58323  1.0000
  C   C4        1.0  0.82403  0.41606  0.91677  1.0000
  C   C5        1.0  0.79665  0.22255  0.43709  1.0000
  C   C6        1.0  0.20335  0.72255  0.06291  1.0000
  C   C7        1.0  0.20335  0.77745  0.56291  1.0000
  C   C8        1.0  0.79665  0.27745  0.93709  1.0000
  C   C9        1.0  0.70869  0.25333  0.50759  1.0000
  C   C10       1.0  0.29131  0.75333  0.99241  1.0000
  C   C11       1.0  0.29131  0.74667  0.49241  1.0000
  C   C12       1.0  0.70869  0.24667  0.00759  1.0000
  C   C13       1.0  0.65112  0.14636  0.55623  1.0000
  C   C14       1.0  0.34887  0.64636  0.94377  1.0000
  C   C15       1.0  0.34888  0.85364  0.44377  1.0000
  C   C16       1.0  0.65113  0.35364  0.05623  1.0000
  C   C17       1.0  0.67655  0.01024  0.53522  1.0000
  C   C18       1.0  0.32345  0.51024  0.96478  1.0000
  C   C19       1.0  0.32345  0.98975  0.46478  1.0000
  C   C20       1.0  0.67655  0.48976  0.03522  1.0000
  C   C21       1.0  0.76255  0.97931  0.46578  1.0000
  C   C22       1.0  0.23745  0.47931  0.03422  1.0000
  C   C23       1.0  0.23745  0.02069  0.53422  1.0000
  C   C24       1.0  0.76255  0.52069  0.96578  1.0000
  C   C25       1.0  0.91851  0.04364  0.34383  1.0000
  C   C26       1.0  0.08149  0.54364  0.15617  1.0000
  C   C27       1.0  0.08149  0.95636  0.65617  1.0000
  C   C28       1.0  0.91851  0.45636  0.84383  1.0000
  C   C29       1.0  0.87756  0.33703  0.39301  1.0000
  C   C30       1.0  0.12243  0.83703  0.10699  1.0000
  C   C31       1.0  0.12243  0.66298  0.60699  1.0000
  C   C32       1.0  0.87757  0.16297  0.89301  1.0000
  C   C33       1.0  0.66986  0.39702  0.53380  1.0000
  C   C34       1.0  0.33014  0.89702  0.96620  1.0000
  C   C35       1.0  0.33014  0.60298  0.46620  1.0000
  C   C36       1.0  0.66986  0.10298  0.03380  1.0000
  C   C37       1.0  0.52068  0.21301  0.26341  1.0000
  C   C38       1.0  0.47932  0.71301  0.23659  1.0000
  C   C39       1.0  0.47932  0.78699  0.73659  1.0000
  C   C40       1.0  0.52069  0.28699  0.76341  1.0000
  C   C41       1.0  0.30559  0.27484  0.30862  1.0000
  C   C42       1.0  0.69441  0.77484  0.19138  1.0000
  C   C43       1.0  0.69441  0.72516  0.69138  1.0000
  C   C44       1.0  0.30559  0.22516  0.80862  1.0000
  N   N1        1.0  0.27768  0.16492  0.25858  1.0000
  N   N2        1.0  0.72232  0.66492  0.24142  1.0000
  N   N3        1.0  0.72232  0.83508  0.74142  1.0000
  N   N4        1.0  0.27768  0.33508  0.75858  1.0000
  N   N5        1.0  0.41476  0.12591  0.22942  1.0000
  N   N6        1.0  0.58524  0.62591  0.27058  1.0000
  N   N7        1.0  0.58524  0.87409  0.77058  1.0000
  N   N8        1.0  0.41476  0.37409  0.72942  1.0000
  N   N9        1.0  0.45679  0.30782  0.31339  1.0000
  N   N10       1.0  0.54321  0.80782  0.18661  1.0000
  N   N11       1.0  0.54321  0.69218  0.68661  1.0000
  N   N12       1.0  0.45679  0.19218  0.81339  1.0000
  O   O1        1.0  0.92757  0.13208  0.28174  1.0000
  O   O2        1.0  0.07243  0.63207  0.21826  1.0000
  O   O3        1.0  0.07243  0.86793  0.71826  1.0000
  O   O4        1.0  0.92757  0.36793  0.78174  1.0000
  O   O5        1.0  0.98494  0.92923  0.34363  1.0000
  O   O6        1.0  0.01506  0.42923  0.15637  1.0000
  O   O7        1.0  0.01506  0.07077  0.65637  1.0000
  O   O8        1.0  0.98494  0.57077  0.84363  1.0000
  O   O9        1.0  0.80393  0.40339  0.32953  1.0000
  O   O10       1.0  0.19607  0.90339  0.17047  1.0000
  O   O11       1.0  0.19607  0.59661  0.67047  1.0000
  O   O12       1.0  0.80393  0.09662  0.82953  1.0000
  O   O13       1.0  0.01139  0.36664  0.42269  1.0000
  O   O14       1.0  0.98861  0.86664  0.07731  1.0000
  O   O15       1.0  0.98861  0.63336  0.57731  1.0000
  O   O16       1.0  0.01139  0.13335  0.92270  1.0000
  O   O17       1.0  0.65976  0.49391  0.47715  1.0000
  O   O18       1.0  0.34024  0.99391  0.02285  1.0000
  O   O19       1.0  0.34024  0.50609  0.52285  1.0000
  O   O20       1.0  0.65976  0.00609  0.97715  1.0000
  O   O21       1.0  0.64338  0.41578  0.61285  1.0000
  O   O22       1.0  0.35662  0.91579  0.88715  1.0000
  O   O23       1.0  0.35662  0.58421  0.38715  1.0000
  O   O24       1.0  0.64338  0.08421  0.11285  1.0000
  O   O25       1.0  0.05495  0.18577  0.09623  1.0000
  O   O26       1.0  0.94506  0.68577  0.40377  1.0000
  O   O27       1.0  0.94505  0.81423  0.90377  1.0000
  O   O28       1.0  0.05495  0.31423  0.59623  1.0000
