data_image0
_chemical_formula_structural       Cu2H16C20N20
_chemical_formula_sum              "Cu2 H16 C20 N20"
_cell_length_a       7.45364
_cell_length_b       9.27498
_cell_length_c       9.65945
_cell_angle_alpha    102.522
_cell_angle_beta     90.0005
_cell_angle_gamma    89.9999

_space_group_name_H-M_alt    "P 1"
_space_group_IT_number       1

loop_
  _space_group_symop_operation_xyz
  'x, y, z'

loop_
  _atom_site_type_symbol
  _atom_site_label
  _atom_site_symmetry_multiplicity
  _atom_site_fract_x
  _atom_site_fract_y
  _atom_site_fract_z
  _atom_site_occupancy
  Cu  Cu1       1.0  1.00000  0.50000  0.50000  1.0000
  Cu  Cu2       1.0  0.50000  0.50000  1.00000  1.0000
  H   H1        1.0  0.72656  0.99292  0.48572  1.0000
  H   H2        1.0  0.22656  0.00708  0.01429  1.0000
  H   H3        1.0  0.27344  0.00708  0.51428  1.0000
  H   H4        1.0  0.77344  0.99292  0.98572  1.0000
  H   H5        1.0  0.77571  0.25891  0.63360  1.0000
  H   H6        1.0  0.27571  0.74109  0.86640  1.0000
  H   H7        1.0  0.22429  0.74109  0.36640  1.0000
  H   H8        1.0  0.72429  0.25892  0.13360  1.0000
  H   H9        1.0  0.87648  0.95731  0.24516  1.0000
  H   H10       1.0  0.37649  0.04269  0.25485  1.0000
  H   H11       1.0  0.12351  0.04269  0.75485  1.0000
  H   H12       1.0  0.62352  0.95731  0.74516  1.0000
  H   H13       1.0  0.03297  0.22628  0.23727  1.0000
  H   H14       1.0  0.53297  0.77371  0.26273  1.0000
  H   H15       1.0  0.96703  0.77371  0.76273  1.0000
  H   H16       1.0  0.46703  0.22628  0.73727  1.0000
  C   C1        1.0  0.82641  0.21551  0.52772  1.0000
  C   C2        1.0  0.32642  0.78450  0.97228  1.0000
  C   C3        1.0  0.17359  0.78449  0.47228  1.0000
  C   C4        1.0  0.67358  0.21551  0.02772  1.0000
  C   C5        1.0  0.88057  0.05973  0.32416  1.0000
  C   C6        1.0  0.38058  0.94027  0.17585  1.0000
  C   C7        1.0  0.11942  0.94027  0.67585  1.0000
  C   C8        1.0  0.61942  0.05973  0.82416  1.0000
  C   C9        1.0  0.95714  0.19380  0.32124  1.0000
  C   C10       1.0  0.45714  0.80619  0.17876  1.0000
  C   C11       1.0  0.04286  0.80619  0.67876  1.0000
  C   C12       1.0  0.54286  0.19380  0.82124  1.0000
  C   C13       1.0  0.89999  0.56245  0.20677  1.0000
  C   C14       1.0  0.39999  0.43754  0.29322  1.0000
  C   C15       1.0  0.10001  0.43754  0.79322  1.0000
  C   C16       1.0  0.60001  0.56246  0.70678  1.0000
  C   C17       1.0  0.86111  0.71359  0.04849  1.0000
  C   C18       1.0  0.36111  0.28641  0.45150  1.0000
  C   C19       1.0  0.13888  0.28641  0.95151  1.0000
  C   C20       1.0  0.63889  0.71360  0.54850  1.0000
  N   N1        1.0  0.92192  0.28990  0.44907  1.0000
  N   N2        1.0  0.42192  0.71009  0.05093  1.0000
  N   N3        1.0  0.07808  0.71009  0.55093  1.0000
  N   N4        1.0  0.57808  0.28991  0.94907  1.0000
  N   N5        1.0  0.79904  0.07605  0.45438  1.0000
  N   N6        1.0  0.29905  0.92395  0.04562  1.0000
  N   N7        1.0  0.20096  0.92395  0.54562  1.0000
  N   N8        1.0  0.70096  0.07605  0.95438  1.0000
  N   N9        1.0  0.95623  0.51864  0.30406  1.0000
  N   N10       1.0  0.45623  0.48135  0.19594  1.0000
  N   N11       1.0  0.04377  0.48135  0.69594  1.0000
  N   N12       1.0  0.54377  0.51865  0.80406  1.0000
  N   N13       1.0  0.83174  0.59416  0.09454  1.0000
  N   N14       1.0  0.33174  0.40583  0.40546  1.0000
  N   N15       1.0  0.16825  0.40584  0.90546  1.0000
  N   N16       1.0  0.66826  0.59417  0.59455  1.0000
  N   N17       1.0  0.87557  0.81785  0.99782  1.0000
  N   N18       1.0  0.37557  0.18215  0.50217  1.0000
  N   N19       1.0  0.12443  0.18215  0.00218  1.0000
  N   N20       1.0  0.62443  0.81786  0.49783  1.0000
