data_image0
_chemical_formula_structural       Cd8H36C44N12O32
_chemical_formula_sum              "Cd8 H36 C44 N12 O32"
_cell_length_a       6.89121
_cell_length_b       10.4077
_cell_length_c       22.1174
_cell_angle_alpha    89.9999
_cell_angle_beta     90.0003
_cell_angle_gamma    90

_space_group_name_H-M_alt    "P 1"
_space_group_IT_number       1

loop_
  _space_group_symop_operation_xyz
  'x, y, z'

loop_
  _atom_site_type_symbol
  _atom_site_label
  _atom_site_symmetry_multiplicity
  _atom_site_fract_x
  _atom_site_fract_y
  _atom_site_fract_z
  _atom_site_occupancy
  Cd  Cd1       1.0  0.88852  0.39894  0.91513  1.0000
  Cd  Cd2       1.0  0.38853  0.60106  0.58487  1.0000
  Cd  Cd3       1.0  0.11147  0.10106  0.41513  1.0000
  Cd  Cd4       1.0  0.61148  0.89894  0.08487  1.0000
  Cd  Cd5       1.0  0.57633  0.62729  0.83213  1.0000
  Cd  Cd6       1.0  0.07632  0.37271  0.66788  1.0000
  Cd  Cd7       1.0  0.42367  0.87271  0.33212  1.0000
  Cd  Cd8       1.0  0.92367  0.12729  0.16788  1.0000
  H   H1        1.0  0.15142  0.56000  0.99694  1.0000
  H   H2        1.0  0.65143  0.44001  0.50306  1.0000
  H   H3        1.0  0.84857  0.94001  0.49694  1.0000
  H   H4        1.0  0.34857  0.05999  0.00306  1.0000
  H   H5        1.0  0.23327  0.52694  0.93315  1.0000
  H   H6        1.0  0.73327  0.47307  0.56685  1.0000
  H   H7        1.0  0.76672  0.97307  0.43315  1.0000
  H   H8        1.0  0.26672  0.02693  0.06685  1.0000
  H   H9        1.0  0.21161  0.40211  0.84652  1.0000
  H   H10       1.0  0.71161  0.59789  0.65348  1.0000
  H   H11       1.0  0.78839  0.09789  0.34652  1.0000
  H   H12       1.0  0.28838  0.90211  0.15348  1.0000
  H   H13       1.0  0.11077  0.28159  0.81639  1.0000
  H   H14       1.0  0.61076  0.71841  0.68361  1.0000
  H   H15       1.0  0.88923  0.21841  0.31639  1.0000
  H   H16       1.0  0.38923  0.78159  0.18361  1.0000
  H   H17       1.0  0.69131  0.07689  0.93853  1.0000
  H   H18       1.0  0.19130  0.92311  0.56147  1.0000
  H   H19       1.0  0.30869  0.42311  0.43853  1.0000
  H   H20       1.0  0.80869  0.57689  0.06148  1.0000
  H   H21       1.0  0.04703  0.30701  0.04868  1.0000
  H   H22       1.0  0.54703  0.69299  0.45132  1.0000
  H   H23       1.0  0.95297  0.19300  0.54868  1.0000
  H   H24       1.0  0.45297  0.80701  0.95132  1.0000
  H   H25       1.0  0.08915  0.89582  0.66440  1.0000
  H   H26       1.0  0.58916  0.10419  0.83561  1.0000
  H   H27       1.0  0.91086  0.60419  0.16440  1.0000
  H   H28       1.0  0.41084  0.39582  0.33560  1.0000
  H   H29       1.0  0.03516  0.07871  0.83788  1.0000
  H   H30       1.0  0.53517  0.92128  0.66212  1.0000
  H   H31       1.0  0.96483  0.42128  0.33788  1.0000
  H   H32       1.0  0.46484  0.57871  0.16212  1.0000
  H   H33       1.0  0.04224  0.86566  0.88756  1.0000
  H   H34       1.0  0.54225  0.13434  0.61244  1.0000
  H   H35       1.0  0.95775  0.63434  0.38756  1.0000
  H   H36       1.0  0.45776  0.36566  0.11244  1.0000
  C   C1        1.0  0.77369  0.11351  0.97674  1.0000
  C   C2        1.0  0.27369  0.88649  0.52326  1.0000
  C   C3        1.0  0.22631  0.38649  0.47674  1.0000
  C   C4        1.0  0.72631  0.61351  0.02326  1.0000
  C   C5        1.0  0.95587  0.22970  0.03203  1.0000
  C   C6        1.0  0.45587  0.77030  0.46797  1.0000
  C   C7        1.0  0.04412  0.27030  0.53203  1.0000
  C   C8        1.0  0.54412  0.72970  0.96797  1.0000
  C   C9        1.0  0.07429  0.76013  0.80402  1.0000
  C   C10       1.0  0.57429  0.23987  0.69598  1.0000
  C   C11       1.0  0.92572  0.73987  0.30402  1.0000
  C   C12       1.0  0.42571  0.26013  0.19598  1.0000
  C   C13       1.0  0.08775  0.76903  0.74071  1.0000
  C   C14       1.0  0.58775  0.23097  0.75929  1.0000
  C   C15       1.0  0.91225  0.73097  0.24071  1.0000
  C   C16       1.0  0.41226  0.26903  0.25929  1.0000
  C   C17       1.0  0.08052  0.88956  0.71334  1.0000
  C   C18       1.0  0.58053  0.11044  0.78666  1.0000
  C   C19       1.0  0.91948  0.61044  0.21334  1.0000
  C   C20       1.0  0.41948  0.38956  0.28665  1.0000
  C   C21       1.0  0.06266  0.00153  0.74753  1.0000
  C   C22       1.0  0.56267  0.99846  0.75247  1.0000
  C   C23       1.0  0.93734  0.49847  0.24753  1.0000
  C   C24       1.0  0.43734  0.50153  0.25247  1.0000
  C   C25       1.0  0.04985  0.99219  0.81061  1.0000
  C   C26       1.0  0.54986  0.00780  0.68940  1.0000
  C   C27       1.0  0.95014  0.50781  0.31061  1.0000
  C   C28       1.0  0.45015  0.49219  0.18939  1.0000
  C   C29       1.0  0.05447  0.87234  0.83848  1.0000
  C   C30       1.0  0.55447  0.12766  0.66152  1.0000
  C   C31       1.0  0.94553  0.62766  0.33848  1.0000
  C   C32       1.0  0.44553  0.37234  0.16152  1.0000
  C   C33       1.0  0.07849  0.63413  0.83717  1.0000
  C   C34       1.0  0.57849  0.36587  0.66283  1.0000
  C   C35       1.0  0.92151  0.86587  0.33717  1.0000
  C   C36       1.0  0.42150  0.13413  0.16283  1.0000
  C   C37       1.0  0.10744  0.65203  0.70192  1.0000
  C   C38       1.0  0.60744  0.34797  0.79808  1.0000
  C   C39       1.0  0.89257  0.84797  0.20192  1.0000
  C   C40       1.0  0.39256  0.15203  0.29808  1.0000
  C   C41       1.0  0.06083  0.12774  0.71561  1.0000
  C   C42       1.0  0.56084  0.87226  0.78439  1.0000
  C   C43       1.0  0.93916  0.37226  0.21561  1.0000
  C   C44       1.0  0.43916  0.62774  0.28439  1.0000
  N   N1        1.0  0.90427  0.12907  0.06537  1.0000
  N   N2        1.0  0.40427  0.87093  0.43463  1.0000
  N   N3        1.0  0.09573  0.37093  0.56537  1.0000
  N   N4        1.0  0.59573  0.62907  0.93463  1.0000
  N   N5        1.0  0.78696  0.05386  0.03006  1.0000
  N   N6        1.0  0.28696  0.94614  0.46994  1.0000
  N   N7        1.0  0.21304  0.44614  0.53006  1.0000
  N   N8        1.0  0.71303  0.55386  0.96994  1.0000
  N   N9        1.0  0.87772  0.22426  0.97600  1.0000
  N   N10       1.0  0.37772  0.77574  0.52400  1.0000
  N   N11       1.0  0.12227  0.27574  0.47600  1.0000
  N   N12       1.0  0.62228  0.72426  0.02400  1.0000
  O   O1        1.0  0.91650  0.58558  0.85243  1.0000
  O   O2        1.0  0.41650  0.41441  0.64757  1.0000
  O   O3        1.0  0.08350  0.91442  0.35243  1.0000
  O   O4        1.0  0.58350  0.08558  0.14757  1.0000
  O   O5        1.0  0.24088  0.58678  0.85417  1.0000
  O   O6        1.0  0.74088  0.41322  0.64583  1.0000
  O   O7        1.0  0.75912  0.91322  0.35416  1.0000
  O   O8        1.0  0.25912  0.08678  0.14583  1.0000
  O   O9        1.0  0.08237  0.54401  0.72815  1.0000
  O   O10       1.0  0.58238  0.45599  0.77184  1.0000
  O   O11       1.0  0.91764  0.95600  0.22816  1.0000
  O   O12       1.0  0.41763  0.04401  0.27184  1.0000
  O   O13       1.0  0.14260  0.66723  0.64592  1.0000
  O   O14       1.0  0.64259  0.33278  0.85408  1.0000
  O   O15       1.0  0.85741  0.83278  0.14592  1.0000
  O   O16       1.0  0.35740  0.16722  0.35408  1.0000
  O   O17       1.0  0.05602  0.13197  0.65858  1.0000
  O   O18       1.0  0.55604  0.86803  0.84143  1.0000
  O   O19       1.0  0.94397  0.36804  0.15857  1.0000
  O   O20       1.0  0.44398  0.63197  0.34142  1.0000
  O   O21       1.0  0.06627  0.23211  0.74754  1.0000
  O   O22       1.0  0.56627  0.76789  0.75246  1.0000
  O   O23       1.0  0.93372  0.26789  0.24754  1.0000
  O   O24       1.0  0.43373  0.73211  0.25246  1.0000
  O   O25       1.0  0.17720  0.48779  0.97014  1.0000
  O   O26       1.0  0.67721  0.51222  0.52987  1.0000
  O   O27       1.0  0.82279  0.01222  0.47013  1.0000
  O   O28       1.0  0.32279  0.98778  0.02987  1.0000
  O   O29       1.0  0.14390  0.32158  0.85638  1.0000
  O   O30       1.0  0.64390  0.67842  0.64362  1.0000
  O   O31       1.0  0.85610  0.17842  0.35638  1.0000
  O   O32       1.0  0.35610  0.82158  0.14361  1.0000
