data_image0
_chemical_formula_structural       ZnH22C12N4O8
_chemical_formula_sum              "Zn1 H22 C12 N4 O8"
_cell_length_a       7.89006
_cell_length_b       8.51797
_cell_length_c       8.51805
_cell_angle_alpha    95.8543
_cell_angle_beta     112.795
_cell_angle_gamma    112.795

_space_group_name_H-M_alt    "P 1"
_space_group_IT_number       1

loop_
  _space_group_symop_operation_xyz
  'x, y, z'

loop_
  _atom_site_type_symbol
  _atom_site_label
  _atom_site_symmetry_multiplicity
  _atom_site_fract_x
  _atom_site_fract_y
  _atom_site_fract_z
  _atom_site_occupancy
  Zn  Zn1       1.0  0.50000  0.34788  0.65213  1.0000
  H   H1        1.0  0.02880  0.31280  0.47892  1.0000
  H   H2        1.0  0.97120  0.52108  0.68719  1.0000
  H   H3        1.0  0.42411  0.07367  0.43037  1.0000
  H   H4        1.0  0.57589  0.56963  0.92633  1.0000
  H   H5        1.0  0.67024  0.21378  0.50018  1.0000
  H   H6        1.0  0.32977  0.49982  0.78622  1.0000
  H   H7        1.0  0.83851  0.99793  0.94673  1.0000
  H   H8        1.0  0.16149  0.05328  0.00207  1.0000
  H   H9        1.0  0.73421  0.01640  0.64232  1.0000
  H   H10       1.0  0.26580  0.35768  0.98360  1.0000
  H   H11       1.0  0.49628  0.94128  0.65168  1.0000
  H   H12       1.0  0.50374  0.34833  0.05872  1.0000
  H   H13       1.0  0.95267  0.35005  0.17947  1.0000
  H   H14       1.0  0.04732  0.82053  0.64995  1.0000
  H   H15       1.0  0.64509  0.11185  0.17351  1.0000
  H   H16       1.0  0.35490  0.82649  0.88815  1.0000
  H   H17       1.0  0.94029  0.96378  0.37025  1.0000
  H   H18       1.0  0.05970  0.62973  0.03621  1.0000
  H   H19       1.0  0.73117  0.85614  0.14875  1.0000
  H   H20       1.0  0.26882  0.85123  0.14385  1.0000
  H   H21       1.0  0.67952  0.88781  0.33198  1.0000
  H   H22       1.0  0.32047  0.66800  0.11218  1.0000
  C   C1        1.0  0.74253  0.17940  0.85926  1.0000
  C   C2        1.0  0.25747  0.14074  0.82060  1.0000
  C   C3        1.0  0.63038  0.06086  0.66647  1.0000
  C   C4        1.0  0.36963  0.33354  0.93915  1.0000
  C   C5        1.0  0.93932  0.21592  0.17162  1.0000
  C   C6        1.0  0.06068  0.82838  0.78408  1.0000
  C   C7        1.0  0.80110  0.12844  0.25959  1.0000
  C   C8        1.0  0.19889  0.74040  0.87156  1.0000
  C   C9        1.0  0.15690  0.23547  0.28093  1.0000
  C   C10       1.0  0.84310  0.71908  0.76453  1.0000
  C   C11       1.0  0.78743  0.94821  0.27861  1.0000
  C   C12       1.0  0.21256  0.72138  0.05178  1.0000
  N   N1        1.0  0.56079  0.15602  0.54228  1.0000
  N   N2        1.0  0.43921  0.45773  0.84399  1.0000
  N   N3        1.0  0.84284  0.11986  0.98510  1.0000
  N   N4        1.0  0.15717  0.01491  0.88015  1.0000
  O   O1        1.0  0.73664  0.32303  0.89534  1.0000
  O   O2        1.0  0.26337  0.10466  0.67698  1.0000
  O   O3        1.0  0.87551  0.25068  0.42784  1.0000
  O   O4        1.0  0.12449  0.57216  0.74932  1.0000
  O   O5        1.0  0.25058  0.34230  0.43964  1.0000
  O   O6        1.0  0.74942  0.56037  0.65770  1.0000
  O   O7        1.0  0.22583  0.14813  0.21953  1.0000
  O   O8        1.0  0.77418  0.78048  0.85188  1.0000
