data_image0
_chemical_formula_structural       Cu4H20C36N12O16
_chemical_formula_sum              "Cu4 H20 C36 N12 O16"
_cell_length_a       4.76141
_cell_length_b       11.1945
_cell_length_c       20.2017
_cell_angle_alpha    90
_cell_angle_beta     89.9999
_cell_angle_gamma    98.7209

_space_group_name_H-M_alt    "P 1"
_space_group_IT_number       1

loop_
  _space_group_symop_operation_xyz
  'x, y, z'

loop_
  _atom_site_type_symbol
  _atom_site_label
  _atom_site_symmetry_multiplicity
  _atom_site_fract_x
  _atom_site_fract_y
  _atom_site_fract_z
  _atom_site_occupancy
  Cu  Cu1       1.0  0.31414  0.44235  0.65950  1.0000
  Cu  Cu2       1.0  0.68587  0.05765  0.15950  1.0000
  Cu  Cu3       1.0  0.68586  0.55766  0.34050  1.0000
  Cu  Cu4       1.0  0.31414  0.94235  0.84050  1.0000
  H   H1        1.0  0.34690  0.41446  0.91344  1.0000
  H   H2        1.0  0.65309  0.08554  0.41344  1.0000
  H   H3        1.0  0.65310  0.58553  0.08656  1.0000
  H   H4        1.0  0.34689  0.91447  0.58656  1.0000
  H   H5        1.0  0.48939  0.51691  0.80410  1.0000
  H   H6        1.0  0.51061  0.98309  0.30410  1.0000
  H   H7        1.0  0.51061  0.48308  0.19590  1.0000
  H   H8        1.0  0.48939  0.01691  0.69590  1.0000
  H   H9        1.0  0.56716  0.31250  0.55472  1.0000
  H   H10       1.0  0.43286  0.18751  0.05472  1.0000
  H   H11       1.0  0.43285  0.68751  0.44528  1.0000
  H   H12       1.0  0.56715  0.81250  0.94528  1.0000
  H   H13       1.0  0.26877  0.64333  0.56353  1.0000
  H   H14       1.0  0.73123  0.85667  0.06353  1.0000
  H   H15       1.0  0.73124  0.35668  0.43647  1.0000
  H   H16       1.0  0.26877  0.14333  0.93647  1.0000
  H   H17       1.0  0.00579  0.89994  0.43808  1.0000
  H   H18       1.0  0.99419  0.60005  0.93808  1.0000
  H   H19       1.0  0.99419  0.10005  0.56192  1.0000
  H   H20       1.0  0.00582  0.39995  0.06192  1.0000
  C   C1        1.0  0.08501  0.26959  0.75140  1.0000
  C   C2        1.0  0.91499  0.23041  0.25140  1.0000
  C   C3        1.0  0.91498  0.73041  0.24860  1.0000
  C   C4        1.0  0.08503  0.76959  0.74860  1.0000
  C   C5        1.0  0.99512  0.21769  0.81226  1.0000
  C   C6        1.0  0.00488  0.28231  0.31226  1.0000
  C   C7        1.0  0.00488  0.78231  0.18774  1.0000
  C   C8        1.0  0.99513  0.71769  0.68774  1.0000
  C   C9        1.0  0.26668  0.37395  0.86677  1.0000
  C   C10       1.0  0.73331  0.12605  0.36677  1.0000
  C   C11       1.0  0.73332  0.62604  0.13323  1.0000
  C   C12       1.0  0.26668  0.87396  0.63323  1.0000
  C   C13       1.0  0.34729  0.43112  0.80674  1.0000
  C   C14       1.0  0.65270  0.06888  0.30674  1.0000
  C   C15       1.0  0.65270  0.56888  0.19327  1.0000
  C   C16       1.0  0.34730  0.93112  0.69326  1.0000
  C   C17       1.0  0.02382  0.21195  0.68459  1.0000
  C   C18       1.0  0.97619  0.28805  0.18459  1.0000
  C   C19       1.0  0.97616  0.78806  0.31541  1.0000
  C   C20       1.0  0.02384  0.71194  0.81541  1.0000
  C   C21       1.0  0.79637  0.09959  0.82017  1.0000
  C   C22       1.0  0.20363  0.40041  0.32017  1.0000
  C   C23       1.0  0.20362  0.90040  0.17983  1.0000
  C   C24       1.0  0.79637  0.59960  0.67983  1.0000
  C   C25       1.0  0.53771  0.39607  0.52996  1.0000
  C   C26       1.0  0.46230  0.10393  0.02996  1.0000
  C   C27       1.0  0.46230  0.60394  0.47005  1.0000
  C   C28       1.0  0.53770  0.89607  0.97005  1.0000
  C   C29       1.0  0.37323  0.57972  0.53496  1.0000
  C   C30       1.0  0.62677  0.92029  0.03496  1.0000
  C   C31       1.0  0.62678  0.42029  0.46504  1.0000
  C   C32       1.0  0.37322  0.07972  0.96504  1.0000
  C   C33       1.0  0.00226  0.96298  0.47823  1.0000
  C   C34       1.0  0.99773  0.53702  0.97822  1.0000
  C   C35       1.0  0.99773  0.03700  0.52177  1.0000
  C   C36       1.0  0.00227  0.46298  0.02178  1.0000
  N   N1        1.0  0.25637  0.37702  0.75017  1.0000
  N   N2        1.0  0.74363  0.12298  0.25017  1.0000
  N   N3        1.0  0.74362  0.62298  0.24983  1.0000
  N   N4        1.0  0.25638  0.87702  0.74983  1.0000
  N   N5        1.0  0.08918  0.26958  0.86973  1.0000
  N   N6        1.0  0.91080  0.23042  0.36973  1.0000
  N   N7        1.0  0.91082  0.73041  0.13027  1.0000
  N   N8        1.0  0.08918  0.76959  0.63027  1.0000
  N   N9        1.0  0.41208  0.47586  0.56445  1.0000
  N   N10       1.0  0.58793  0.02414  0.06444  1.0000
  N   N11       1.0  0.58793  0.52415  0.43556  1.0000
  N   N12       1.0  0.41207  0.97586  0.93556  1.0000
  O   O1        1.0  0.12963  0.27681  0.63473  1.0000
  O   O2        1.0  0.87038  0.22319  0.13473  1.0000
  O   O3        1.0  0.87034  0.72320  0.36527  1.0000
  O   O4        1.0  0.12965  0.77680  0.86527  1.0000
  O   O5        1.0  0.88989  0.10791  0.67998  1.0000
  O   O6        1.0  0.11012  0.39208  0.17998  1.0000
  O   O7        1.0  0.11008  0.89209  0.32001  1.0000
  O   O8        1.0  0.88993  0.60791  0.82002  1.0000
  O   O9        1.0  0.53111  0.10416  0.81248  1.0000
  O   O10       1.0  0.46889  0.39584  0.31248  1.0000
  O   O11       1.0  0.46889  0.89584  0.18752  1.0000
  O   O12       1.0  0.53111  0.60416  0.68752  1.0000
  O   O13       1.0  0.89435  0.00765  0.83933  1.0000
  O   O14       1.0  0.10565  0.49235  0.33933  1.0000
  O   O15       1.0  0.10564  0.99234  0.16067  1.0000
  O   O16       1.0  0.89435  0.50765  0.66067  1.0000
