data_image0
_chemical_formula_structural       Cd2H52C32S4N8O12
_chemical_formula_sum              "Cd2 H52 C32 S4 N8 O12"
_cell_length_a       8.1132
_cell_length_b       9.41502
_cell_length_c       13.8013
_cell_angle_alpha    90.0004
_cell_angle_beta     89.9276
_cell_angle_gamma    89.9999

_space_group_name_H-M_alt    "P 1"
_space_group_IT_number       1

loop_
  _space_group_symop_operation_xyz
  'x, y, z'

loop_
  _atom_site_type_symbol
  _atom_site_label
  _atom_site_symmetry_multiplicity
  _atom_site_fract_x
  _atom_site_fract_y
  _atom_site_fract_z
  _atom_site_occupancy
  Cd  Cd1       1.0  0.00000  0.00000  0.50000  1.0000
  Cd  Cd2       1.0  0.50000  0.50000  1.00000  1.0000
  H   H1        1.0  0.73083  0.89225  0.38157  1.0000
  H   H2        1.0  0.23083  0.60775  0.88157  1.0000
  H   H3        1.0  0.26917  0.10775  0.61843  1.0000
  H   H4        1.0  0.76918  0.39226  0.11843  1.0000
  H   H5        1.0  0.90161  0.80968  0.34702  1.0000
  H   H6        1.0  0.40161  0.69031  0.84702  1.0000
  H   H7        1.0  0.09839  0.19031  0.65298  1.0000
  H   H8        1.0  0.59839  0.30969  0.15299  1.0000
  H   H9        1.0  0.90339  0.80917  0.64546  1.0000
  H   H10       1.0  0.40339  0.69084  0.14546  1.0000
  H   H11       1.0  0.09661  0.19083  0.35454  1.0000
  H   H12       1.0  0.59661  0.30916  0.85454  1.0000
  H   H13       1.0  0.34900  0.31221  0.37170  1.0000
  H   H14       1.0  0.84900  0.18780  0.87171  1.0000
  H   H15       1.0  0.65099  0.68780  0.62829  1.0000
  H   H16       1.0  0.15100  0.81221  0.12830  1.0000
  H   H17       1.0  0.30480  0.56996  0.34019  1.0000
  H   H18       1.0  0.80482  0.93003  0.84019  1.0000
  H   H19       1.0  0.69518  0.43004  0.65980  1.0000
  H   H20       1.0  0.19520  0.06996  0.15981  1.0000
  H   H21       1.0  0.54213  0.87902  0.52462  1.0000
  H   H22       1.0  0.04213  0.62098  0.02463  1.0000
  H   H23       1.0  0.45787  0.12098  0.47537  1.0000
  H   H24       1.0  0.95787  0.37901  0.97539  1.0000
  H   H25       1.0  0.99411  0.99250  0.25514  1.0000
  H   H26       1.0  0.49410  0.50749  0.75513  1.0000
  H   H27       1.0  0.00590  0.00749  0.74487  1.0000
  H   H28       1.0  0.50590  0.49252  0.24487  1.0000
  H   H29       1.0  0.77959  0.98892  0.22981  1.0000
  H   H30       1.0  0.27958  0.51108  0.72981  1.0000
  H   H31       1.0  0.22041  0.01108  0.77019  1.0000
  H   H32       1.0  0.72042  0.48893  0.27019  1.0000
  H   H33       1.0  0.14415  0.76603  0.73940  1.0000
  H   H34       1.0  0.64415  0.73398  0.23939  1.0000
  H   H35       1.0  0.85586  0.23396  0.26060  1.0000
  H   H36       1.0  0.35585  0.26603  0.76061  1.0000
  H   H37       1.0  0.26493  0.82603  0.63968  1.0000
  H   H38       1.0  0.76493  0.67397  0.13968  1.0000
  H   H39       1.0  0.73508  0.17396  0.36032  1.0000
  H   H40       1.0  0.23507  0.32603  0.86032  1.0000
  H   H41       1.0  0.03134  0.57840  0.62411  1.0000
  H   H42       1.0  0.53133  0.92160  0.12410  1.0000
  H   H43       1.0  0.96866  0.42160  0.37589  1.0000
  H   H44       1.0  0.46866  0.07840  0.87590  1.0000
  H   H45       1.0  0.92313  0.63974  0.51960  1.0000
  H   H46       1.0  0.42312  0.86026  0.01960  1.0000
  H   H47       1.0  0.07687  0.36025  0.48040  1.0000
  H   H48       1.0  0.57687  0.13975  0.98040  1.0000
  H   H49       1.0  0.14198  0.65402  0.52396  1.0000
  H   H50       1.0  0.64198  0.84598  0.02395  1.0000
  H   H51       1.0  0.85802  0.34598  0.47604  1.0000
  H   H52       1.0  0.35802  0.15403  0.97605  1.0000
  C   C1        1.0  0.41968  0.33776  0.43652  1.0000
  C   C2        1.0  0.91969  0.16224  0.93653  1.0000
  C   C3        1.0  0.58029  0.66225  0.56347  1.0000
  C   C4        1.0  0.08033  0.83775  0.06348  1.0000
  C   C5        1.0  0.44970  0.48267  0.45898  1.0000
  C   C6        1.0  0.94972  0.01733  0.95899  1.0000
  C   C7        1.0  0.55027  0.51733  0.54101  1.0000
  C   C8        1.0  0.05029  0.98266  0.04102  1.0000
  C   C9        1.0  0.38422  0.59430  0.40165  1.0000
  C   C10       1.0  0.88423  0.90570  0.90166  1.0000
  C   C11       1.0  0.61576  0.40570  0.59834  1.0000
  C   C12       1.0  0.11578  0.09430  0.09835  1.0000
  C   C13       1.0  0.42044  0.73352  0.42414  1.0000
  C   C14       1.0  0.92046  0.76648  0.92415  1.0000
  C   C15       1.0  0.57954  0.26648  0.57585  1.0000
  C   C16       1.0  0.07955  0.23352  0.07586  1.0000
  C   C17       1.0  0.51746  0.76864  0.50603  1.0000
  C   C18       1.0  0.01748  0.73136  0.00604  1.0000
  C   C19       1.0  0.48253  0.23136  0.49396  1.0000
  C   C20       1.0  0.98254  0.26863  0.99397  1.0000
  C   C21       1.0  0.87157  0.00839  0.28679  1.0000
  C   C22       1.0  0.37156  0.49160  0.78679  1.0000
  C   C23       1.0  0.12844  0.99160  0.71321  1.0000
  C   C24       1.0  0.62844  0.50841  0.21321  1.0000
  C   C25       1.0  0.85386  0.16060  0.32283  1.0000
  C   C26       1.0  0.35385  0.33940  0.82283  1.0000
  C   C27       1.0  0.14615  0.83940  0.67717  1.0000
  C   C28       1.0  0.64615  0.66060  0.17717  1.0000
  C   C29       1.0  0.02870  0.66058  0.56718  1.0000
  C   C30       1.0  0.52870  0.83942  0.06717  1.0000
  C   C31       1.0  0.97130  0.33942  0.43282  1.0000
  C   C32       1.0  0.47129  0.16058  0.93282  1.0000
  S   S1        1.0  0.34906  0.87511  0.34970  1.0000
  S   S2        1.0  0.84907  0.62489  0.84971  1.0000
  S   S3        1.0  0.65093  0.12490  0.65029  1.0000
  S   S4        1.0  0.15094  0.37511  0.15030  1.0000
  N   N1        1.0  0.85398  0.90566  0.36720  1.0000
  N   N2        1.0  0.35397  0.59433  0.86720  1.0000
  N   N3        1.0  0.14603  0.09433  0.63280  1.0000
  N   N4        1.0  0.64603  0.40567  0.13280  1.0000
  N   N5        1.0  0.98696  0.19601  0.39156  1.0000
  N   N6        1.0  0.48695  0.30399  0.89156  1.0000
  N   N7        1.0  0.01304  0.80399  0.60844  1.0000
  N   N8        1.0  0.51304  0.69601  0.10844  1.0000
  O   O1        1.0  0.49890  0.94415  0.31298  1.0000
  O   O2        1.0  0.99889  0.55585  0.81298  1.0000
  O   O3        1.0  0.50110  0.05586  0.68701  1.0000
  O   O4        1.0  0.00111  0.44415  0.18701  1.0000
  O   O5        1.0  0.25778  0.97042  0.41639  1.0000
  O   O6        1.0  0.75778  0.52958  0.91639  1.0000
  O   O7        1.0  0.74221  0.02958  0.58360  1.0000
  O   O8        1.0  0.24222  0.47042  0.08361  1.0000
  O   O9        1.0  0.24448  0.81175  0.27483  1.0000
  O   O10       1.0  0.74448  0.68825  0.77484  1.0000
  O   O11       1.0  0.75552  0.18826  0.72516  1.0000
  O   O12       1.0  0.25553  0.31175  0.22517  1.0000
