data_image0
_chemical_formula_structural       Cd2H60C36S4N8O12
_chemical_formula_sum              "Cd2 H60 C36 S4 N8 O12"
_cell_length_a       7.56196
_cell_length_b       11.8247
_cell_length_c       12.7534
_cell_angle_alpha    90
_cell_angle_beta     103.035
_cell_angle_gamma    90

_space_group_name_H-M_alt    "P 1"
_space_group_IT_number       1

loop_
  _space_group_symop_operation_xyz
  'x, y, z'

loop_
  _atom_site_type_symbol
  _atom_site_label
  _atom_site_symmetry_multiplicity
  _atom_site_fract_x
  _atom_site_fract_y
  _atom_site_fract_z
  _atom_site_occupancy
  Cd  Cd1       1.0  1.00000  0.50000  1.00000  1.0000
  Cd  Cd2       1.0  1.00000  0.00000  0.50000  1.0000
  H   H1        1.0  0.71563  0.65528  0.96439  1.0000
  H   H2        1.0  0.71562  0.84472  0.46439  1.0000
  H   H3        1.0  0.28438  0.34471  0.03561  1.0000
  H   H4        1.0  0.28437  0.15528  0.53561  1.0000
  H   H5        1.0  0.75165  0.43743  0.12468  1.0000
  H   H6        1.0  0.75165  0.06257  0.62468  1.0000
  H   H7        1.0  0.24835  0.56257  0.87532  1.0000
  H   H8        1.0  0.24835  0.93743  0.37532  1.0000
  H   H9        1.0  0.53293  0.26595  0.48828  1.0000
  H   H10       1.0  0.53293  0.23405  0.98828  1.0000
  H   H11       1.0  0.46707  0.73405  0.51172  1.0000
  H   H12       1.0  0.46707  0.76595  0.01172  1.0000
  H   H13       1.0  0.50676  0.37075  0.31794  1.0000
  H   H14       1.0  0.50677  0.12925  0.81794  1.0000
  H   H15       1.0  0.49324  0.62925  0.68206  1.0000
  H   H16       1.0  0.49324  0.87075  0.18206  1.0000
  H   H17       1.0  0.44724  0.73406  0.31485  1.0000
  H   H18       1.0  0.44724  0.76594  0.81485  1.0000
  H   H19       1.0  0.55276  0.26594  0.68515  1.0000
  H   H20       1.0  0.55276  0.23406  0.18515  1.0000
  H   H21       1.0  0.77689  0.66894  0.80249  1.0000
  H   H22       1.0  0.77688  0.83106  0.30249  1.0000
  H   H23       1.0  0.22311  0.33106  0.19752  1.0000
  H   H24       1.0  0.22312  0.16894  0.69751  1.0000
  H   H25       1.0  0.84015  0.80549  0.85352  1.0000
  H   H26       1.0  0.84015  0.69451  0.35352  1.0000
  H   H27       1.0  0.15985  0.19451  0.14648  1.0000
  H   H28       1.0  0.15985  0.30549  0.64648  1.0000
  H   H29       1.0  0.83658  0.26733  0.07756  1.0000
  H   H30       1.0  0.83658  0.23267  0.57756  1.0000
  H   H31       1.0  0.16342  0.73267  0.92244  1.0000
  H   H32       1.0  0.16342  0.76733  0.42244  1.0000
  H   H33       1.0  0.90946  0.26469  0.21927  1.0000
  H   H34       1.0  0.90946  0.23532  0.71927  1.0000
  H   H35       1.0  0.09054  0.73531  0.78073  1.0000
  H   H36       1.0  0.09054  0.76469  0.28073  1.0000
  H   H37       1.0  0.90134  0.44400  0.31343  1.0000
  H   H38       1.0  0.90135  0.05600  0.81343  1.0000
  H   H39       1.0  0.09865  0.55600  0.68657  1.0000
  H   H40       1.0  0.09865  0.94400  0.18657  1.0000
  H   H41       1.0  0.91768  0.57202  0.24245  1.0000
  H   H42       1.0  0.91768  0.92798  0.74245  1.0000
  H   H43       1.0  0.08232  0.42798  0.75755  1.0000
  H   H44       1.0  0.08232  0.07202  0.25756  1.0000
  H   H45       1.0  0.10690  0.47878  0.27320  1.0000
  H   H46       1.0  0.10690  0.02122  0.77320  1.0000
  H   H47       1.0  0.89310  0.52122  0.72680  1.0000
  H   H48       1.0  0.89310  0.97878  0.22680  1.0000
  H   H49       1.0  0.14675  0.15603  0.96759  1.0000
  H   H50       1.0  0.14675  0.34397  0.46759  1.0000
  H   H51       1.0  0.85325  0.84397  0.03241  1.0000
  H   H52       1.0  0.85325  0.65603  0.53241  1.0000
  H   H53       1.0  0.13788  0.26763  0.87250  1.0000
  H   H54       1.0  0.13788  0.23237  0.37250  1.0000
  H   H55       1.0  0.86212  0.73237  0.12750  1.0000
  H   H56       1.0  0.86212  0.76763  0.62750  1.0000
  H   H57       1.0  0.94177  0.23578  0.92283  1.0000
  H   H58       1.0  0.94177  0.26422  0.42283  1.0000
  H   H59       1.0  0.05824  0.76422  0.07717  1.0000
  H   H60       1.0  0.05823  0.73578  0.57717  1.0000
  C   C1        1.0  0.52838  0.34515  0.53162  1.0000
  C   C2        1.0  0.52838  0.15485  0.03162  1.0000
  C   C3        1.0  0.47162  0.65484  0.46838  1.0000
  C   C4        1.0  0.47162  0.84516  0.96838  1.0000
  C   C5        1.0  0.50671  0.44788  0.47240  1.0000
  C   C6        1.0  0.50671  0.05212  0.97240  1.0000
  C   C7        1.0  0.49330  0.55212  0.52760  1.0000
  C   C8        1.0  0.49330  0.94788  0.02760  1.0000
  C   C9        1.0  0.49665  0.44996  0.35989  1.0000
  C   C10       1.0  0.49665  0.05004  0.85989  1.0000
  C   C11       1.0  0.50335  0.55004  0.64010  1.0000
  C   C12       1.0  0.50335  0.94996  0.14010  1.0000
  C   C13       1.0  0.47367  0.55137  0.30489  1.0000
  C   C14       1.0  0.47367  0.94863  0.80489  1.0000
  C   C15       1.0  0.52633  0.44863  0.69511  1.0000
  C   C16       1.0  0.52633  0.05137  0.19511  1.0000
  C   C17       1.0  0.46173  0.65466  0.35925  1.0000
  C   C18       1.0  0.46173  0.84534  0.85925  1.0000
  C   C19       1.0  0.53827  0.34534  0.64075  1.0000
  C   C20       1.0  0.53827  0.15466  0.14075  1.0000
  C   C21       1.0  0.87373  0.71489  0.86513  1.0000
  C   C22       1.0  0.87373  0.78511  0.36513  1.0000
  C   C23       1.0  0.12627  0.28511  0.13487  1.0000
  C   C24       1.0  0.12628  0.21489  0.63487  1.0000
  C   C25       1.0  0.06795  0.69414  0.85415  1.0000
  C   C26       1.0  0.06795  0.80586  0.35415  1.0000
  C   C27       1.0  0.93205  0.30586  0.14585  1.0000
  C   C28       1.0  0.93205  0.19414  0.64585  1.0000
  C   C29       1.0  0.95833  0.48304  0.24973  1.0000
  C   C30       1.0  0.95833  0.01696  0.74973  1.0000
  C   C31       1.0  0.04166  0.51696  0.75027  1.0000
  C   C32       1.0  0.04166  0.98304  0.25027  1.0000
  C   C33       1.0  0.09049  0.24062  0.94352  1.0000
  C   C34       1.0  0.09048  0.25938  0.44351  1.0000
  C   C35       1.0  0.90951  0.75938  0.05648  1.0000
  C   C36       1.0  0.90951  0.74062  0.55649  1.0000
  S   S1        1.0  0.45701  0.55669  0.16297  1.0000
  S   S2        1.0  0.45701  0.94330  0.66297  1.0000
  S   S3        1.0  0.54299  0.44331  0.83703  1.0000
  S   S4        1.0  0.54299  0.05670  0.33703  1.0000
  N   N1        1.0  0.84911  0.67616  0.97054  1.0000
  N   N2        1.0  0.84911  0.82384  0.47054  1.0000
  N   N3        1.0  0.15089  0.32384  0.02946  1.0000
  N   N4        1.0  0.15089  0.17616  0.52946  1.0000
  N   N5        1.0  0.10960  0.57242  0.85485  1.0000
  N   N6        1.0  0.10960  0.92758  0.35485  1.0000
  N   N7        1.0  0.89040  0.42758  0.14515  1.0000
  N   N8        1.0  0.89040  0.07242  0.64515  1.0000
  O   O1        1.0  0.49466  0.44132  0.13006  1.0000
  O   O2        1.0  0.49466  0.05868  0.63006  1.0000
  O   O3        1.0  0.50534  0.55868  0.86994  1.0000
  O   O4        1.0  0.50534  0.94132  0.36994  1.0000
  O   O5        1.0  0.59096  0.64064  0.14726  1.0000
  O   O6        1.0  0.59096  0.85936  0.64726  1.0000
  O   O7        1.0  0.40904  0.35936  0.85274  1.0000
  O   O8        1.0  0.40904  0.14064  0.35274  1.0000
  O   O9        1.0  0.26829  0.59358  0.11670  1.0000
  O   O10       1.0  0.26829  0.90642  0.61670  1.0000
  O   O11       1.0  0.73171  0.40642  0.88330  1.0000
  O   O12       1.0  0.73171  0.09358  0.38330  1.0000
