data_image0
_chemical_formula_structural       CdH30C18S2N4O6
_chemical_formula_sum              "Cd1 H30 C18 S2 N4 O6"
_cell_length_a       8.34809
_cell_length_b       8.4899
_cell_length_c       8.50491
_cell_angle_alpha    88.841
_cell_angle_beta     66.8713
_cell_angle_gamma    91.1073

_space_group_name_H-M_alt    "P 1"
_space_group_IT_number       1

loop_
  _space_group_symop_operation_xyz
  'x, y, z'

loop_
  _atom_site_type_symbol
  _atom_site_label
  _atom_site_symmetry_multiplicity
  _atom_site_fract_x
  _atom_site_fract_y
  _atom_site_fract_z
  _atom_site_occupancy
  Cd  Cd1       1.0  0.50000  0.00000  0.50000  1.0000
  H   H1        1.0  0.17154  0.83837  0.62514  1.0000
  H   H2        1.0  0.82846  0.16163  0.37487  1.0000
  H   H3        1.0  0.44621  0.08992  0.84612  1.0000
  H   H4        1.0  0.55378  0.91008  0.15389  1.0000
  H   H5        1.0  0.72537  0.25021  0.85618  1.0000
  H   H6        1.0  0.27464  0.74979  0.14382  1.0000
  H   H7        1.0  0.63372  0.53056  0.90328  1.0000
  H   H8        1.0  0.36629  0.46944  0.09671  1.0000
  H   H9        1.0  0.97327  0.17981  0.59713  1.0000
  H   H10       1.0  0.02674  0.82019  0.40286  1.0000
  H   H11       1.0  0.20456  0.56968  0.72049  1.0000
  H   H12       1.0  0.79544  0.43032  0.27952  1.0000
  H   H13       1.0  0.43172  0.61907  0.64974  1.0000
  H   H14       1.0  0.56827  0.38093  0.35027  1.0000
  H   H15       1.0  0.33076  0.61311  0.50002  1.0000
  H   H16       1.0  0.66924  0.38688  0.49999  1.0000
  H   H17       1.0  0.32982  0.80760  0.87535  1.0000
  H   H18       1.0  0.67017  0.19240  0.12465  1.0000
  H   H19       1.0  0.10349  0.78519  0.91735  1.0000
  H   H20       1.0  0.89651  0.21480  0.08266  1.0000
  H   H21       1.0  0.11423  0.06775  0.80772  1.0000
  H   H22       1.0  0.88577  0.93225  0.19228  1.0000
  H   H23       1.0  0.15011  0.04795  0.00077  1.0000
  H   H24       1.0  0.84989  0.95205  0.99923  1.0000
  H   H25       1.0  0.25936  0.31995  0.90819  1.0000
  H   H26       1.0  0.74064  0.68005  0.09181  1.0000
  H   H27       1.0  0.27726  0.30859  0.69165  1.0000
  H   H28       1.0  0.72273  0.69141  0.30835  1.0000
  H   H29       1.0  0.46613  0.34795  0.73586  1.0000
  H   H30       1.0  0.53386  0.65205  0.26414  1.0000
  C   C1        1.0  0.79595  0.34150  0.76086  1.0000
  C   C2        1.0  0.20406  0.65850  0.23914  1.0000
  C   C3        1.0  0.74303  0.49911  0.78774  1.0000
  C   C4        1.0  0.25698  0.50090  0.21226  1.0000
  C   C5        1.0  0.82942  0.61599  0.66716  1.0000
  C   C6        1.0  0.17059  0.38401  0.33283  1.0000
  C   C7        1.0  0.97330  0.58067  0.51255  1.0000
  C   C8        1.0  0.02670  0.41933  0.48745  1.0000
  C   C9        1.0  0.93493  0.30214  0.61490  1.0000
  C   C10       1.0  0.06508  0.69786  0.38509  1.0000
  C   C11       1.0  0.31240  0.64413  0.63004  1.0000
  C   C12       1.0  0.68759  0.35587  0.36997  1.0000
  C   C13       1.0  0.22598  0.84884  0.83711  1.0000
  C   C14       1.0  0.77401  0.15116  0.16289  1.0000
  C   C15       1.0  0.20457  0.02436  0.86314  1.0000
  C   C16       1.0  0.79543  0.97564  0.13687  1.0000
  C   C17       1.0  0.34170  0.28204  0.77885  1.0000
  C   C18       1.0  0.65830  0.71796  0.22115  1.0000
  S   S1        1.0  0.75870  0.81480  0.70952  1.0000
  S   S2        1.0  0.24130  0.18519  0.29048  1.0000
  N   N1        1.0  0.27580  0.81195  0.65567  1.0000
  N   N2        1.0  0.72420  0.18804  0.34434  1.0000
  N   N3        1.0  0.37207  0.11223  0.77695  1.0000
  N   N4        1.0  0.62792  0.88777  0.22305  1.0000
  O   O1        1.0  0.90908  0.90546  0.71206  1.0000
  O   O2        1.0  0.09092  0.09454  0.28794  1.0000
  O   O3        1.0  0.71503  0.86105  0.56250  1.0000
  O   O4        1.0  0.28497  0.13895  0.43750  1.0000
  O   O5        1.0  0.60721  0.81029  0.87298  1.0000
  O   O6        1.0  0.39279  0.18971  0.12701  1.0000
