data_image0
_chemical_formula_structural       CdH32C20S2N4O6
_chemical_formula_sum              "Cd1 H32 C20 S2 N4 O6"
_cell_length_a       7.49528
_cell_length_b       8.94999
_cell_length_c       9.52459
_cell_angle_alpha    72.8012
_cell_angle_beta     84.5076
_cell_angle_gamma    71.8582

_space_group_name_H-M_alt    "P 1"
_space_group_IT_number       1

loop_
  _space_group_symop_operation_xyz
  'x, y, z'

loop_
  _atom_site_type_symbol
  _atom_site_label
  _atom_site_symmetry_multiplicity
  _atom_site_fract_x
  _atom_site_fract_y
  _atom_site_fract_z
  _atom_site_occupancy
  Cd  Cd1       1.0  0.50000  1.00000  0.00000  1.0000
  H   H1        1.0  0.76236  0.99749  0.19174  1.0000
  H   H2        1.0  0.23764  0.00251  0.80826  1.0000
  H   H3        1.0  0.71698  0.19787  0.84756  1.0000
  H   H4        1.0  0.28302  0.80213  0.15244  1.0000
  H   H5        1.0  0.87809  0.53686  0.91139  1.0000
  H   H6        1.0  0.12192  0.46314  0.08861  1.0000
  H   H7        1.0  0.89647  0.38110  0.73927  1.0000
  H   H8        1.0  0.10353  0.61890  0.26072  1.0000
  H   H9        1.0  0.08955  0.74212  0.40068  1.0000
  H   H10       1.0  0.91045  0.25789  0.59932  1.0000
  H   H11       1.0  0.08471  0.89055  0.58043  1.0000
  H   H12       1.0  0.91530  0.10945  0.41956  1.0000
  H   H13       1.0  0.59981  0.11547  0.38663  1.0000
  H   H14       1.0  0.40020  0.88453  0.61338  1.0000
  H   H15       1.0  0.54233  0.24611  0.20481  1.0000
  H   H16       1.0  0.45768  0.75389  0.79519  1.0000
  H   H17       1.0  0.38477  0.13940  0.30416  1.0000
  H   H18       1.0  0.61523  0.86060  0.69585  1.0000
  H   H19       1.0  0.75091  0.74284  0.28490  1.0000
  H   H20       1.0  0.24909  0.25716  0.71510  1.0000
  H   H21       1.0  0.66250  0.82669  0.43352  1.0000
  H   H22       1.0  0.33750  0.17331  0.56649  1.0000
  H   H23       1.0  0.54345  0.32305  0.59535  1.0000
  H   H24       1.0  0.45655  0.67695  0.40466  1.0000
  H   H25       1.0  0.66956  0.11170  0.66074  1.0000
  H   H26       1.0  0.33044  0.88830  0.33927  1.0000
  H   H27       1.0  0.50826  0.48592  0.75831  1.0000
  H   H28       1.0  0.49173  0.51408  0.24169  1.0000
  H   H29       1.0  0.32236  0.40615  0.84679  1.0000
  H   H30       1.0  0.67763  0.59385  0.15321  1.0000
  H   H31       1.0  0.51341  0.39290  0.95197  1.0000
  H   H32       1.0  0.48658  0.60710  0.04803  1.0000
  C   C1        1.0  0.98388  0.72304  0.75793  1.0000
  C   C2        1.0  0.01612  0.27696  0.24206  1.0000
  C   C3        1.0  0.92872  0.58053  0.80043  1.0000
  C   C4        1.0  0.07128  0.41948  0.19956  1.0000
  C   C5        1.0  0.93670  0.49332  0.69985  1.0000
  C   C6        1.0  0.06330  0.50668  0.30015  1.0000
  C   C7        1.0  0.99662  0.54633  0.55367  1.0000
  C   C8        1.0  0.00338  0.45368  0.44633  1.0000
  C   C9        1.0  0.04856  0.69176  0.51316  1.0000
  C   C10       1.0  0.95144  0.30825  0.48683  1.0000
  C   C11       1.0  0.04387  0.77840  0.61383  1.0000
  C   C12       1.0  0.95613  0.22161  0.38617  1.0000
  C   C13       1.0  0.53340  0.13090  0.28262  1.0000
  C   C14       1.0  0.46660  0.86910  0.71738  1.0000
  C   C15       1.0  0.63358  0.83337  0.32015  1.0000
  C   C16       1.0  0.36642  0.16663  0.67985  1.0000
  C   C17       1.0  0.45189  0.79125  0.31707  1.0000
  C   C18       1.0  0.54811  0.20875  0.68293  1.0000
  C   C19       1.0  0.47411  0.38679  0.84664  1.0000
  C   C20       1.0  0.52590  0.61321  0.15336  1.0000
  S   S1        1.0  0.98295  0.82975  0.88945  1.0000
  S   S2        1.0  0.01705  0.17025  0.11055  1.0000
  N   N1        1.0  0.62687  0.99524  0.21918  1.0000
  N   N2        1.0  0.37313  0.00475  0.78082  1.0000
  N   N3        1.0  0.42320  0.77516  0.17230  1.0000
  N   N4        1.0  0.57679  0.22484  0.82770  1.0000
  O   O1        1.0  0.81473  0.81725  0.98101  1.0000
  O   O2        1.0  0.18526  0.18275  0.01898  1.0000
  O   O3        1.0  0.97308  0.99899  0.80437  1.0000
  O   O4        1.0  0.02692  0.00101  0.19563  1.0000
  O   O5        1.0  0.15809  0.74235  0.97186  1.0000
  O   O6        1.0  0.84190  0.25765  0.02814  1.0000
