data_image0
_chemical_formula_structural       Zn2H20C22N8Cl4O2
_chemical_formula_sum              "Zn2 H20 C22 N8 Cl4 O2"
_cell_length_a       9.31701
_cell_length_b       9.317
_cell_length_c       10.3456
_cell_angle_alpha    104.376
_cell_angle_beta     104.376
_cell_angle_gamma    116.642

_space_group_name_H-M_alt    "P 1"
_space_group_IT_number       1

loop_
  _space_group_symop_operation_xyz
  'x, y, z'

loop_
  _atom_site_type_symbol
  _atom_site_label
  _atom_site_symmetry_multiplicity
  _atom_site_fract_x
  _atom_site_fract_y
  _atom_site_fract_z
  _atom_site_occupancy
  Zn  Zn1       1.0  0.45878  0.54122  0.50000  1.0000
  Zn  Zn2       1.0  0.20871  0.79129  1.00000  1.0000
  H   H1        1.0  0.52070  0.74965  0.80358  1.0000
  H   H2        1.0  0.25035  0.47931  0.19641  1.0000
  H   H3        1.0  0.30371  0.03278  0.30355  1.0000
  H   H4        1.0  0.96723  0.69629  0.69645  1.0000
  H   H5        1.0  0.57019  0.04488  0.93536  1.0000
  H   H6        1.0  0.95512  0.42981  0.06464  1.0000
  H   H7        1.0  0.14018  0.11496  0.43537  1.0000
  H   H8        1.0  0.88504  0.85982  0.56463  1.0000
  H   H9        1.0  0.62840  0.25602  0.81741  1.0000
  H   H10       1.0  0.74399  0.37161  0.18260  1.0000
  H   H11       1.0  0.81116  0.93898  0.31738  1.0000
  H   H12       1.0  0.06102  0.18884  0.68262  1.0000
  H   H13       1.0  0.57438  0.86331  0.44816  1.0000
  H   H14       1.0  0.13669  0.42562  0.55184  1.0000
  H   H15       1.0  0.83473  0.62385  0.94813  1.0000
  H   H16       1.0  0.37615  0.16527  0.05187  1.0000
  H   H17       1.0  0.61632  0.28628  0.58359  1.0000
  H   H18       1.0  0.71372  0.38368  0.41641  1.0000
  H   H19       1.0  0.54713  0.71728  0.08354  1.0000
  H   H20       1.0  0.28272  0.45287  0.91646  1.0000
  C   C1        1.0  0.54507  0.84589  0.75603  1.0000
  C   C2        1.0  0.15411  0.45493  0.24397  1.0000
  C   C3        1.0  0.15994  0.96092  0.25598  1.0000
  C   C4        1.0  0.03908  0.84006  0.74402  1.0000
  C   C5        1.0  0.57260  0.00942  0.82769  1.0000
  C   C6        1.0  0.99058  0.42740  0.17231  1.0000
  C   C7        1.0  0.06801  0.00501  0.32764  1.0000
  C   C8        1.0  0.99499  0.93199  0.67236  1.0000
  C   C9        1.0  0.60577  0.12722  0.76164  1.0000
  C   C10       1.0  0.87278  0.39423  0.23836  1.0000
  C   C11       1.0  0.88421  0.90595  0.26156  1.0000
  C   C12       1.0  0.09405  0.11578  0.73844  1.0000
  C   C13       1.0  0.61132  0.07826  0.62468  1.0000
  C   C14       1.0  0.92174  0.38869  0.37532  1.0000
  C   C15       1.0  0.79623  0.76346  0.12460  1.0000
  C   C16       1.0  0.23654  0.20377  0.87540  1.0000
  C   C17       1.0  0.57720  0.90944  0.55688  1.0000
  C   C18       1.0  0.09057  0.42281  0.44312  1.0000
  C   C19       1.0  0.89727  0.72976  0.05681  1.0000
  C   C20       1.0  0.27024  0.10272  0.94319  1.0000
  C   C21       1.0  0.77424  0.22576  0.50000  1.0000
  C   C22       1.0  0.52415  0.47585  0.00000  1.0000
  N   N1        1.0  0.54555  0.79721  0.62194  1.0000
  N   N2        1.0  0.20279  0.45445  0.37806  1.0000
  N   N3        1.0  0.07454  0.82640  0.12188  1.0000
  N   N4        1.0  0.17360  0.92545  0.87811  1.0000
  N   N5        1.0  0.64897  0.19465  0.55636  1.0000
  N   N6        1.0  0.80535  0.35103  0.44364  1.0000
  N   N7        1.0  0.61157  0.65744  0.05632  1.0000
  N   N8        1.0  0.34256  0.38843  0.94368  1.0000
  Cl  Cl1       1.0  0.47117  0.40906  0.65192  1.0000
  Cl  Cl2       1.0  0.59094  0.52883  0.34808  1.0000
  Cl  Cl3       1.0  0.49271  0.93078  0.15195  1.0000
  Cl  Cl4       1.0  0.06922  0.50729  0.84805  1.0000
  O   O1        1.0  0.85232  0.14768  0.50000  1.0000
  O   O2        1.0  0.60225  0.39775  0.00000  1.0000
