data_image0
_chemical_formula_structural       Zn4H40C44Br8N16O4
_chemical_formula_sum              "Zn4 H40 C44 Br8 N16 O4"
_cell_length_a       8.36171
_cell_length_b       10.0538
_cell_length_c       16.627
_cell_angle_alpha    90.0002
_cell_angle_beta     89.9997
_cell_angle_gamma    103.98

_space_group_name_H-M_alt    "P 1"
_space_group_IT_number       1

loop_
  _space_group_symop_operation_xyz
  'x, y, z'

loop_
  _atom_site_type_symbol
  _atom_site_label
  _atom_site_symmetry_multiplicity
  _atom_site_fract_x
  _atom_site_fract_y
  _atom_site_fract_z
  _atom_site_occupancy
  Zn  Zn1       1.0  0.79164  0.73889  0.10609  1.0000
  Zn  Zn2       1.0  0.70836  0.26111  0.60609  1.0000
  Zn  Zn3       1.0  0.20836  0.26110  0.89391  1.0000
  Zn  Zn4       1.0  0.29164  0.73889  0.39392  1.0000
  H   H1        1.0  0.26409  0.24439  0.25677  1.0000
  H   H2        1.0  0.23591  0.75561  0.75678  1.0000
  H   H3        1.0  0.73591  0.75560  0.74323  1.0000
  H   H4        1.0  0.76409  0.24439  0.24323  1.0000
  H   H5        1.0  0.11695  0.08976  0.37347  1.0000
  H   H6        1.0  0.38305  0.91024  0.87347  1.0000
  H   H7        1.0  0.88305  0.91024  0.62653  1.0000
  H   H8        1.0  0.61696  0.08976  0.12653  1.0000
  H   H9        1.0  0.32031  0.39885  0.14653  1.0000
  H   H10       1.0  0.17969  0.60115  0.64653  1.0000
  H   H11       1.0  0.67970  0.60115  0.85347  1.0000
  H   H12       1.0  0.82030  0.39885  0.35347  1.0000
  H   H13       1.0  0.79209  0.71626  0.28569  1.0000
  H   H14       1.0  0.70791  0.28374  0.78569  1.0000
  H   H15       1.0  0.20791  0.28373  0.71431  1.0000
  H   H16       1.0  0.29209  0.71627  0.21431  1.0000
  H   H17       1.0  0.93584  0.51730  0.16467  1.0000
  H   H18       1.0  0.56415  0.48271  0.66467  1.0000
  H   H19       1.0  0.06416  0.48271  0.83533  1.0000
  H   H20       1.0  0.43585  0.51730  0.33534  1.0000
  H   H21       1.0  0.37872  0.53381  0.02736  1.0000
  H   H22       1.0  0.12128  0.46619  0.52736  1.0000
  H   H23       1.0  0.62128  0.46619  0.97264  1.0000
  H   H24       1.0  0.87872  0.53382  0.47264  1.0000
  H   H25       1.0  0.32169  0.73094  0.95191  1.0000
  H   H26       1.0  0.17831  0.26906  0.45191  1.0000
  H   H27       1.0  0.67831  0.26906  0.04809  1.0000
  H   H28       1.0  0.82169  0.73094  0.54809  1.0000
  H   H29       1.0  0.07121  0.81673  0.98927  1.0000
  H   H30       1.0  0.42879  0.18327  0.48927  1.0000
  H   H31       1.0  0.92879  0.18327  0.01073  1.0000
  H   H32       1.0  0.57121  0.81673  0.51073  1.0000
  H   H33       1.0  0.98195  0.02738  0.12312  1.0000
  H   H34       1.0  0.51805  0.97262  0.62312  1.0000
  H   H35       1.0  0.01805  0.97262  0.87688  1.0000
  H   H36       1.0  0.48195  0.02738  0.37688  1.0000
  H   H37       1.0  0.94308  0.85534  0.40088  1.0000
  H   H38       1.0  0.55692  0.14466  0.90087  1.0000
  H   H39       1.0  0.05693  0.14465  0.59912  1.0000
  H   H40       1.0  0.44308  0.85534  0.09913  1.0000
  C   C1        1.0  0.08574  0.29746  0.18170  1.0000
  C   C2        1.0  0.41425  0.70254  0.68170  1.0000
  C   C3        1.0  0.91425  0.70254  0.81829  1.0000
  C   C4        1.0  0.58574  0.29746  0.31830  1.0000
  C   C5        1.0  0.04952  0.02779  0.32499  1.0000
  C   C6        1.0  0.45048  0.97221  0.82499  1.0000
  C   C7        1.0  0.95049  0.97221  0.67501  1.0000
  C   C8        1.0  0.54952  0.02779  0.17501  1.0000
  C   C9        1.0  0.16404  0.51125  0.10344  1.0000
  C   C10       1.0  0.33596  0.48875  0.60344  1.0000
  C   C11       1.0  0.83596  0.48875  0.89656  1.0000
  C   C12       1.0  0.66404  0.51125  0.39656  1.0000
  C   C13       1.0  0.86882  0.81948  0.27720  1.0000
  C   C14       1.0  0.63118  0.18052  0.77720  1.0000
  C   C15       1.0  0.13118  0.18052  0.72280  1.0000
  C   C16       1.0  0.36882  0.81948  0.22280  1.0000
  C   C17       1.0  0.05844  0.07891  0.24652  1.0000
  C   C18       1.0  0.44156  0.92109  0.74652  1.0000
  C   C19       1.0  0.94156  0.92109  0.75348  1.0000
  C   C20       1.0  0.55844  0.07891  0.25349  1.0000
  C   C21       1.0  0.02593  0.56273  0.11926  1.0000
  C   C22       1.0  0.47407  0.43727  0.61926  1.0000
  C   C23       1.0  0.97407  0.43727  0.88074  1.0000
  C   C24       1.0  0.52593  0.56273  0.38074  1.0000
  C   C25       1.0  0.27208  0.57320  0.04219  1.0000
  C   C26       1.0  0.22792  0.42680  0.54219  1.0000
  C   C27       1.0  0.72792  0.42680  0.95781  1.0000
  C   C28       1.0  0.77208  0.57320  0.45781  1.0000
  C   C29       1.0  0.24051  0.68367  0.00046  1.0000
  C   C30       1.0  0.25949  0.31634  0.50046  1.0000
  C   C31       1.0  0.75949  0.31633  0.99954  1.0000
  C   C32       1.0  0.74051  0.68367  0.49954  1.0000
  C   C33       1.0  0.10217  0.73066  0.02004  1.0000
  C   C34       1.0  0.39782  0.26934  0.52005  1.0000
  C   C35       1.0  0.89783  0.26934  0.97995  1.0000
  C   C36       1.0  0.60218  0.73067  0.47996  1.0000
  C   C37       1.0  0.97324  0.99387  0.18572  1.0000
  C   C38       1.0  0.52676  0.00613  0.68572  1.0000
  C   C39       1.0  0.02675  0.00613  0.81428  1.0000
  C   C40       1.0  0.47324  0.99386  0.31428  1.0000
  C   C41       1.0  0.95242  0.89695  0.34022  1.0000
  C   C42       1.0  0.54758  0.10304  0.84022  1.0000
  C   C43       1.0  0.04758  0.10305  0.65978  1.0000
  C   C44       1.0  0.45242  0.89695  0.15978  1.0000
  Br  Br1       1.0  0.60701  0.54134  0.16345  1.0000
  Br  Br2       1.0  0.89299  0.45866  0.66345  1.0000
  Br  Br3       1.0  0.39299  0.45866  0.83655  1.0000
  Br  Br4       1.0  0.10701  0.54134  0.33655  1.0000
  Br  Br5       1.0  0.72793  0.86411  0.99456  1.0000
  Br  Br6       1.0  0.77208  0.13590  0.49455  1.0000
  Br  Br7       1.0  0.27207  0.13589  0.00544  1.0000
  Br  Br8       1.0  0.22792  0.86410  0.50545  1.0000
  N   N1        1.0  0.88100  0.86759  0.20110  1.0000
  N   N2        1.0  0.61901  0.13241  0.70110  1.0000
  N   N3        1.0  0.11900  0.13241  0.79890  1.0000
  N   N4        1.0  0.38099  0.86759  0.29890  1.0000
  N   N5        1.0  0.99741  0.66965  0.07800  1.0000
  N   N6        1.0  0.50259  0.33034  0.57800  1.0000
  N   N7        1.0  0.00259  0.33035  0.92200  1.0000
  N   N8        1.0  0.49741  0.66965  0.42200  1.0000
  N   N9        1.0  0.15314  0.20993  0.22695  1.0000
  N   N10       1.0  0.34686  0.79007  0.72695  1.0000
  N   N11       1.0  0.84686  0.79007  0.77305  1.0000
  N   N12       1.0  0.65314  0.20993  0.27305  1.0000
  N   N13       1.0  0.19938  0.40309  0.14682  1.0000
  N   N14       1.0  0.30062  0.59691  0.64682  1.0000
  N   N15       1.0  0.80063  0.59691  0.85318  1.0000
  N   N16       1.0  0.69937  0.40309  0.35318  1.0000
  O   O1        1.0  0.93419  0.28028  0.17176  1.0000
  O   O2        1.0  0.56581  0.71972  0.67176  1.0000
  O   O3        1.0  0.06581  0.71972  0.82823  1.0000
  O   O4        1.0  0.43420  0.28028  0.32824  1.0000
