data_image0
_chemical_formula_structural       Zn4H40C44I8N16O4
_chemical_formula_sum              "Zn4 H40 C44 I8 N16 O4"
_cell_length_a       8.66183
_cell_length_b       10.1621
_cell_length_c       16.774
_cell_angle_alpha    89.9999
_cell_angle_beta     89.9999
_cell_angle_gamma    104.702

_space_group_name_H-M_alt    "P 1"
_space_group_IT_number       1

loop_
  _space_group_symop_operation_xyz
  'x, y, z'

loop_
  _atom_site_type_symbol
  _atom_site_label
  _atom_site_symmetry_multiplicity
  _atom_site_fract_x
  _atom_site_fract_y
  _atom_site_fract_z
  _atom_site_occupancy
  Zn  Zn1       1.0  0.72225  0.26411  0.89394  1.0000
  Zn  Zn2       1.0  0.77775  0.73589  0.39394  1.0000
  Zn  Zn3       1.0  0.27776  0.73589  0.10606  1.0000
  Zn  Zn4       1.0  0.22225  0.26412  0.60606  1.0000
  H   H1        1.0  0.59137  0.49258  0.84163  1.0000
  H   H2        1.0  0.90864  0.50742  0.34163  1.0000
  H   H3        1.0  0.40864  0.50742  0.15837  1.0000
  H   H4        1.0  0.09136  0.49258  0.65837  1.0000
  H   H5        1.0  0.43741  0.17205  0.99968  1.0000
  H   H6        1.0  0.06260  0.82795  0.49968  1.0000
  H   H7        1.0  0.56261  0.82795  0.00032  1.0000
  H   H8        1.0  0.93740  0.17205  0.50032  1.0000
  H   H9        1.0  0.55347  0.97334  0.87732  1.0000
  H   H10       1.0  0.94652  0.02667  0.37732  1.0000
  H   H11       1.0  0.44652  0.02666  0.12269  1.0000
  H   H12       1.0  0.05347  0.97333  0.62268  1.0000
  H   H13       1.0  0.71029  0.28750  0.71544  1.0000
  H   H14       1.0  0.78970  0.71251  0.21544  1.0000
  H   H15       1.0  0.28969  0.71250  0.28456  1.0000
  H   H16       1.0  0.21031  0.28749  0.78455  1.0000
  H   H17       1.0  0.26875  0.75390  0.75028  1.0000
  H   H18       1.0  0.23125  0.24610  0.25027  1.0000
  H   H19       1.0  0.73125  0.24610  0.24973  1.0000
  H   H20       1.0  0.76875  0.75390  0.74972  1.0000
  H   H21       1.0  0.19633  0.25474  0.03795  1.0000
  H   H22       1.0  0.30367  0.74526  0.53796  1.0000
  H   H23       1.0  0.80368  0.74526  0.96205  1.0000
  H   H24       1.0  0.69633  0.25475  0.46205  1.0000
  H   H25       1.0  0.15410  0.46283  0.97275  1.0000
  H   H26       1.0  0.34590  0.53716  0.47276  1.0000
  H   H27       1.0  0.84590  0.53716  0.02725  1.0000
  H   H28       1.0  0.65411  0.46285  0.52725  1.0000
  H   H29       1.0  0.39171  0.91229  0.63343  1.0000
  H   H30       1.0  0.10829  0.08771  0.13343  1.0000
  H   H31       1.0  0.60828  0.08771  0.36657  1.0000
  H   H32       1.0  0.89171  0.91229  0.86656  1.0000
  H   H33       1.0  0.55411  0.14797  0.60426  1.0000
  H   H34       1.0  0.94588  0.85203  0.10426  1.0000
  H   H35       1.0  0.44588  0.85203  0.39574  1.0000
  H   H36       1.0  0.05412  0.14797  0.89574  1.0000
  H   H37       1.0  0.22445  0.61571  0.86568  1.0000
  H   H38       1.0  0.27555  0.38429  0.36568  1.0000
  H   H39       1.0  0.77555  0.38428  0.13432  1.0000
  H   H40       1.0  0.72445  0.61571  0.63432  1.0000
  C   C1        1.0  0.46413  0.92249  0.75716  1.0000
  C   C2        1.0  0.03587  0.07751  0.25716  1.0000
  C   C3        1.0  0.53587  0.07751  0.24284  1.0000
  C   C4        1.0  0.96413  0.92249  0.74284  1.0000
  C   C5        1.0  0.49947  0.44192  0.88335  1.0000
  C   C6        1.0  0.00054  0.55809  0.38335  1.0000
  C   C7        1.0  0.50054  0.55809  0.11666  1.0000
  C   C8        1.0  0.99946  0.44191  0.61665  1.0000
  C   C9        1.0  0.41318  0.26252  0.97303  1.0000
  C   C10       1.0  0.08683  0.73749  0.47303  1.0000
  C   C11       1.0  0.58683  0.73748  0.02697  1.0000
  C   C12       1.0  0.91318  0.26252  0.52697  1.0000
  C   C13       1.0  0.55261  0.00762  0.81575  1.0000
  C   C14       1.0  0.94738  0.99239  0.31575  1.0000
  C   C15       1.0  0.44738  0.99239  0.18425  1.0000
  C   C16       1.0  0.05262  0.00761  0.68424  1.0000
  C   C17       1.0  0.63909  0.18365  0.72486  1.0000
  C   C18       1.0  0.86090  0.81636  0.22486  1.0000
  C   C19       1.0  0.36090  0.81636  0.27514  1.0000
  C   C20       1.0  0.13910  0.18364  0.77513  1.0000
  C   C21       1.0  0.36694  0.49269  0.89990  1.0000
  C   C22       1.0  0.13307  0.50731  0.39990  1.0000
  C   C23       1.0  0.63306  0.50731  0.10010  1.0000
  C   C24       1.0  0.86694  0.49269  0.60010  1.0000
  C   C25       1.0  0.44733  0.70677  0.82197  1.0000
  C   C26       1.0  0.05269  0.29324  0.32197  1.0000
  C   C27       1.0  0.55268  0.29323  0.17803  1.0000
  C   C28       1.0  0.94732  0.70676  0.67803  1.0000
  C   C29       1.0  0.27997  0.30811  0.99318  1.0000
  C   C30       1.0  0.22004  0.69189  0.49318  1.0000
  C   C31       1.0  0.72004  0.69188  0.00682  1.0000
  C   C32       1.0  0.77997  0.30812  0.50682  1.0000
  C   C33       1.0  0.25654  0.42438  0.95691  1.0000
  C   C34       1.0  0.24346  0.57562  0.45692  1.0000
  C   C35       1.0  0.74347  0.57562  0.04308  1.0000
  C   C36       1.0  0.75654  0.42439  0.54308  1.0000
  C   C37       1.0  0.46195  0.97441  0.68009  1.0000
  C   C38       1.0  0.03804  0.02559  0.18009  1.0000
  C   C39       1.0  0.53804  0.02559  0.31991  1.0000
  C   C40       1.0  0.96196  0.97441  0.81991  1.0000
  C   C41       1.0  0.55215  0.10596  0.66403  1.0000
  C   C42       1.0  0.94784  0.89405  0.16403  1.0000
  C   C43       1.0  0.44784  0.89404  0.33597  1.0000
  C   C44       1.0  0.05216  0.10595  0.83597  1.0000
  I   I1        1.0  0.92035  0.47643  0.83728  1.0000
  I   I2        1.0  0.57965  0.52356  0.33729  1.0000
  I   I3        1.0  0.07965  0.52356  0.16272  1.0000
  I   I4        1.0  0.42035  0.47644  0.66271  1.0000
  I   I5        1.0  0.78686  0.13225  0.01443  1.0000
  I   I6        1.0  0.71312  0.86773  0.51444  1.0000
  I   I7        1.0  0.21312  0.86773  0.98557  1.0000
  I   I8        1.0  0.28687  0.13227  0.48556  1.0000
  N   N1        1.0  0.63694  0.13484  0.79980  1.0000
  N   N2        1.0  0.86304  0.86517  0.29980  1.0000
  N   N3        1.0  0.36304  0.86517  0.20020  1.0000
  N   N4        1.0  0.13695  0.13483  0.70020  1.0000
  N   N5        1.0  0.52067  0.32996  0.91972  1.0000
  N   N6        1.0  0.97934  0.67005  0.41972  1.0000
  N   N7        1.0  0.47934  0.67005  0.08028  1.0000
  N   N8        1.0  0.02067  0.32996  0.58028  1.0000
  N   N9        1.0  0.37723  0.79122  0.77792  1.0000
  N   N10       1.0  0.12276  0.20879  0.27792  1.0000
  N   N11       1.0  0.62276  0.20878  0.22209  1.0000
  N   N12       1.0  0.87724  0.79121  0.72208  1.0000
  N   N13       1.0  0.33860  0.60557  0.86125  1.0000
  N   N14       1.0  0.16140  0.39443  0.36125  1.0000
  N   N15       1.0  0.66140  0.39443  0.13875  1.0000
  N   N16       1.0  0.83860  0.60557  0.63875  1.0000
  O   O1        1.0  0.59447  0.72359  0.82693  1.0000
  O   O2        1.0  0.90552  0.27642  0.32693  1.0000
  O   O3        1.0  0.40553  0.27641  0.17307  1.0000
  O   O4        1.0  0.09448  0.72358  0.67307  1.0000
