data_image0
_chemical_formula_structural       Zn4H48C32O16
_chemical_formula_sum              "Zn4 H48 C32 O16"
_cell_length_a       4.764
_cell_length_b       9.34985
_cell_length_c       21.2083
_cell_angle_alpha    93.7196
_cell_angle_beta     89.9997
_cell_angle_gamma    89.9988

_space_group_name_H-M_alt    "P 1"
_space_group_IT_number       1

loop_
  _space_group_symop_operation_xyz
  'x, y, z'

loop_
  _atom_site_type_symbol
  _atom_site_label
  _atom_site_symmetry_multiplicity
  _atom_site_fract_x
  _atom_site_fract_y
  _atom_site_fract_z
  _atom_site_occupancy
  Zn  Zn1       1.0  0.54010  0.17790  0.73782  1.0000
  Zn  Zn2       1.0  0.54008  0.32209  0.26218  1.0000
  Zn  Zn3       1.0  0.45991  0.82210  0.26218  1.0000
  Zn  Zn4       1.0  0.45991  0.67791  0.73782  1.0000
  H   H1        1.0  0.92191  0.07039  0.83935  1.0000
  H   H2        1.0  0.92191  0.42959  0.16064  1.0000
  H   H3        1.0  0.07810  0.92961  0.16065  1.0000
  H   H4        1.0  0.07809  0.57041  0.83936  1.0000
  H   H5        1.0  0.59501  0.10172  0.87520  1.0000
  H   H6        1.0  0.59500  0.39827  0.12479  1.0000
  H   H7        1.0  0.40500  0.89827  0.12479  1.0000
  H   H8        1.0  0.40499  0.60174  0.87521  1.0000
  H   H9        1.0  0.66569  0.87310  0.93491  1.0000
  H   H10       1.0  0.66569  0.62689  0.06509  1.0000
  H   H11       1.0  0.33430  0.12690  0.06509  1.0000
  H   H12       1.0  0.33432  0.37310  0.93490  1.0000
  H   H13       1.0  0.00604  0.85881  0.90302  1.0000
  H   H14       1.0  0.00603  0.64118  0.09698  1.0000
  H   H15       1.0  0.99396  0.14119  0.09698  1.0000
  H   H16       1.0  0.99397  0.35882  0.90301  1.0000
  H   H17       1.0  0.78095  0.11465  0.98657  1.0000
  H   H18       1.0  0.78096  0.38534  0.01343  1.0000
  H   H19       1.0  0.21905  0.88535  0.01343  1.0000
  H   H20       1.0  0.21904  0.61465  0.98657  1.0000
  H   H21       1.0  0.12096  0.10479  0.95413  1.0000
  H   H22       1.0  0.12096  0.39520  0.04587  1.0000
  H   H23       1.0  0.87904  0.89521  0.04587  1.0000
  H   H24       1.0  0.87903  0.60479  0.95413  1.0000
  H   H25       1.0  0.75385  0.25047  0.59899  1.0000
  H   H26       1.0  0.75383  0.24953  0.40101  1.0000
  H   H27       1.0  0.24615  0.74953  0.40102  1.0000
  H   H28       1.0  0.24616  0.75047  0.59898  1.0000
  H   H29       1.0  0.77747  0.40345  0.64985  1.0000
  H   H30       1.0  0.77744  0.09655  0.35015  1.0000
  H   H31       1.0  0.22253  0.59655  0.35015  1.0000
  H   H32       1.0  0.22257  0.90346  0.64985  1.0000
  H   H33       1.0  0.22794  0.47463  0.59880  1.0000
  H   H34       1.0  0.22792  0.02536  0.40121  1.0000
  H   H35       1.0  0.77207  0.52536  0.40121  1.0000
  H   H36       1.0  0.77207  0.97465  0.59879  1.0000
  H   H37       1.0  0.22880  0.31450  0.55079  1.0000
  H   H38       1.0  0.22878  0.18550  0.44921  1.0000
  H   H39       1.0  0.77120  0.68549  0.44921  1.0000
  H   H40       1.0  0.77122  0.81451  0.55079  1.0000
  H   H41       1.0  0.77358  0.54741  0.54868  1.0000
  H   H42       1.0  0.77357  0.95259  0.45132  1.0000
  H   H43       1.0  0.22642  0.45259  0.45132  1.0000
  H   H44       1.0  0.22642  0.04743  0.54868  1.0000
  H   H45       1.0  0.77038  0.38514  0.50189  1.0000
  H   H46       1.0  0.77036  0.11487  0.49811  1.0000
  H   H47       1.0  0.22964  0.61485  0.49811  1.0000
  H   H48       1.0  0.22964  0.88515  0.50189  1.0000
  C   C1        1.0  0.60720  0.92192  0.80926  1.0000
  C   C2        1.0  0.60720  0.57807  0.19073  1.0000
  C   C3        1.0  0.39281  0.07808  0.19073  1.0000
  C   C4        1.0  0.39280  0.42194  0.80927  1.0000
  C   C5        1.0  0.74458  0.01557  0.86105  1.0000
  C   C6        1.0  0.74457  0.48442  0.13894  1.0000
  C   C7        1.0  0.25544  0.98443  0.13895  1.0000
  C   C8        1.0  0.25543  0.51559  0.86105  1.0000
  C   C9        1.0  0.84145  0.93665  0.91781  1.0000
  C   C10       1.0  0.84143  0.56334  0.08219  1.0000
  C   C11       1.0  0.15856  0.06335  0.08219  1.0000
  C   C12       1.0  0.15856  0.43665  0.91781  1.0000
  C   C13       1.0  0.94918  0.03866  0.97152  1.0000
  C   C14       1.0  0.94918  0.46132  0.02848  1.0000
  C   C15       1.0  0.05082  0.96133  0.02848  1.0000
  C   C16       1.0  0.05081  0.53866  0.97152  1.0000
  C   C17       1.0  0.06542  0.24102  0.66984  1.0000
  C   C18       1.0  0.06539  0.25897  0.33016  1.0000
  C   C19       1.0  0.93459  0.75897  0.33017  1.0000
  C   C20       1.0  0.93460  0.74104  0.66983  1.0000
  C   C21       1.0  0.90724  0.32399  0.62261  1.0000
  C   C22       1.0  0.90722  0.17600  0.37740  1.0000
  C   C23       1.0  0.09276  0.67601  0.37740  1.0000
  C   C24       1.0  0.09278  0.82400  0.62260  1.0000
  C   C25       1.0  0.08879  0.39486  0.57438  1.0000
  C   C26       1.0  0.08878  0.10514  0.42562  1.0000
  C   C27       1.0  0.91122  0.60514  0.42562  1.0000
  C   C28       1.0  0.91122  0.89487  0.57438  1.0000
  C   C29       1.0  0.91190  0.46586  0.52508  1.0000
  C   C30       1.0  0.91189  0.03414  0.47493  1.0000
  C   C31       1.0  0.08811  0.53414  0.47493  1.0000
  C   C32       1.0  0.08810  0.96587  0.52508  1.0000
  O   O1        1.0  0.51615  0.97544  0.75917  1.0000
  O   O2        1.0  0.51616  0.52455  0.24083  1.0000
  O   O3        1.0  0.48385  0.02455  0.24083  1.0000
  O   O4        1.0  0.48384  0.47546  0.75917  1.0000
  O   O5        1.0  0.58453  0.78789  0.81631  1.0000
  O   O6        1.0  0.58454  0.71210  0.18368  1.0000
  O   O7        1.0  0.41547  0.21211  0.18368  1.0000
  O   O8        1.0  0.41547  0.28791  0.81632  1.0000
  O   O9        1.0  0.94188  0.19376  0.71775  1.0000
  O   O10       1.0  0.94186  0.30622  0.28225  1.0000
  O   O11       1.0  0.05812  0.80624  0.28226  1.0000
  O   O12       1.0  0.05812  0.69378  0.71775  1.0000
  O   O13       1.0  0.32817  0.22044  0.66129  1.0000
  O   O14       1.0  0.32813  0.27956  0.33871  1.0000
  O   O15       1.0  0.67184  0.77956  0.33871  1.0000
  O   O16       1.0  0.67185  0.72045  0.66129  1.0000
