data_image0
_chemical_formula_structural       Pr4H48C30O30
_chemical_formula_sum              "Pr4 H48 C30 O30"
_cell_length_a       8.87058
_cell_length_b       9.81638
_cell_length_c       16.1757
_cell_angle_alpha    103.853
_cell_angle_beta     103.634
_cell_angle_gamma    98.2921

_space_group_name_H-M_alt    "P 1"
_space_group_IT_number       1

loop_
  _space_group_symop_operation_xyz
  'x, y, z'

loop_
  _atom_site_type_symbol
  _atom_site_label
  _atom_site_symmetry_multiplicity
  _atom_site_fract_x
  _atom_site_fract_y
  _atom_site_fract_z
  _atom_site_occupancy
  Pr  Pr1       1.0  0.18802  0.95372  0.08987  1.0000
  Pr  Pr2       1.0  0.81198  0.04629  0.91013  1.0000
  Pr  Pr3       1.0  0.35182  0.92307  0.36556  1.0000
  Pr  Pr4       1.0  0.64817  0.07693  0.63444  1.0000
  H   H1        1.0  0.75746  0.92776  0.19900  1.0000
  H   H2        1.0  0.24254  0.07224  0.80100  1.0000
  H   H3        1.0  0.69984  0.95077  0.29841  1.0000
  H   H4        1.0  0.30015  0.04923  0.70159  1.0000
  H   H5        1.0  0.73442  0.21260  0.31944  1.0000
  H   H6        1.0  0.26558  0.78740  0.68056  1.0000
  H   H7        1.0  0.77775  0.19660  0.21688  1.0000
  H   H8        1.0  0.22225  0.80340  0.78312  1.0000
  H   H9        1.0  0.02360  0.27701  0.34914  1.0000
  H   H10       1.0  0.97640  0.72299  0.65086  1.0000
  H   H11       1.0  0.97467  0.11490  0.37478  1.0000
  H   H12       1.0  0.02532  0.88510  0.62522  1.0000
  H   H13       1.0  0.88163  0.56478  0.21071  1.0000
  H   H14       1.0  0.11837  0.43522  0.78929  1.0000
  H   H15       1.0  0.86770  0.52954  0.09614  1.0000
  H   H16       1.0  0.13230  0.47047  0.90386  1.0000
  H   H17       1.0  0.92994  0.32254  0.14739  1.0000
  H   H18       1.0  0.07006  0.67746  0.85260  1.0000
  H   H19       1.0  0.09741  0.43191  0.23389  1.0000
  H   H20       1.0  0.90259  0.56809  0.76611  1.0000
  H   H21       1.0  0.06955  0.40556  0.03788  1.0000
  H   H22       1.0  0.93045  0.59444  0.96212  1.0000
  H   H23       1.0  0.24315  0.47661  0.13176  1.0000
  H   H24       1.0  0.75684  0.52339  0.86824  1.0000
  H   H25       1.0  0.77781  0.73776  0.52003  1.0000
  H   H26       1.0  0.22219  0.26224  0.47997  1.0000
  H   H27       1.0  0.88797  0.86416  0.48455  1.0000
  H   H28       1.0  0.11203  0.13584  0.51544  1.0000
  H   H29       1.0  0.80988  0.67272  0.33040  1.0000
  H   H30       1.0  0.19012  0.32728  0.66960  1.0000
  H   H31       1.0  0.74461  0.54674  0.38253  1.0000
  H   H32       1.0  0.25539  0.45326  0.61747  1.0000
  H   H33       1.0  0.02683  0.61912  0.49366  1.0000
  H   H34       1.0  0.97318  0.38088  0.50634  1.0000
  H   H35       1.0  0.01629  0.53088  0.38401  1.0000
  H   H36       1.0  0.98372  0.46911  0.61599  1.0000
  H   H37       1.0  0.34977  0.96148  0.92964  1.0000
  H   H38       1.0  0.65022  0.03852  0.07036  1.0000
  H   H39       1.0  0.15990  0.92898  0.89576  1.0000
  H   H40       1.0  0.84010  0.07102  0.10425  1.0000
  H   H41       1.0  0.35494  0.73898  0.00551  1.0000
  H   H42       1.0  0.64505  0.26103  0.99449  1.0000
  H   H43       1.0  0.34076  0.68561  0.08754  1.0000
  H   H44       1.0  0.65925  0.31439  0.91246  1.0000
  H   H45       1.0  0.46987  0.23608  0.37275  1.0000
  H   H46       1.0  0.53013  0.76392  0.62725  1.0000
  H   H47       1.0  0.60493  0.21605  0.45220  1.0000
  H   H48       1.0  0.39507  0.78395  0.54780  1.0000
  C   C1        1.0  0.52890  0.97463  0.18856  1.0000
  C   C2        1.0  0.47110  0.02538  0.81144  1.0000
  C   C3        1.0  0.69830  0.99304  0.24145  1.0000
  C   C4        1.0  0.30170  0.00696  0.75855  1.0000
  C   C5        1.0  0.78890  0.15049  0.27301  1.0000
  C   C6        1.0  0.21110  0.84951  0.72700  1.0000
  C   C7        1.0  0.96296  0.16316  0.31953  1.0000
  C   C8        1.0  0.03704  0.83684  0.68047  1.0000
  C   C9        1.0  0.06072  0.09588  0.26205  1.0000
  C   C10       1.0  0.93928  0.90412  0.73796  1.0000
  C   C11       1.0  0.07221  0.68636  0.18340  1.0000
  C   C12       1.0  0.92779  0.31364  0.81660  1.0000
  C   C13       1.0  0.95036  0.54806  0.16191  1.0000
  C   C14       1.0  0.04964  0.45195  0.83809  1.0000
  C   C15       1.0  0.02535  0.41832  0.16595  1.0000
  C   C16       1.0  0.97464  0.58169  0.83405  1.0000
  C   C17       1.0  0.13148  0.39593  0.10292  1.0000
  C   C18       1.0  0.86852  0.60407  0.89708  1.0000
  C   C19       1.0  0.16699  0.24837  0.08997  1.0000
  C   C20       1.0  0.83301  0.75163  0.91003  1.0000
  C   C21       1.0  0.64336  0.82064  0.42527  1.0000
  C   C22       1.0  0.35664  0.17936  0.57472  1.0000
  C   C23       1.0  0.79033  0.76864  0.46044  1.0000
  C   C24       1.0  0.20967  0.23136  0.53956  1.0000
  C   C25       1.0  0.82814  0.64850  0.39446  1.0000
  C   C26       1.0  0.17187  0.35150  0.60554  1.0000
  C   C27       1.0  0.99847  0.63027  0.42586  1.0000
  C   C28       1.0  0.00153  0.36972  0.57413  1.0000
  C   C29       1.0  0.12520  0.74985  0.42322  1.0000
  C   C30       1.0  0.87481  0.25015  0.57678  1.0000
  O   O1        1.0  0.41361  0.93908  0.21971  1.0000
  O   O2        1.0  0.58639  0.06092  0.78029  1.0000
  O   O3        1.0  0.49786  0.99309  0.11111  1.0000
  O   O4        1.0  0.50214  0.00692  0.88889  1.0000
  O   O5        1.0  0.19536  0.07662  0.30060  1.0000
  O   O6        1.0  0.80464  0.92338  0.69940  1.0000
  O   O7        1.0  0.00889  0.06406  0.17783  1.0000
  O   O8        1.0  0.99111  0.93594  0.82217  1.0000
  O   O9        1.0  0.04477  0.76983  0.13492  1.0000
  O   O10       1.0  0.95523  0.23017  0.86508  1.0000
  O   O11       1.0  0.19501  0.71059  0.24839  1.0000
  O   O12       1.0  0.80499  0.28941  0.75161  1.0000
  O   O13       1.0  0.06528  0.14279  0.02911  1.0000
  O   O14       1.0  0.93473  0.85722  0.97090  1.0000
  O   O15       1.0  0.28729  0.22410  0.13973  1.0000
  O   O16       1.0  0.71270  0.77590  0.86027  1.0000
  O   O17       1.0  0.55350  0.76481  0.34728  1.0000
  O   O18       1.0  0.44650  0.23519  0.65272  1.0000
  O   O19       1.0  0.61211  0.92851  0.47765  1.0000
  O   O20       1.0  0.38789  0.07148  0.52235  1.0000
  O   O21       1.0  0.08623  0.85177  0.39309  1.0000
  O   O22       1.0  0.91377  0.14823  0.60691  1.0000
  O   O23       1.0  0.27177  0.74072  0.44762  1.0000
  O   O24       1.0  0.72824  0.25928  0.55238  1.0000
  O   O25       1.0  0.25087  0.92788  0.94531  1.0000
  O   O26       1.0  0.74913  0.07212  0.05469  1.0000
  O   O27       1.0  0.27961  0.70934  0.03640  1.0000
  O   O28       1.0  0.72039  0.29067  0.96360  1.0000
  O   O29       1.0  0.53071  0.16843  0.39133  1.0000
  O   O30       1.0  0.46930  0.83157  0.60867  1.0000
