data_image0
_chemical_formula_structural       Ag8H40C48N16O16
_chemical_formula_sum              "Ag8 H40 C48 N16 O16"
_cell_length_a       9.44259
_cell_length_b       10.1261
_cell_length_c       13.6966
_cell_angle_alpha    90.0002
_cell_angle_beta     100.278
_cell_angle_gamma    89.9999

_space_group_name_H-M_alt    "P 1"
_space_group_IT_number       1

loop_
  _space_group_symop_operation_xyz
  'x, y, z'

loop_
  _atom_site_type_symbol
  _atom_site_label
  _atom_site_symmetry_multiplicity
  _atom_site_fract_x
  _atom_site_fract_y
  _atom_site_fract_z
  _atom_site_occupancy
  Ag  Ag1       1.0  0.42880  0.38044  0.13402  1.0000
  Ag  Ag2       1.0  0.07119  0.88043  0.36598  1.0000
  Ag  Ag3       1.0  0.57120  0.61957  0.86598  1.0000
  Ag  Ag4       1.0  0.92881  0.11957  0.63402  1.0000
  Ag  Ag5       1.0  0.63138  0.36337  0.52650  1.0000
  Ag  Ag6       1.0  0.86861  0.86337  0.97351  1.0000
  Ag  Ag7       1.0  0.36862  0.63662  0.47351  1.0000
  Ag  Ag8       1.0  0.13139  0.13663  0.02649  1.0000
  H   H1        1.0  0.85760  0.65996  0.27143  1.0000
  H   H2        1.0  0.64239  0.15995  0.22858  1.0000
  H   H3        1.0  0.14240  0.34004  0.72857  1.0000
  H   H4        1.0  0.35761  0.84005  0.77143  1.0000
  H   H5        1.0  0.84837  0.58377  0.62052  1.0000
  H   H6        1.0  0.65163  0.08377  0.87948  1.0000
  H   H7        1.0  0.15163  0.41623  0.37948  1.0000
  H   H8        1.0  0.34837  0.91623  0.12052  1.0000
  H   H9        1.0  0.06842  0.77363  0.16108  1.0000
  H   H10       1.0  0.43157  0.27364  0.33892  1.0000
  H   H11       1.0  0.93158  0.22637  0.83892  1.0000
  H   H12       1.0  0.56843  0.72636  0.66108  1.0000
  H   H13       1.0  0.23394  0.47734  0.92566  1.0000
  H   H14       1.0  0.26606  0.97734  0.57434  1.0000
  H   H15       1.0  0.76605  0.52266  0.07434  1.0000
  H   H16       1.0  0.73394  0.02266  0.42565  1.0000
  H   H17       1.0  0.06725  0.75576  0.81434  1.0000
  H   H18       1.0  0.43275  0.25576  0.68565  1.0000
  H   H19       1.0  0.93275  0.24424  0.18566  1.0000
  H   H20       1.0  0.56725  0.74424  0.31434  1.0000
  H   H21       1.0  0.91562  0.65876  0.82596  1.0000
  H   H22       1.0  0.58437  0.15876  0.67404  1.0000
  H   H23       1.0  0.08437  0.34124  0.17404  1.0000
  H   H24       1.0  0.41563  0.84124  0.32596  1.0000
  H   H25       1.0  0.07343  0.58214  0.79381  1.0000
  H   H26       1.0  0.42658  0.08214  0.70619  1.0000
  H   H27       1.0  0.92657  0.41786  0.20619  1.0000
  H   H28       1.0  0.57343  0.91786  0.29381  1.0000
  H   H29       1.0  0.02874  0.88657  0.55966  1.0000
  H   H30       1.0  0.47126  0.38657  0.94034  1.0000
  H   H31       1.0  0.97125  0.11343  0.44034  1.0000
  H   H32       1.0  0.52874  0.61343  0.05966  1.0000
  H   H33       1.0  0.14888  0.75236  0.59413  1.0000
  H   H34       1.0  0.35112  0.25237  0.90587  1.0000
  H   H35       1.0  0.85112  0.24764  0.40587  1.0000
  H   H36       1.0  0.64888  0.74763  0.09413  1.0000
  H   H37       1.0  0.00550  0.78121  0.65899  1.0000
  H   H38       1.0  0.49450  0.28121  0.84101  1.0000
  H   H39       1.0  0.99450  0.21880  0.34101  1.0000
  H   H40       1.0  0.50550  0.71879  0.15899  1.0000
  C   C1        1.0  0.03400  0.65875  0.83861  1.0000
  C   C2        1.0  0.46600  0.15876  0.66139  1.0000
  C   C3        1.0  0.96600  0.34124  0.16139  1.0000
  C   C4        1.0  0.53400  0.84124  0.33861  1.0000
  C   C5        1.0  0.10482  0.70606  0.10898  1.0000
  C   C6        1.0  0.39517  0.20606  0.39102  1.0000
  C   C7        1.0  0.89518  0.29394  0.89102  1.0000
  C   C8        1.0  0.60483  0.79393  0.60898  1.0000
  C   C9        1.0  0.20396  0.60610  0.14160  1.0000
  C   C10       1.0  0.29603  0.10610  0.35840  1.0000
  C   C11       1.0  0.79603  0.39390  0.85840  1.0000
  C   C12       1.0  0.70397  0.89390  0.64159  1.0000
  C   C13       1.0  0.85482  0.59915  0.54259  1.0000
  C   C14       1.0  0.64518  0.09915  0.95741  1.0000
  C   C15       1.0  0.14519  0.40085  0.45741  1.0000
  C   C16       1.0  0.35482  0.90086  0.04259  1.0000
  C   C17       1.0  0.03542  0.78369  0.58552  1.0000
  C   C18       1.0  0.46458  0.28369  0.91448  1.0000
  C   C19       1.0  0.96458  0.21631  0.41447  1.0000
  C   C20       1.0  0.53542  0.71631  0.08552  1.0000
  C   C21       1.0  0.19523  0.54153  0.97926  1.0000
  C   C22       1.0  0.30477  0.04153  0.52074  1.0000
  C   C23       1.0  0.80477  0.45847  0.02074  1.0000
  C   C24       1.0  0.69523  0.95846  0.47926  1.0000
  C   C25       1.0  0.09364  0.64008  0.94586  1.0000
  C   C26       1.0  0.40636  0.14008  0.55414  1.0000
  C   C27       1.0  0.90636  0.35992  0.05414  1.0000
  C   C28       1.0  0.59364  0.85991  0.44586  1.0000
  C   C29       1.0  0.77631  0.53770  0.37977  1.0000
  C   C30       1.0  0.72368  0.03769  0.12024  1.0000
  C   C31       1.0  0.22369  0.46231  0.62024  1.0000
  C   C32       1.0  0.27631  0.96231  0.87976  1.0000
  C   C33       1.0  0.26162  0.58695  0.25169  1.0000
  C   C34       1.0  0.23838  0.08695  0.24831  1.0000
  C   C35       1.0  0.73838  0.41305  0.74831  1.0000
  C   C36       1.0  0.76162  0.91305  0.75168  1.0000
  C   C37       1.0  0.68771  0.44733  0.30358  1.0000
  C   C38       1.0  0.81228  0.94733  0.19642  1.0000
  C   C39       1.0  0.31229  0.55267  0.69642  1.0000
  C   C40       1.0  0.18772  0.05267  0.80358  1.0000
  C   C41       1.0  0.85963  0.63902  0.34975  1.0000
  C   C42       1.0  0.64036  0.13901  0.15025  1.0000
  C   C43       1.0  0.14037  0.36098  0.65025  1.0000
  C   C44       1.0  0.35964  0.86099  0.84975  1.0000
  C   C45       1.0  0.94197  0.69825  0.51324  1.0000
  C   C46       1.0  0.55803  0.19825  0.98676  1.0000
  C   C47       1.0  0.05803  0.30175  0.48676  1.0000
  C   C48       1.0  0.44197  0.80175  0.01324  1.0000
  N   N1        1.0  0.94203  0.71728  0.41556  1.0000
  N   N2        1.0  0.55796  0.21728  0.08444  1.0000
  N   N3        1.0  0.05797  0.28272  0.58443  1.0000
  N   N4        1.0  0.44204  0.78272  0.91557  1.0000
  N   N5        1.0  0.77430  0.51957  0.47703  1.0000
  N   N6        1.0  0.72570  0.01957  0.02297  1.0000
  N   N7        1.0  0.22571  0.48043  0.52297  1.0000
  N   N8        1.0  0.27430  0.98043  0.97703  1.0000
  N   N9        1.0  0.04881  0.72182  0.01221  1.0000
  N   N10       1.0  0.45119  0.22182  0.48779  1.0000
  N   N11       1.0  0.95119  0.27817  0.98779  1.0000
  N   N12       1.0  0.54882  0.77817  0.51220  1.0000
  N   N13       1.0  0.24881  0.52405  0.07580  1.0000
  N   N14       1.0  0.25118  0.02404  0.42420  1.0000
  N   N15       1.0  0.75119  0.47595  0.92420  1.0000
  N   N16       1.0  0.74881  0.97595  0.57579  1.0000
  O   O1        1.0  0.66380  0.49149  0.21558  1.0000
  O   O2        1.0  0.83620  0.99149  0.28442  1.0000
  O   O3        1.0  0.33620  0.50851  0.78442  1.0000
  O   O4        1.0  0.16380  0.00851  0.71558  1.0000
  O   O5        1.0  0.64870  0.33759  0.33380  1.0000
  O   O6        1.0  0.85130  0.83758  0.16620  1.0000
  O   O7        1.0  0.35130  0.66242  0.66620  1.0000
  O   O8        1.0  0.14870  0.16242  0.83380  1.0000
  O   O9        1.0  0.34902  0.49375  0.27761  1.0000
  O   O10       1.0  0.15098  0.99374  0.22239  1.0000
  O   O11       1.0  0.65098  0.50626  0.72239  1.0000
  O   O12       1.0  0.84902  0.00625  0.77761  1.0000
  O   O13       1.0  0.21525  0.66781  0.30978  1.0000
  O   O14       1.0  0.28475  0.16781  0.19022  1.0000
  O   O15       1.0  0.78475  0.33219  0.69022  1.0000
  O   O16       1.0  0.71525  0.83219  0.80978  1.0000
