data_image0
_chemical_formula_structural       Ag4H22C24N10O14
_chemical_formula_sum              "Ag4 H22 C24 N10 O14"
_cell_length_a       8.30387
_cell_length_b       7.78492
_cell_length_c       13.5807
_cell_angle_alpha    89.4286
_cell_angle_beta     97.0495
_cell_angle_gamma    58.6578

_space_group_name_H-M_alt    "P 1"
_space_group_IT_number       1

loop_
  _space_group_symop_operation_xyz
  'x, y, z'

loop_
  _atom_site_type_symbol
  _atom_site_label
  _atom_site_symmetry_multiplicity
  _atom_site_fract_x
  _atom_site_fract_y
  _atom_site_fract_z
  _atom_site_occupancy
  Ag  Ag1       1.0  0.04718  0.86069  0.23060  1.0000
  Ag  Ag2       1.0  0.95282  0.13930  0.76939  1.0000
  Ag  Ag3       1.0  0.68871  0.21526  0.31784  1.0000
  Ag  Ag4       1.0  0.31128  0.78475  0.68216  1.0000
  H   H1        1.0  0.31506  0.47883  0.19082  1.0000
  H   H2        1.0  0.68494  0.52116  0.80917  1.0000
  H   H3        1.0  0.19423  0.42097  0.09205  1.0000
  H   H4        1.0  0.80578  0.57903  0.90794  1.0000
  H   H5        1.0  0.44814  0.30322  0.10839  1.0000
  H   H6        1.0  0.55186  0.69678  0.89161  1.0000
  H   H7        1.0  0.10720  0.17785  0.13756  1.0000
  H   H8        1.0  0.89281  0.82214  0.86243  1.0000
  H   H9        1.0  0.62770  0.90183  0.41639  1.0000
  H   H10       1.0  0.37230  0.09818  0.58361  1.0000
  H   H11       1.0  0.09681  0.54564  0.38579  1.0000
  H   H12       1.0  0.90319  0.45436  0.61422  1.0000
  H   H13       1.0  0.60610  0.56284  0.14315  1.0000
  H   H14       1.0  0.39390  0.43716  0.85685  1.0000
  H   H15       1.0  0.69149  0.97692  0.10945  1.0000
  H   H16       1.0  0.30852  0.02307  0.89054  1.0000
  H   H17       1.0  0.56730  0.85689  0.05752  1.0000
  H   H18       1.0  0.43271  0.14310  0.94248  1.0000
  H   H19       1.0  0.80435  0.77441  0.03718  1.0000
  H   H20       1.0  0.19566  0.22557  0.96282  1.0000
  H   H21       1.0  0.56387  0.57735  0.53811  1.0000
  H   H22       1.0  0.43613  0.42266  0.46189  1.0000
  C   C1        1.0  0.32323  0.35674  0.14713  1.0000
  C   C2        1.0  0.67678  0.64326  0.85286  1.0000
  C   C3        1.0  0.34648  0.19145  0.21438  1.0000
  C   C4        1.0  0.65352  0.80855  0.78561  1.0000
  C   C5        1.0  0.22317  0.11781  0.20037  1.0000
  C   C6        1.0  0.77683  0.88218  0.79963  1.0000
  C   C7        1.0  0.38528  0.89450  0.33967  1.0000
  C   C8        1.0  0.61472  0.10549  0.66033  1.0000
  C   C9        1.0  0.50918  0.96578  0.35468  1.0000
  C   C10       1.0  0.49082  0.03422  0.64532  1.0000
  C   C11       1.0  0.42279  0.72108  0.40747  1.0000
  C   C12       1.0  0.57721  0.27892  0.59253  1.0000
  C   C13       1.0  0.98634  0.55076  0.33165  1.0000
  C   C14       1.0  0.01365  0.44924  0.66835  1.0000
  C   C15       1.0  0.91611  0.42558  0.34730  1.0000
  C   C16       1.0  0.08388  0.57443  0.65270  1.0000
  C   C17       1.0  0.98526  0.28309  0.44126  1.0000
  C   C18       1.0  0.01473  0.71692  0.55875  1.0000
  C   C19       1.0  0.71568  0.55954  0.19756  1.0000
  C   C20       1.0  0.28432  0.44046  0.80244  1.0000
  C   C21       1.0  0.78179  0.68896  0.18175  1.0000
  C   C22       1.0  0.21821  0.31104  0.81824  1.0000
  C   C23       1.0  0.70454  0.83325  0.09167  1.0000
  C   C24       1.0  0.29547  0.16675  0.90832  1.0000
  N   N1        1.0  0.49116  0.11075  0.29169  1.0000
  N   N2        1.0  0.50884  0.88925  0.70831  1.0000
  N   N3        1.0  0.24298  0.97004  0.26177  1.0000
  N   N4        1.0  0.75703  0.02995  0.73823  1.0000
  N   N5        1.0  0.91896  0.68189  0.25025  1.0000
  N   N6        1.0  0.08104  0.31811  0.74975  1.0000
  N   N7        1.0  0.78075  0.43197  0.27952  1.0000
  N   N8        1.0  0.21924  0.56803  0.72048  1.0000
  N   N9        1.0  0.20118  0.78466  0.98762  1.0000
  N   N10       1.0  0.79882  0.21534  0.01239  1.0000
  O   O1        1.0  0.52328  0.70466  0.49322  1.0000
  O   O2        1.0  0.47671  0.29533  0.50678  1.0000
  O   O3        1.0  0.37255  0.60124  0.38072  1.0000
  O   O4        1.0  0.62745  0.39877  0.61929  1.0000
  O   O5        1.0  0.14470  0.23776  0.48781  1.0000
  O   O6        1.0  0.85527  0.76224  0.51220  1.0000
  O   O7        1.0  0.87377  0.22803  0.46348  1.0000
  O   O8        1.0  0.12619  0.77200  0.53652  1.0000
  O   O9        1.0  0.06902  0.76987  0.01670  1.0000
  O   O10       1.0  0.93098  0.23015  0.98331  1.0000
  O   O11       1.0  0.33293  0.77367  0.04981  1.0000
  O   O12       1.0  0.66708  0.22634  0.95018  1.0000
  O   O13       1.0  0.20077  0.80949  0.89446  1.0000
  O   O14       1.0  0.79922  0.19051  0.10554  1.0000
