data_image0
_chemical_formula_structural       Ni2H44C44N8O12
_chemical_formula_sum              "Ni2 H44 C44 N8 O12"
_cell_length_a       8.52352
_cell_length_b       10.9112
_cell_length_c       11.3132
_cell_angle_alpha    93.282
_cell_angle_beta     90.0005
_cell_angle_gamma    90.0002

_space_group_name_H-M_alt    "P 1"
_space_group_IT_number       1

loop_
  _space_group_symop_operation_xyz
  'x, y, z'

loop_
  _atom_site_type_symbol
  _atom_site_label
  _atom_site_symmetry_multiplicity
  _atom_site_fract_x
  _atom_site_fract_y
  _atom_site_fract_z
  _atom_site_occupancy
  Ni  Ni1       1.0  0.74259  0.49842  0.74828  1.0000
  Ni  Ni2       1.0  0.24259  0.50158  0.25172  1.0000
  H   H1        1.0  0.71786  0.50049  0.52073  1.0000
  H   H2        1.0  0.21786  0.49951  0.47927  1.0000
  H   H3        1.0  0.88189  0.42321  0.52124  1.0000
  H   H4        1.0  0.38189  0.57679  0.47876  1.0000
  H   H5        1.0  0.76836  0.48729  0.97522  1.0000
  H   H6        1.0  0.26836  0.51271  0.02478  1.0000
  H   H7        1.0  0.60050  0.56133  0.97739  1.0000
  H   H8        1.0  0.10051  0.43867  0.02261  1.0000
  H   H9        1.0  0.27335  0.19638  0.51759  1.0000
  H   H10       1.0  0.77335  0.80361  0.48240  1.0000
  H   H11       1.0  0.17059  0.16513  0.64750  1.0000
  H   H12       1.0  0.67059  0.83487  0.35249  1.0000
  H   H13       1.0  0.61076  0.24758  0.63541  1.0000
  H   H14       1.0  0.11076  0.75242  0.36459  1.0000
  H   H15       1.0  0.38355  0.54340  0.82020  1.0000
  H   H16       1.0  0.88355  0.45660  0.17980  1.0000
  H   H17       1.0  0.15775  0.37252  0.73948  1.0000
  H   H18       1.0  0.65775  0.62748  0.26050  1.0000
  H   H19       1.0  0.31360  0.82343  0.88179  1.0000
  H   H20       1.0  0.81360  0.17657  0.11821  1.0000
  H   H21       1.0  0.17570  0.79221  0.99167  1.0000
  H   H22       1.0  0.67570  0.20779  0.00834  1.0000
  H   H23       1.0  0.94634  0.65177  0.94091  1.0000
  H   H24       1.0  0.44634  0.34824  0.05910  1.0000
  H   H25       1.0  0.00764  0.59075  0.57209  1.0000
  H   H26       1.0  0.50764  0.40924  0.42792  1.0000
  H   H27       1.0  0.22521  0.76290  0.65553  1.0000
  H   H28       1.0  0.72521  0.23710  0.34448  1.0000
  H   H29       1.0  0.46549  0.07814  0.79058  1.0000
  H   H30       1.0  0.96549  0.92186  0.20942  1.0000
  H   H31       1.0  0.58530  0.86972  0.78952  1.0000
  H   H32       1.0  0.08529  0.13028  0.21047  1.0000
  H   H33       1.0  0.41376  0.78736  0.43697  1.0000
  H   H34       1.0  0.91375  0.21264  0.56303  1.0000
  H   H35       1.0  0.29446  0.99647  0.43673  1.0000
  H   H36       1.0  0.79445  0.00353  0.56327  1.0000
  H   H37       1.0  0.95100  0.89780  0.75302  1.0000
  H   H38       1.0  0.45101  0.10220  0.24698  1.0000
  H   H39       1.0  0.84044  0.10809  0.74595  1.0000
  H   H40       1.0  0.34044  0.89190  0.25405  1.0000
  H   H41       1.0  0.14961  0.23672  0.02614  1.0000
  H   H42       1.0  0.64962  0.76328  0.97386  1.0000
  H   H43       1.0  0.26678  0.02828  0.03017  1.0000
  H   H44       1.0  0.76679  0.97172  0.96983  1.0000
  C   C1        1.0  0.28893  0.17296  0.60993  1.0000
  C   C2        1.0  0.78893  0.82704  0.39006  1.0000
  C   C3        1.0  0.51975  0.30398  0.67715  1.0000
  C   C4        1.0  0.01975  0.69602  0.32285  1.0000
  C   C5        1.0  0.39641  0.45610  0.77072  1.0000
  C   C6        1.0  0.89641  0.54390  0.22927  1.0000
  C   C7        1.0  0.28459  0.37200  0.73342  1.0000
  C   C8        1.0  0.78459  0.62800  0.26657  1.0000
  C   C9        1.0  0.18720  0.82212  0.90099  1.0000
  C   C10       1.0  0.68720  0.17788  0.09901  1.0000
  C   C11       1.0  0.99293  0.65596  0.85212  1.0000
  C   C12       1.0  0.49293  0.34404  0.14788  1.0000
  C   C13       1.0  0.02609  0.62904  0.66123  1.0000
  C   C14       1.0  0.52609  0.37096  0.33878  1.0000
  C   C15       1.0  0.13527  0.71407  0.70119  1.0000
  C   C16       1.0  0.63527  0.28593  0.29882  1.0000
  C   C17       1.0  0.37224  0.05139  0.61311  1.0000
  C   C18       1.0  0.87224  0.94862  0.38689  1.0000
  C   C19       1.0  0.45476  0.01529  0.71246  1.0000
  C   C20       1.0  0.95475  0.98471  0.28754  1.0000
  C   C21       1.0  0.52186  0.89879  0.71237  1.0000
  C   C22       1.0  0.02185  0.10121  0.28763  1.0000
  C   C23       1.0  0.50752  0.81564  0.61370  1.0000
  C   C24       1.0  0.00751  0.18437  0.38631  1.0000
  C   C25       1.0  0.42563  0.85180  0.51386  1.0000
  C   C26       1.0  0.92562  0.14820  0.48614  1.0000
  C   C27       1.0  0.35914  0.96853  0.51413  1.0000
  C   C28       1.0  0.85913  0.03147  0.48586  1.0000
  C   C29       1.0  0.57804  0.68878  0.61602  1.0000
  C   C30       1.0  0.07803  0.31122  0.38398  1.0000
  C   C31       1.0  0.11650  0.94856  0.89238  1.0000
  C   C32       1.0  0.61651  0.05144  0.10762  1.0000
  C   C33       1.0  0.99661  0.97176  0.81223  1.0000
  C   C34       1.0  0.49661  0.02824  0.18777  1.0000
  C   C35       1.0  0.93426  0.08956  0.80782  1.0000
  C   C36       1.0  0.43427  0.91044  0.19218  1.0000
  C   C37       1.0  0.98753  0.18548  0.88494  1.0000
  C   C38       1.0  0.48754  0.81452  0.11507  1.0000
  C   C39       1.0  0.10711  0.16227  0.96607  1.0000
  C   C40       1.0  0.60712  0.83773  0.03394  1.0000
  C   C41       1.0  0.17213  0.04529  0.96811  1.0000
  C   C42       1.0  0.67213  0.95471  0.03189  1.0000
  C   C43       1.0  0.91299  0.31017  0.88182  1.0000
  C   C44       1.0  0.41300  0.68983  0.11818  1.0000
  N   N1        1.0  0.36437  0.27599  0.67518  1.0000
  N   N2        1.0  0.86436  0.72401  0.32481  1.0000
  N   N3        1.0  0.54204  0.41236  0.73516  1.0000
  N   N4        1.0  0.04203  0.58763  0.26483  1.0000
  N   N5        1.0  0.11346  0.72949  0.82222  1.0000
  N   N6        1.0  0.61346  0.27051  0.17778  1.0000
  N   N7        1.0  0.93850  0.59344  0.75613  1.0000
  N   N8        1.0  0.43850  0.40656  0.24387  1.0000
  O   O1        1.0  0.63597  0.66150  0.71511  1.0000
  O   O2        1.0  0.13596  0.33850  0.28489  1.0000
  O   O3        1.0  0.57607  0.62011  0.52120  1.0000
  O   O4        1.0  0.07606  0.37989  0.47880  1.0000
  O   O5        1.0  0.85154  0.33536  0.78312  1.0000
  O   O6        1.0  0.35155  0.66464  0.21688  1.0000
  O   O7        1.0  0.91359  0.37964  0.97622  1.0000
  O   O8        1.0  0.41359  0.62036  0.02379  1.0000
  O   O9        1.0  0.77373  0.42966  0.55240  1.0000
  O   O10       1.0  0.27373  0.57034  0.44760  1.0000
  O   O11       1.0  0.70852  0.55779  0.94614  1.0000
  O   O12       1.0  0.20852  0.44221  0.05386  1.0000
