data_image0
_chemical_formula_structural       Cd4H12C24S4N12O12
_chemical_formula_sum              "Cd4 H12 C24 S4 N12 O12"
_cell_length_a       6.19223
_cell_length_b       10.4437
_cell_length_c       13.1515
_cell_angle_alpha    96.9543
_cell_angle_beta     90.0008
_cell_angle_gamma    90.0005

_space_group_name_H-M_alt    "P 1"
_space_group_IT_number       1

loop_
  _space_group_symop_operation_xyz
  'x, y, z'

loop_
  _atom_site_type_symbol
  _atom_site_label
  _atom_site_symmetry_multiplicity
  _atom_site_fract_x
  _atom_site_fract_y
  _atom_site_fract_z
  _atom_site_occupancy
  Cd  Cd1       1.0  0.31560  0.52135  0.74445  1.0000
  Cd  Cd2       1.0  0.81560  0.97866  0.75555  1.0000
  Cd  Cd3       1.0  0.68440  0.47865  0.25555  1.0000
  Cd  Cd4       1.0  0.18441  0.02134  0.24445  1.0000
  H   H1        1.0  0.89940  0.55389  0.91307  1.0000
  H   H2        1.0  0.39939  0.94611  0.58694  1.0000
  H   H3        1.0  0.10059  0.44611  0.08694  1.0000
  H   H4        1.0  0.60062  0.05390  0.41306  1.0000
  H   H5        1.0  0.77506  0.72200  0.05719  1.0000
  H   H6        1.0  0.27504  0.77800  0.44281  1.0000
  H   H7        1.0  0.22494  0.27800  0.94282  1.0000
  H   H8        1.0  0.72496  0.22200  0.55719  1.0000
  H   H9        1.0  0.31448  0.94779  0.01014  1.0000
  H   H10       1.0  0.81448  0.55221  0.48985  1.0000
  H   H11       1.0  0.68552  0.05221  0.98986  1.0000
  H   H12       1.0  0.18553  0.44779  0.51014  1.0000
  C   C1        1.0  0.99446  0.64082  0.93562  1.0000
  C   C2        1.0  0.49445  0.85917  0.56438  1.0000
  C   C3        1.0  0.00554  0.35918  0.06438  1.0000
  C   C4        1.0  0.50556  0.14083  0.43562  1.0000
  C   C5        1.0  0.92179  0.73171  0.01324  1.0000
  C   C6        1.0  0.42178  0.76828  0.48676  1.0000
  C   C7        1.0  0.07821  0.26829  0.98676  1.0000
  C   C8        1.0  0.57822  0.23172  0.51324  1.0000
  C   C9        1.0  0.29401  0.76387  0.91104  1.0000
  C   C10       1.0  0.79401  0.73612  0.58896  1.0000
  C   C11       1.0  0.70598  0.23612  0.08895  1.0000
  C   C12       1.0  0.20599  0.26388  0.41105  1.0000
  C   C13       1.0  0.08499  0.23950  0.68321  1.0000
  C   C14       1.0  0.58501  0.26051  0.81679  1.0000
  C   C15       1.0  0.91497  0.76051  0.31678  1.0000
  C   C16       1.0  0.41499  0.73948  0.18321  1.0000
  C   C17       1.0  0.22749  0.85849  0.98756  1.0000
  C   C18       1.0  0.72747  0.64151  0.51244  1.0000
  C   C19       1.0  0.77251  0.14151  0.01244  1.0000
  C   C20       1.0  0.27252  0.35849  0.48757  1.0000
  C   C21       1.0  0.49911  0.78239  0.85061  1.0000
  C   C22       1.0  0.99911  0.71762  0.64939  1.0000
  C   C23       1.0  0.50089  0.21761  0.14939  1.0000
  C   C24       1.0  0.00090  0.28238  0.35061  1.0000
  S   S1        1.0  0.05862  0.09654  0.61911  1.0000
  S   S2        1.0  0.55862  0.40347  0.88089  1.0000
  S   S3        1.0  0.94137  0.90347  0.38089  1.0000
  S   S4        1.0  0.44138  0.59653  0.11911  1.0000
  N   N1        1.0  0.17838  0.65597  0.88510  1.0000
  N   N2        1.0  0.67837  0.84403  0.61490  1.0000
  N   N3        1.0  0.82162  0.34403  0.11490  1.0000
  N   N4        1.0  0.32164  0.15597  0.38510  1.0000
  N   N5        1.0  0.10113  0.34491  0.72717  1.0000
  N   N6        1.0  0.60116  0.15511  0.77283  1.0000
  N   N7        1.0  0.89884  0.65513  0.27284  1.0000
  N   N8        1.0  0.39885  0.84488  0.22716  1.0000
  N   N9        1.0  0.03876  0.84164  0.03808  1.0000
  N   N10       1.0  0.53875  0.65836  0.46192  1.0000
  N   N11       1.0  0.96124  0.15836  0.96192  1.0000
  N   N12       1.0  0.46125  0.34164  0.53808  1.0000
  O   O1        1.0  0.96560  0.92977  0.10786  1.0000
  O   O2        1.0  0.46558  0.57023  0.39214  1.0000
  O   O3        1.0  0.03441  0.07023  0.89214  1.0000
  O   O4        1.0  0.53441  0.42977  0.60787  1.0000
  O   O5        1.0  0.55435  0.69330  0.78184  1.0000
  O   O6        1.0  0.05436  0.80671  0.71815  1.0000
  O   O7        1.0  0.44564  0.30670  0.21816  1.0000
  O   O8        1.0  0.94565  0.19329  0.28184  1.0000
  O   O9        1.0  0.59934  0.88790  0.87488  1.0000
  O   O10       1.0  0.09934  0.61210  0.62512  1.0000
  O   O11       1.0  0.40065  0.11209  0.12512  1.0000
  O   O12       1.0  0.90067  0.38790  0.37489  1.0000
