data_image0
_chemical_formula_structural       Tb2H10C18O14
_chemical_formula_sum              "Tb2 H10 C18 O14"
_cell_length_a       6.88121
_cell_length_b       7.96403
_cell_length_c       8.96829
_cell_angle_alpha    98.4986
_cell_angle_beta     99.719
_cell_angle_gamma    97.52

_space_group_name_H-M_alt    "P 1"
_space_group_IT_number       1

loop_
  _space_group_symop_operation_xyz
  'x, y, z'

loop_
  _atom_site_type_symbol
  _atom_site_label
  _atom_site_symmetry_multiplicity
  _atom_site_fract_x
  _atom_site_fract_y
  _atom_site_fract_z
  _atom_site_occupancy
  Tb  Tb1       1.0  0.69820  0.20985  0.97915  1.0000
  Tb  Tb2       1.0  0.30180  0.79015  0.02085  1.0000
  H   H1        1.0  0.33163  0.37641  0.01606  1.0000
  H   H2        1.0  0.66837  0.62359  0.98394  1.0000
  H   H3        1.0  0.33137  0.20948  0.09572  1.0000
  H   H4        1.0  0.66863  0.79052  0.90428  1.0000
  H   H5        1.0  0.33471  0.12165  0.46520  1.0000
  H   H6        1.0  0.66529  0.87835  0.53480  1.0000
  H   H7        1.0  0.71292  0.35162  0.59200  1.0000
  H   H8        1.0  0.28708  0.64838  0.40800  1.0000
  H   H9        1.0  0.33310  0.57757  0.67440  1.0000
  H   H10       1.0  0.66690  0.42243  0.32560  1.0000
  C   C1        1.0  0.07472  0.09339  0.21054  1.0000
  C   C2        1.0  0.92528  0.90661  0.78946  1.0000
  C   C3        1.0  0.65244  0.92519  0.25230  1.0000
  C   C4        1.0  0.34756  0.07481  0.74770  1.0000
  C   C5        1.0  0.02661  0.04164  0.35621  1.0000
  C   C6        1.0  0.97339  0.95836  0.64380  1.0000
  C   C7        1.0  0.83522  0.97277  0.37647  1.0000
  C   C8        1.0  0.16478  0.02723  0.62353  1.0000
  C   C9        1.0  0.18692  0.06708  0.47986  1.0000
  C   C10       1.0  0.81308  0.93292  0.52014  1.0000
  C   C11       1.0  0.04838  0.42237  0.80729  1.0000
  C   C12       1.0  0.95162  0.57763  0.19271  1.0000
  C   C13       1.0  0.02485  0.46200  0.64830  1.0000
  C   C14       1.0  0.97515  0.53801  0.35170  1.0000
  C   C15       1.0  0.83730  0.41639  0.55025  1.0000
  C   C16       1.0  0.16271  0.58361  0.44975  1.0000
  C   C17       1.0  0.18764  0.54514  0.59743  1.0000
  C   C18       1.0  0.81236  0.45487  0.40257  1.0000
  O   O1        1.0  0.98191  0.19952  0.14908  1.0000
  O   O2        1.0  0.01809  0.80048  0.85092  1.0000
  O   O3        1.0  0.42035  0.30593  0.07038  1.0000
  O   O4        1.0  0.57965  0.69408  0.92962  1.0000
  O   O5        1.0  0.22154  0.03709  0.16037  1.0000
  O   O6        1.0  0.77846  0.96291  0.83963  1.0000
  O   O7        1.0  0.62050  0.00961  0.14118  1.0000
  O   O8        1.0  0.37950  0.99039  0.85883  1.0000
  O   O9        1.0  0.52675  0.79607  0.25880  1.0000
  O   O10       1.0  0.47326  0.20393  0.74120  1.0000
  O   O11       1.0  0.20213  0.50101  0.90773  1.0000
  O   O12       1.0  0.79786  0.49899  0.09227  1.0000
  O   O13       1.0  0.91750  0.31131  0.83560  1.0000
  O   O14       1.0  0.08250  0.68869  0.16440  1.0000
