data_image0
_chemical_formula_structural       Gd4H20C36O28
_chemical_formula_sum              "Gd4 H20 C36 O28"
_cell_length_a       7.10648
_cell_length_b       7.41858
_cell_length_c       18.3555
_cell_angle_alpha    97.2072
_cell_angle_beta     90
_cell_angle_gamma    89.9999

_space_group_name_H-M_alt    "P 1"
_space_group_IT_number       1

loop_
  _space_group_symop_operation_xyz
  'x, y, z'

loop_
  _atom_site_type_symbol
  _atom_site_label
  _atom_site_symmetry_multiplicity
  _atom_site_fract_x
  _atom_site_fract_y
  _atom_site_fract_z
  _atom_site_occupancy
  Gd  Gd1       1.0  0.02241  0.63271  0.74351  1.0000
  Gd  Gd2       1.0  0.52241  0.86729  0.75649  1.0000
  Gd  Gd3       1.0  0.97759  0.36729  0.25649  1.0000
  Gd  Gd4       1.0  0.47759  0.13271  0.24351  1.0000
  H   H1        1.0  0.69062  0.45324  0.78436  1.0000
  H   H2        1.0  0.19062  0.04676  0.71564  1.0000
  H   H3        1.0  0.30938  0.54676  0.21564  1.0000
  H   H4        1.0  0.80938  0.95324  0.28436  1.0000
  H   H5        1.0  0.82707  0.29501  0.80146  1.0000
  H   H6        1.0  0.32707  0.20499  0.69854  1.0000
  H   H7        1.0  0.17294  0.70499  0.19854  1.0000
  H   H8        1.0  0.67294  0.79501  0.30146  1.0000
  H   H9        1.0  0.84217  0.54253  0.48064  1.0000
  H   H10       1.0  0.34217  0.95747  0.01936  1.0000
  H   H11       1.0  0.15783  0.45747  0.51936  1.0000
  H   H12       1.0  0.65782  0.04253  0.98064  1.0000
  H   H13       1.0  0.16787  0.42038  0.96696  1.0000
  H   H14       1.0  0.66787  0.07962  0.53304  1.0000
  H   H15       1.0  0.83213  0.57962  0.03304  1.0000
  H   H16       1.0  0.33213  0.92038  0.46696  1.0000
  H   H17       1.0  0.71479  0.60024  0.90626  1.0000
  H   H18       1.0  0.21479  0.89976  0.59374  1.0000
  H   H19       1.0  0.28521  0.39976  0.09374  1.0000
  H   H20       1.0  0.78521  0.10024  0.40626  1.0000
  C   C1        1.0  0.62111  0.53574  0.56065  1.0000
  C   C2        1.0  0.12111  0.96426  0.93935  1.0000
  C   C3        1.0  0.37889  0.46426  0.43935  1.0000
  C   C4        1.0  0.87889  0.03574  0.06065  1.0000
  C   C5        1.0  0.42738  0.51088  0.57132  1.0000
  C   C6        1.0  0.92738  0.98912  0.92868  1.0000
  C   C7        1.0  0.57262  0.48912  0.42868  1.0000
  C   C8        1.0  0.07262  0.01088  0.07132  1.0000
  C   C9        1.0  0.69190  0.52510  0.48921  1.0000
  C   C10       1.0  0.19189  0.97490  0.01079  1.0000
  C   C11       1.0  0.30810  0.47490  0.51079  1.0000
  C   C12       1.0  0.80810  0.02510  0.98921  1.0000
  C   C13       1.0  0.75546  0.56954  0.62312  1.0000
  C   C14       1.0  0.25546  0.93046  0.87688  1.0000
  C   C15       1.0  0.24454  0.43046  0.37688  1.0000
  C   C16       1.0  0.74454  0.06954  0.12312  1.0000
  C   C17       1.0  0.33129  0.53575  0.64432  1.0000
  C   C18       1.0  0.83129  0.96426  0.85568  1.0000
  C   C19       1.0  0.66871  0.46425  0.35568  1.0000
  C   C20       1.0  0.16871  0.03574  0.14432  1.0000
  C   C21       1.0  0.36214  0.53200  0.85326  1.0000
  C   C22       1.0  0.86213  0.96800  0.64674  1.0000
  C   C23       1.0  0.63787  0.46800  0.14674  1.0000
  C   C24       1.0  0.13787  0.03200  0.35326  1.0000
  C   C25       1.0  0.43428  0.50980  0.92839  1.0000
  C   C26       1.0  0.93428  0.99020  0.57161  1.0000
  C   C27       1.0  0.56572  0.49020  0.07161  1.0000
  C   C28       1.0  0.06572  0.00980  0.42839  1.0000
  C   C29       1.0  0.31319  0.45491  0.98178  1.0000
  C   C30       1.0  0.81318  0.04509  0.51822  1.0000
  C   C31       1.0  0.68682  0.54509  0.01822  1.0000
  C   C32       1.0  0.18682  0.95491  0.48178  1.0000
  C   C33       1.0  0.62162  0.55492  0.94734  1.0000
  C   C34       1.0  0.12162  0.94508  0.55266  1.0000
  C   C35       1.0  0.37838  0.44508  0.05265  1.0000
  C   C36       1.0  0.87838  0.05492  0.44735  1.0000
  O   O1        1.0  0.69356  0.63102  0.68752  1.0000
  O   O2        1.0  0.19356  0.86898  0.81248  1.0000
  O   O3        1.0  0.30644  0.36898  0.31248  1.0000
  O   O4        1.0  0.80644  0.13102  0.18752  1.0000
  O   O5        1.0  0.82013  0.40451  0.77597  1.0000
  O   O6        1.0  0.32013  0.09549  0.72403  1.0000
  O   O7        1.0  0.17987  0.59549  0.22403  1.0000
  O   O8        1.0  0.67987  0.90452  0.27597  1.0000
  O   O9        1.0  0.92891  0.53870  0.61358  1.0000
  O   O10       1.0  0.42890  0.96130  0.88642  1.0000
  O   O11       1.0  0.07109  0.46130  0.38642  1.0000
  O   O12       1.0  0.57109  0.03870  0.11358  1.0000
  O   O13       1.0  0.30784  0.70120  0.67468  1.0000
  O   O14       1.0  0.80784  0.79880  0.82532  1.0000
  O   O15       1.0  0.69216  0.29880  0.32532  1.0000
  O   O16       1.0  0.19216  0.20120  0.17468  1.0000
  O   O17       1.0  0.25316  0.40663  0.67083  1.0000
  O   O18       1.0  0.75316  0.09337  0.82917  1.0000
  O   O19       1.0  0.74684  0.59337  0.32917  1.0000
  O   O20       1.0  0.24684  0.90663  0.17083  1.0000
  O   O21       1.0  0.18765  0.50953  0.83958  1.0000
  O   O22       1.0  0.68765  0.99047  0.66042  1.0000
  O   O23       1.0  0.81235  0.49047  0.16042  1.0000
  O   O24       1.0  0.31235  0.00953  0.33958  1.0000
  O   O25       1.0  0.47954  0.58217  0.80636  1.0000
  O   O26       1.0  0.97954  0.91783  0.69364  1.0000
  O   O27       1.0  0.52046  0.41783  0.19364  1.0000
  O   O28       1.0  0.02047  0.08217  0.30636  1.0000
