data_image0
_chemical_formula_structural       ZnH26C34N10O10
_chemical_formula_sum              "Zn1 H26 C34 N10 O10"
_cell_length_a       7.66897
_cell_length_b       9.92475
_cell_length_c       11.7165
_cell_angle_alpha    110.767
_cell_angle_beta     89.7686
_cell_angle_gamma    98.124

_space_group_name_H-M_alt    "P 1"
_space_group_IT_number       1

loop_
  _space_group_symop_operation_xyz
  'x, y, z'

loop_
  _atom_site_type_symbol
  _atom_site_label
  _atom_site_symmetry_multiplicity
  _atom_site_fract_x
  _atom_site_fract_y
  _atom_site_fract_z
  _atom_site_occupancy
  Zn  Zn1       1.0  0.50000  1.00000  1.00000  1.0000
  H   H1        1.0  0.98271  0.79553  0.35756  1.0000
  H   H2        1.0  0.01729  0.20447  0.64244  1.0000
  H   H3        1.0  0.44150  0.75384  0.76783  1.0000
  H   H4        1.0  0.55850  0.24615  0.23217  1.0000
  H   H5        1.0  0.69449  0.80748  0.09500  1.0000
  H   H6        1.0  0.30551  0.19252  0.90500  1.0000
  H   H7        1.0  0.83941  0.04581  0.10451  1.0000
  H   H8        1.0  0.16060  0.95418  0.89549  1.0000
  H   H9        1.0  0.84083  0.19058  0.07908  1.0000
  H   H10       1.0  0.15917  0.80942  0.92092  1.0000
  H   H11       1.0  0.29877  0.68351  0.60512  1.0000
  H   H12       1.0  0.70123  0.31649  0.39488  1.0000
  H   H13       1.0  0.16379  0.87306  0.55603  1.0000
  H   H14       1.0  0.83621  0.12695  0.44397  1.0000
  H   H15       1.0  0.07956  0.35563  0.28984  1.0000
  H   H16       1.0  0.92044  0.64437  0.71016  1.0000
  H   H17       1.0  0.63681  0.38438  0.80758  1.0000
  H   H18       1.0  0.36319  0.61562  0.19242  1.0000
  H   H19       1.0  0.47782  0.48724  0.67940  1.0000
  H   H20       1.0  0.52219  0.51275  0.32060  1.0000
  H   H21       1.0  0.58793  0.78082  0.34340  1.0000
  H   H22       1.0  0.41207  0.21918  0.65660  1.0000
  H   H23       1.0  0.27802  0.40368  0.47776  1.0000
  H   H24       1.0  0.72198  0.59632  0.52224  1.0000
  H   H25       1.0  0.75455  0.30306  0.93843  1.0000
  H   H26       1.0  0.24545  0.69694  0.06157  1.0000
  C   C1        1.0  0.21569  0.65497  0.52234  1.0000
  C   C2        1.0  0.78431  0.34503  0.47766  1.0000
  C   C3        1.0  0.14095  0.75994  0.49429  1.0000
  C   C4        1.0  0.85905  0.24006  0.50571  1.0000
  C   C5        1.0  0.04005  0.71718  0.38566  1.0000
  C   C6        1.0  0.95995  0.28282  0.61434  1.0000
  C   C7        1.0  0.01381  0.56995  0.30901  1.0000
  C   C8        1.0  0.98619  0.43005  0.69099  1.0000
  C   C9        1.0  0.09256  0.47150  0.34518  1.0000
  C   C10       1.0  0.90744  0.52850  0.65482  1.0000
  C   C11       1.0  0.91347  0.52455  0.19278  1.0000
  C   C12       1.0  0.08653  0.47545  0.80722  1.0000
  C   C13       1.0  0.77260  0.53778  0.04243  1.0000
  C   C14       1.0  0.22740  0.46222  0.95757  1.0000
  C   C15       1.0  0.68082  0.58947  0.96110  1.0000
  C   C16       1.0  0.31918  0.41053  0.03890  1.0000
  C   C17       1.0  0.61675  0.49838  0.84301  1.0000
  C   C18       1.0  0.38324  0.50161  0.15699  1.0000
  C   C19       1.0  0.52850  0.55555  0.77150  1.0000
  C   C20       1.0  0.47150  0.44445  0.22850  1.0000
  C   C21       1.0  0.50635  0.70125  0.81924  1.0000
  C   C22       1.0  0.49366  0.29875  0.18075  1.0000
  C   C23       1.0  0.65063  0.73453  0.00269  1.0000
  C   C24       1.0  0.34937  0.26547  0.99731  1.0000
  C   C25       1.0  0.41815  0.92872  0.23905  1.0000
  C   C26       1.0  0.58185  0.07128  0.76096  1.0000
  C   C27       1.0  0.45818  0.96905  0.37475  1.0000
  C   C28       1.0  0.54183  0.03095  0.62525  1.0000
  C   C29       1.0  0.54788  0.87719  0.41184  1.0000
  C   C30       1.0  0.45212  0.12282  0.58816  1.0000
  C   C31       1.0  0.40974  0.09374  0.46455  1.0000
  C   C32       1.0  0.59027  0.90626  0.53546  1.0000
  C   C33       1.0  0.31249  0.19465  0.42868  1.0000
  C   C34       1.0  0.68751  0.80535  0.57131  1.0000
  N   N1        1.0  0.56484  0.78871  0.93336  1.0000
  N   N2        1.0  0.43516  0.21129  0.06664  1.0000
  N   N3        1.0  0.84497  0.62054  0.15345  1.0000
  N   N4        1.0  0.15503  0.37946  0.84655  1.0000
  N   N5        1.0  0.88551  0.38652  0.11169  1.0000
  N   N6        1.0  0.11449  0.61348  0.88831  1.0000
  N   N7        1.0  0.79672  0.39761  0.01697  1.0000
  N   N8        1.0  0.20328  0.60239  0.98304  1.0000
  N   N9        1.0  0.19167  0.51414  0.44908  1.0000
  N   N10       1.0  0.80832  0.48586  0.55093  1.0000
  O   O1        1.0  0.50984  0.00482  0.18624  1.0000
  O   O2        1.0  0.49015  0.99518  0.81376  1.0000
  O   O3        1.0  0.30558  0.81665  0.18984  1.0000
  O   O4        1.0  0.69441  0.18335  0.81016  1.0000
  O   O5        1.0  0.20990  0.15250  0.33796  1.0000
  O   O6        1.0  0.79012  0.84750  0.66204  1.0000
  O   O7        1.0  0.34997  0.33244  0.50448  1.0000
  O   O8        1.0  0.65003  0.66756  0.49552  1.0000
  O   O9        1.0  0.79431  0.08427  0.04668  1.0000
  O   O10       1.0  0.20569  0.91573  0.95332  1.0000
