data_image0
_chemical_formula_structural       Zn2H24C40N12O12
_chemical_formula_sum              "Zn2 H24 C40 N12 O12"
_cell_length_a       9.97959
_cell_length_b       10.3035
_cell_length_c       10.5526
_cell_angle_alpha    104.981
_cell_angle_beta     98.4284
_cell_angle_gamma    106.953

_space_group_name_H-M_alt    "P 1"
_space_group_IT_number       1

loop_
  _space_group_symop_operation_xyz
  'x, y, z'

loop_
  _atom_site_type_symbol
  _atom_site_label
  _atom_site_symmetry_multiplicity
  _atom_site_fract_x
  _atom_site_fract_y
  _atom_site_fract_z
  _atom_site_occupancy
  Zn  Zn1       1.0  0.90225  0.12049  0.47232  1.0000
  Zn  Zn2       1.0  0.09775  0.87951  0.52767  1.0000
  H   H1        1.0  0.00585  0.08276  0.20369  1.0000
  H   H2        1.0  0.99415  0.91723  0.79630  1.0000
  H   H3        1.0  0.89081  0.98420  0.95320  1.0000
  H   H4        1.0  0.10918  0.01580  0.04679  1.0000
  H   H5        1.0  0.62272  0.86063  0.87613  1.0000
  H   H6        1.0  0.37727  0.13936  0.12386  1.0000
  H   H7        1.0  0.61176  0.93681  0.29511  1.0000
  H   H8        1.0  0.38825  0.06319  0.70489  1.0000
  H   H9        1.0  0.22916  0.84972  0.30444  1.0000
  H   H10       1.0  0.77084  0.15028  0.69556  1.0000
  H   H11       1.0  0.79305  0.70219  0.29546  1.0000
  H   H12       1.0  0.20695  0.29781  0.70454  1.0000
  H   H13       1.0  0.72868  0.58485  0.04622  1.0000
  H   H14       1.0  0.27132  0.41515  0.95378  1.0000
  H   H15       1.0  0.92328  0.60616  0.92044  1.0000
  H   H16       1.0  0.07671  0.39384  0.07956  1.0000
  H   H17       1.0  0.51298  0.85308  0.52623  1.0000
  H   H18       1.0  0.48702  0.14692  0.47377  1.0000
  H   H19       1.0  0.34009  0.51989  0.69311  1.0000
  H   H20       1.0  0.65992  0.48011  0.30689  1.0000
  H   H21       1.0  0.78232  0.62991  0.65763  1.0000
  H   H22       1.0  0.21768  0.37010  0.34237  1.0000
  H   H23       1.0  0.15738  0.66449  0.82608  1.0000
  H   H24       1.0  0.84261  0.33551  0.17392  1.0000
  C   C1        1.0  0.89047  0.02457  0.16402  1.0000
  C   C2        1.0  0.10952  0.97543  0.83598  1.0000
  C   C3        1.0  0.82608  0.96984  0.02611  1.0000
  C   C4        1.0  0.17391  0.03016  0.97388  1.0000
  C   C5        1.0  0.67761  0.90141  0.98295  1.0000
  C   C6        1.0  0.32238  0.09859  0.01705  1.0000
  C   C7        1.0  0.59739  0.88898  0.08020  1.0000
  C   C8        1.0  0.40261  0.11102  0.91979  1.0000
  C   C9        1.0  0.67044  0.94486  0.21670  1.0000
  C   C10       1.0  0.32956  0.05514  0.78329  1.0000
  C   C11       1.0  0.44101  0.82334  0.04098  1.0000
  C   C12       1.0  0.55899  0.17666  0.95903  1.0000
  C   C13       1.0  0.22143  0.75587  0.04934  1.0000
  C   C14       1.0  0.77856  0.24412  0.95066  1.0000
  C   C15       1.0  0.09351  0.73297  0.10366  1.0000
  C   C16       1.0  0.90649  0.26703  0.89634  1.0000
  C   C17       1.0  0.11901  0.79267  0.24429  1.0000
  C   C18       1.0  0.88099  0.20733  0.75571  1.0000
  C   C19       1.0  0.87629  0.70855  0.23896  1.0000
  C   C20       1.0  0.12371  0.29145  0.76104  1.0000
  C   C21       1.0  0.84117  0.64424  0.09928  1.0000
  C   C22       1.0  0.15883  0.35576  0.90071  1.0000
  C   C23       1.0  0.95056  0.65662  0.02975  1.0000
  C   C24       1.0  0.04943  0.34338  0.97025  1.0000
  C   C25       1.0  0.78709  0.84038  0.54869  1.0000
  C   C26       1.0  0.21291  0.15962  0.45131  1.0000
  C   C27       1.0  0.66126  0.75189  0.58862  1.0000
  C   C28       1.0  0.33874  0.24812  0.41138  1.0000
  C   C29       1.0  0.52702  0.77153  0.56970  1.0000
  C   C30       1.0  0.47299  0.22848  0.43030  1.0000
  C   C31       1.0  0.41049  0.68691  0.60553  1.0000
  C   C32       1.0  0.58952  0.31309  0.39448  1.0000
  C   C33       1.0  0.42944  0.58384  0.66310  1.0000
  C   C34       1.0  0.57056  0.41616  0.33691  1.0000
  C   C35       1.0  0.56345  0.56673  0.68257  1.0000
  C   C36       1.0  0.43655  0.43328  0.31744  1.0000
  C   C37       1.0  0.67973  0.64784  0.64503  1.0000
  C   C38       1.0  0.32028  0.35217  0.35497  1.0000
  C   C39       1.0  0.26554  0.70845  0.58895  1.0000
  C   C40       1.0  0.73446  0.29155  0.41105  1.0000
  N   N1        1.0  0.81392  0.01169  0.25758  1.0000
  N   N2        1.0  0.18608  0.98831  0.74241  1.0000
  N   N3        1.0  0.35442  0.82708  0.12869  1.0000
  N   N4        1.0  0.64558  0.17291  0.87131  1.0000
  N   N5        1.0  0.36976  0.75534  0.91146  1.0000
  N   N6        1.0  0.63024  0.24466  0.08854  1.0000
  N   N7        1.0  0.23082  0.71271  0.91831  1.0000
  N   N8        1.0  0.76918  0.28729  0.08169  1.0000
  N   N9        1.0  0.01363  0.78195  0.31028  1.0000
  N   N10       1.0  0.98636  0.21805  0.68972  1.0000
  N   N11       1.0  0.58429  0.46131  0.74685  1.0000
  N   N12       1.0  0.41572  0.53870  0.25315  1.0000
  O   O1        1.0  0.90066  0.80712  0.56363  1.0000
  O   O2        1.0  0.09934  0.19288  0.43637  1.0000
  O   O3        1.0  0.77075  0.93927  0.50458  1.0000
  O   O4        1.0  0.22925  0.06073  0.49542  1.0000
  O   O5        1.0  0.70566  0.45000  0.76564  1.0000
  O   O6        1.0  0.29435  0.55000  0.23436  1.0000
  O   O7        1.0  0.48012  0.39014  0.78077  1.0000
  O   O8        1.0  0.51989  0.60987  0.21923  1.0000
  O   O9        1.0  0.25476  0.79542  0.52257  1.0000
  O   O10       1.0  0.74525  0.20458  0.47743  1.0000
  O   O11       1.0  0.17064  0.64602  0.63955  1.0000
  O   O12       1.0  0.82936  0.35398  0.36045  1.0000
