data_image0
_chemical_formula_structural       Zn2H26C40N10O8
_chemical_formula_sum              "Zn2 H26 C40 N10 O8"
_cell_length_a       8.68022
_cell_length_b       10.34
_cell_length_c       11.8256
_cell_angle_alpha    73.937
_cell_angle_beta     86.2245
_cell_angle_gamma    68.9422

_space_group_name_H-M_alt    "P 1"
_space_group_IT_number       1

loop_
  _space_group_symop_operation_xyz
  'x, y, z'

loop_
  _atom_site_type_symbol
  _atom_site_label
  _atom_site_symmetry_multiplicity
  _atom_site_fract_x
  _atom_site_fract_y
  _atom_site_fract_z
  _atom_site_occupancy
  Zn  Zn1       1.0  0.34442  0.42523  0.19511  1.0000
  Zn  Zn2       1.0  0.65558  0.57477  0.80489  1.0000
  H   H1        1.0  0.60173  0.53609  0.09904  1.0000
  H   H2        1.0  0.39827  0.46391  0.90096  1.0000
  H   H3        1.0  0.90650  0.44492  0.08785  1.0000
  H   H4        1.0  0.09350  0.55508  0.91215  1.0000
  H   H5        1.0  0.06891  0.19322  0.21153  1.0000
  H   H6        1.0  0.93109  0.80678  0.78847  1.0000
  H   H7        1.0  0.60796  0.15747  0.34397  1.0000
  H   H8        1.0  0.39204  0.84253  0.65603  1.0000
  H   H9        1.0  0.26181  0.52732  0.53123  1.0000
  H   H10       1.0  0.73818  0.47268  0.46877  1.0000
  H   H11       1.0  0.23768  0.31661  0.68599  1.0000
  H   H12       1.0  0.76231  0.68339  0.31401  1.0000
  H   H13       1.0  0.96923  0.34260  0.78923  1.0000
  H   H14       1.0  0.03076  0.65740  0.21077  1.0000
  H   H15       1.0  0.76022  0.77077  0.59934  1.0000
  H   H16       1.0  0.23978  0.22923  0.40066  1.0000
  H   H17       1.0  0.23331  0.25515  0.91290  1.0000
  H   H18       1.0  0.76669  0.74485  0.08710  1.0000
  H   H19       1.0  0.16900  0.08642  0.82153  1.0000
  H   H20       1.0  0.83100  0.91358  0.17847  1.0000
  H   H21       1.0  0.21442  0.83546  0.94150  1.0000
  H   H22       1.0  0.78558  0.16454  0.05850  1.0000
  H   H23       1.0  0.40083  0.91703  0.23217  1.0000
  H   H24       1.0  0.59917  0.08297  0.76783  1.0000
  H   H25       1.0  0.24654  0.73561  0.37264  1.0000
  H   H26       1.0  0.75346  0.26439  0.62737  1.0000
  C   C1        1.0  0.67550  0.43063  0.15407  1.0000
  C   C2        1.0  0.32450  0.56936  0.84593  1.0000
  C   C3        1.0  0.84663  0.37836  0.14771  1.0000
  C   C4        1.0  0.15337  0.62164  0.85229  1.0000
  C   C5        1.0  0.93546  0.24078  0.21542  1.0000
  C   C6        1.0  0.06454  0.75922  0.78458  1.0000
  C   C7        1.0  0.85089  0.15863  0.28914  1.0000
  C   C8        1.0  0.14911  0.84137  0.71086  1.0000
  C   C9        1.0  0.67932  0.21895  0.29187  1.0000
  C   C10       1.0  0.32068  0.78105  0.70813  1.0000
  C   C11       1.0  0.94184  0.00932  0.35246  1.0000
  C   C12       1.0  0.05816  0.99068  0.64754  1.0000
  C   C13       1.0  0.00942  0.79550  0.46195  1.0000
  C   C14       1.0  0.99058  0.20450  0.53805  1.0000
  C   C15       1.0  0.00979  0.66534  0.54989  1.0000
  C   C16       1.0  0.99021  0.33467  0.45011  1.0000
  C   C17       1.0  0.14639  0.53621  0.57655  1.0000
  C   C18       1.0  0.85361  0.46379  0.42345  1.0000
  C   C19       1.0  0.13346  0.41826  0.66305  1.0000
  C   C20       1.0  0.86654  0.58174  0.33695  1.0000
  C   C21       1.0  0.98574  0.43149  0.72077  1.0000
  C   C22       1.0  0.01426  0.56851  0.27923  1.0000
  C   C23       1.0  0.86625  0.67066  0.61347  1.0000
  C   C24       1.0  0.13375  0.32934  0.38653  1.0000
  C   C25       1.0  0.34290  0.19880  0.13648  1.0000
  C   C26       1.0  0.65710  0.80120  0.86352  1.0000
  C   C27       1.0  0.32000  0.09595  0.07759  1.0000
  C   C28       1.0  0.68001  0.90405  0.92241  1.0000
  C   C29       1.0  0.25556  0.14361  0.96160  1.0000
  C   C30       1.0  0.74445  0.85639  0.03840  1.0000
  C   C31       1.0  0.21948  0.04999  0.91163  1.0000
  C   C32       1.0  0.78052  0.95001  0.08837  1.0000
  C   C33       1.0  0.24632  0.90885  0.97766  1.0000
  C   C34       1.0  0.75369  0.09115  0.02234  1.0000
  C   C35       1.0  0.31266  0.85917  0.09329  1.0000
  C   C36       1.0  0.68734  0.14083  0.90671  1.0000
  C   C37       1.0  0.35125  0.95293  0.14217  1.0000
  C   C38       1.0  0.64876  0.04707  0.85783  1.0000
  C   C39       1.0  0.33355  0.70904  0.16485  1.0000
  C   C40       1.0  0.66645  0.29096  0.83515  1.0000
  N   N1        1.0  0.59384  0.35212  0.22458  1.0000
  N   N2        1.0  0.40616  0.64788  0.77542  1.0000
  N   N3        1.0  0.88239  0.92151  0.43716  1.0000
  N   N4        1.0  0.11761  0.07849  0.56284  1.0000
  N   N5        1.0  0.09699  0.94431  0.32355  1.0000
  N   N6        1.0  0.90301  0.05568  0.67645  1.0000
  N   N7        1.0  0.13842  0.80968  0.39388  1.0000
  N   N8        1.0  0.86158  0.19032  0.60612  1.0000
  N   N9        1.0  0.85472  0.55641  0.69651  1.0000
  N   N10       1.0  0.14528  0.44359  0.30349  1.0000
  O   O1        1.0  0.38960  0.15693  0.24333  1.0000
  O   O2        1.0  0.61040  0.84307  0.75667  1.0000
  O   O3        1.0  0.29861  0.63088  0.10898  1.0000
  O   O4        1.0  0.70139  0.36912  0.89103  1.0000
  O   O5        1.0  0.38081  0.66454  0.27221  1.0000
  O   O6        1.0  0.61919  0.33546  0.72779  1.0000
  O   O7        1.0  0.30447  0.33263  0.07540  1.0000
  O   O8        1.0  0.69553  0.66737  0.92460  1.0000
