data_image0
_chemical_formula_structural       Zn3Mo3H24C12N6O12F12
_chemical_formula_sum              "Zn3 Mo3 H24 C12 N6 O12 F12"
_cell_length_a       7.2036
_cell_length_b       7.20359
_cell_length_c       16.4353
_cell_angle_alpha    90.0001
_cell_angle_beta     90.0001
_cell_angle_gamma    120

_space_group_name_H-M_alt    "P 1"
_space_group_IT_number       1

loop_
  _space_group_symop_operation_xyz
  'x, y, z'

loop_
  _atom_site_type_symbol
  _atom_site_label
  _atom_site_symmetry_multiplicity
  _atom_site_fract_x
  _atom_site_fract_y
  _atom_site_fract_z
  _atom_site_occupancy
  Zn  Zn1       1.0  1.00000  0.77682  0.16667  1.0000
  Zn  Zn2       1.0  0.22318  0.22318  0.50000  1.0000
  Zn  Zn3       1.0  0.77682  0.00000  0.83334  1.0000
  Mo  Mo1       1.0  0.54551  0.54550  0.00000  1.0000
  Mo  Mo2       1.0  0.45449  1.00000  0.33334  1.0000
  Mo  Mo3       1.0  0.99999  0.45449  0.66666  1.0000
  H   H1        1.0  0.91098  0.05868  0.04432  1.0000
  H   H2        1.0  0.94132  0.85231  0.37765  1.0000
  H   H3        1.0  0.14769  0.08902  0.71098  1.0000
  H   H4        1.0  0.05869  0.91100  0.95568  1.0000
  H   H5        1.0  0.85231  0.94131  0.62235  1.0000
  H   H6        1.0  0.08900  0.14769  0.28901  1.0000
  H   H7        1.0  0.91823  0.41030  0.04427  1.0000
  H   H8        1.0  0.58970  0.50792  0.37760  1.0000
  H   H9        1.0  0.49208  0.08178  0.71094  1.0000
  H   H10       1.0  0.41029  0.91823  0.95573  1.0000
  H   H11       1.0  0.50794  0.58971  0.62240  1.0000
  H   H12       1.0  0.08177  0.49206  0.28906  1.0000
  H   H13       1.0  0.37590  0.84854  0.10430  1.0000
  H   H14       1.0  0.15147  0.52736  0.43763  1.0000
  H   H15       1.0  0.47263  0.62410  0.77096  1.0000
  H   H16       1.0  0.84854  0.37590  0.89571  1.0000
  H   H17       1.0  0.52736  0.15146  0.56238  1.0000
  H   H18       1.0  0.62409  0.47263  0.22904  1.0000
  H   H19       1.0  0.37009  0.06878  0.09366  1.0000
  H   H20       1.0  0.93123  0.30132  0.42699  1.0000
  H   H21       1.0  0.69868  0.62991  0.76033  1.0000
  H   H22       1.0  0.06877  0.37009  0.90634  1.0000
  H   H23       1.0  0.30132  0.93123  0.57301  1.0000
  H   H24       1.0  0.62990  0.69868  0.23968  1.0000
  C   C1        1.0  0.95289  0.15622  0.09914  1.0000
  C   C2        1.0  0.84377  0.79667  0.43247  1.0000
  C   C3        1.0  0.20333  0.04711  0.76581  1.0000
  C   C4        1.0  0.15623  0.95289  0.90088  1.0000
  C   C5        1.0  0.79666  0.84377  0.56755  1.0000
  C   C6        1.0  0.04711  0.20334  0.23421  1.0000
  C   C7        1.0  0.95439  0.35050  0.09917  1.0000
  C   C8        1.0  0.64950  0.60389  0.43250  1.0000
  C   C9        1.0  0.39611  0.04561  0.76584  1.0000
  C   C10       1.0  0.35048  0.95438  0.90085  1.0000
  C   C11       1.0  0.60390  0.64952  0.56752  1.0000
  C   C12       1.0  0.04561  0.39609  0.23418  1.0000
  N   N1        1.0  0.00000  0.47042  0.16668  1.0000
  N   N2        1.0  0.52958  0.52958  0.50001  1.0000
  N   N3        1.0  0.47042  1.00000  0.83335  1.0000
  N   N4        1.0  1.00000  0.08257  0.16668  1.0000
  N   N5        1.0  0.91743  0.91743  0.50001  1.0000
  N   N6        1.0  0.08257  0.00000  0.83335  1.0000
  O   O1        1.0  0.47718  0.31800  0.05587  1.0000
  O   O2        1.0  0.68200  0.15919  0.38920  1.0000
  O   O3        1.0  0.84082  0.52282  0.72254  1.0000
  O   O4        1.0  0.31801  0.47719  0.94413  1.0000
  O   O5        1.0  0.15918  0.68199  0.61080  1.0000
  O   O6        1.0  0.52281  0.84082  0.27747  1.0000
  O   O7        1.0  0.28215  0.91126  0.10124  1.0000
  O   O8        1.0  0.08874  0.37089  0.43457  1.0000
  O   O9        1.0  0.62912  0.71785  0.76791  1.0000
  O   O10       1.0  0.91126  0.28215  0.89877  1.0000
  O   O11       1.0  0.37089  0.08874  0.56544  1.0000
  O   O12       1.0  0.71784  0.62911  0.23210  1.0000
  F   F1        1.0  0.48846  0.69400  0.08620  1.0000
  F   F2        1.0  0.30601  0.79446  0.41953  1.0000
  F   F3        1.0  0.20555  0.51154  0.75287  1.0000
  F   F4        1.0  0.69400  0.48846  0.91381  1.0000
  F   F5        1.0  0.79446  0.30601  0.58048  1.0000
  F   F6        1.0  0.51153  0.20554  0.24714  1.0000
  F   F7        1.0  0.84919  0.69672  0.05274  1.0000
  F   F8        1.0  0.30328  0.15247  0.38607  1.0000
  F   F9        1.0  0.84753  0.15081  0.71941  1.0000
  F   F10       1.0  0.69672  0.84919  0.94727  1.0000
  F   F11       1.0  0.15247  0.30328  0.61394  1.0000
  F   F12       1.0  0.15080  0.84752  0.28060  1.0000
