data_image0
_chemical_formula_structural       K4H24C16S4N12
_chemical_formula_sum              "K4 H24 C16 S4 N12"
_cell_length_a       6.56078
_cell_length_b       6.56095
_cell_length_c       16.2024
_cell_angle_alpha    93.3407
_cell_angle_beta     93.3449
_cell_angle_gamma    90.2936

_space_group_name_H-M_alt    "P 1"
_space_group_IT_number       1

loop_
  _space_group_symop_operation_xyz
  'x, y, z'

loop_
  _atom_site_type_symbol
  _atom_site_label
  _atom_site_symmetry_multiplicity
  _atom_site_fract_x
  _atom_site_fract_y
  _atom_site_fract_z
  _atom_site_occupancy
  K   K1        1.0  0.30993  0.73743  0.92806  1.0000
  K   K2        1.0  0.76259  0.19011  0.57195  1.0000
  K   K3        1.0  0.69009  0.26257  0.07194  1.0000
  K   K4        1.0  0.23743  0.80989  0.42806  1.0000
  H   H1        1.0  0.80430  0.59279  0.89351  1.0000
  H   H2        1.0  0.90717  0.69575  0.60648  1.0000
  H   H3        1.0  0.19571  0.40719  0.10649  1.0000
  H   H4        1.0  0.09282  0.30426  0.39351  1.0000
  H   H5        1.0  0.80511  0.86705  0.89457  1.0000
  H   H6        1.0  0.63290  0.69495  0.60542  1.0000
  H   H7        1.0  0.19490  0.13294  0.10543  1.0000
  H   H8        1.0  0.36709  0.30506  0.39458  1.0000
  H   H9        1.0  0.10230  0.89257  0.71281  1.0000
  H   H10       1.0  0.60741  0.39772  0.78717  1.0000
  H   H11       1.0  0.89770  0.10742  0.28718  1.0000
  H   H12       1.0  0.39258  0.60229  0.21283  1.0000
  H   H13       1.0  0.97591  0.03668  0.79156  1.0000
  H   H14       1.0  0.46328  0.52414  0.70843  1.0000
  H   H15       1.0  0.02410  0.96332  0.20844  1.0000
  H   H16       1.0  0.53671  0.47587  0.29157  1.0000
  H   H17       1.0  0.97367  0.39894  0.78877  1.0000
  H   H18       1.0  0.10107  0.52633  0.71120  1.0000
  H   H19       1.0  0.02632  0.60106  0.21122  1.0000
  H   H20       1.0  0.89894  0.47367  0.28879  1.0000
  H   H21       1.0  0.46431  0.89079  0.71004  1.0000
  H   H22       1.0  0.60923  0.03566  0.78997  1.0000
  H   H23       1.0  0.53568  0.10922  0.28997  1.0000
  H   H24       1.0  0.39077  0.96434  0.21004  1.0000
  C   C1        1.0  0.88923  0.76127  0.07030  1.0000
  C   C2        1.0  0.73875  0.61083  0.42970  1.0000
  C   C3        1.0  0.11079  0.23873  0.92970  1.0000
  C   C4        1.0  0.26126  0.38917  0.57030  1.0000
  C   C5        1.0  0.79932  0.72516  0.85478  1.0000
  C   C6        1.0  0.77481  0.70071  0.64521  1.0000
  C   C7        1.0  0.20069  0.27483  0.14522  1.0000
  C   C8        1.0  0.22517  0.29929  0.35479  1.0000
  C   C9        1.0  0.97030  0.89553  0.75161  1.0000
  C   C10       1.0  0.60447  0.52970  0.74840  1.0000
  C   C11       1.0  0.02969  0.10447  0.24839  1.0000
  C   C12       1.0  0.39554  0.47029  0.25161  1.0000
  C   C13       1.0  0.96917  0.53080  0.75000  1.0000
  C   C14       1.0  0.03082  0.46919  0.25000  1.0000
  C   C15       1.0  0.60566  0.89439  0.75001  1.0000
  C   C16       1.0  0.39435  0.10562  0.25000  1.0000
  S   S1        1.0  0.64508  0.76450  0.08677  1.0000
  S   S2        1.0  0.73551  0.85494  0.41323  1.0000
  S   S3        1.0  0.35490  0.23548  0.91324  1.0000
  S   S4        1.0  0.26449  0.14507  0.58677  1.0000
  N   N1        1.0  0.06710  0.75911  0.06037  1.0000
  N   N2        1.0  0.74092  0.43294  0.43964  1.0000
  N   N3        1.0  0.93287  0.24090  0.93962  1.0000
  N   N4        1.0  0.25910  0.56707  0.56037  1.0000
  N   N5        1.0  0.98066  0.71953  0.80453  1.0000
  N   N6        1.0  0.78043  0.51937  0.69545  1.0000
  N   N7        1.0  0.01934  0.28046  0.19546  1.0000
  N   N8        1.0  0.21957  0.48064  0.30454  1.0000
  N   N9        1.0  0.60643  0.71839  0.80283  1.0000
  N   N10       1.0  0.78160  0.89357  0.69716  1.0000
  N   N11       1.0  0.39356  0.28161  0.19717  1.0000
  N   N12       1.0  0.21839  0.10644  0.30284  1.0000
