data_image0
_chemical_formula_structural       Sn2H34C32Cl2O4
_chemical_formula_sum              "Sn2 H34 C32 Cl2 O4"
_cell_length_a       8.65431
_cell_length_b       8.65428
_cell_length_c       10.8272
_cell_angle_alpha    92.5811
_cell_angle_beta     92.5812
_cell_angle_gamma    91.2809

_space_group_name_H-M_alt    "P 1"
_space_group_IT_number       1

loop_
  _space_group_symop_operation_xyz
  'x, y, z'

loop_
  _atom_site_type_symbol
  _atom_site_label
  _atom_site_symmetry_multiplicity
  _atom_site_fract_x
  _atom_site_fract_y
  _atom_site_fract_z
  _atom_site_occupancy
  Sn  Sn1       1.0  0.05334  0.94139  0.49578  1.0000
  Sn  Sn2       1.0  0.94140  0.05334  0.99578  1.0000
  H   H1        1.0  0.99287  0.68692  0.27694  1.0000
  H   H2        1.0  0.68692  0.99287  0.77694  1.0000
  H   H3        1.0  0.15352  0.52768  0.13844  1.0000
  H   H4        1.0  0.52768  0.15353  0.63844  1.0000
  H   H5        1.0  0.43934  0.55514  0.15543  1.0000
  H   H6        1.0  0.55515  0.43934  0.65543  1.0000
  H   H7        1.0  0.56654  0.73441  0.31773  1.0000
  H   H8        1.0  0.73441  0.56655  0.81773  1.0000
  H   H9        1.0  0.40853  0.88864  0.46012  1.0000
  H   H10       1.0  0.88864  0.40853  0.96012  1.0000
  H   H11       1.0  0.99598  0.22316  0.68996  1.0000
  H   H12       1.0  0.22316  0.99598  0.18996  1.0000
  H   H13       1.0  0.09080  0.49474  0.72042  1.0000
  H   H14       1.0  0.49475  0.09080  0.22042  1.0000
  H   H15       1.0  0.29053  0.59822  0.58683  1.0000
  H   H16       1.0  0.59822  0.29053  0.08683  1.0000
  H   H17       1.0  0.39677  0.42798  0.42017  1.0000
  H   H18       1.0  0.42798  0.39677  0.92017  1.0000
  H   H19       1.0  0.30111  0.15782  0.38716  1.0000
  H   H20       1.0  0.15781  0.30111  0.88716  1.0000
  H   H21       1.0  0.76275  0.96634  0.56767  1.0000
  H   H22       1.0  0.96634  0.76275  0.06767  1.0000
  H   H23       1.0  0.76770  0.85036  0.42871  1.0000
  H   H24       1.0  0.85036  0.76770  0.92872  1.0000
  H   H25       1.0  0.67913  0.69044  0.60442  1.0000
  H   H26       1.0  0.69044  0.67913  0.10442  1.0000
  H   H27       1.0  0.85372  0.74080  0.69079  1.0000
  H   H28       1.0  0.74080  0.85372  0.19079  1.0000
  H   H29       1.0  0.85764  0.62249  0.55295  1.0000
  H   H30       1.0  0.62250  0.85764  0.05295  1.0000
  H   H31       1.0  0.32127  0.94498  0.91570  1.0000
  H   H32       1.0  0.94498  0.32127  0.41570  1.0000
  H   H33       1.0  0.21797  0.77016  0.93819  1.0000
  H   H34       1.0  0.77016  0.21797  0.43819  1.0000
  C   C1        1.0  0.18911  0.80190  0.37647  1.0000
  C   C2        1.0  0.80190  0.18911  0.87647  1.0000
  C   C3        1.0  0.11878  0.69914  0.28595  1.0000
  C   C4        1.0  0.69914  0.11878  0.78595  1.0000
  C   C5        1.0  0.20853  0.61021  0.20693  1.0000
  C   C6        1.0  0.61021  0.20853  0.70693  1.0000
  C   C7        1.0  0.36974  0.62471  0.21702  1.0000
  C   C8        1.0  0.62471  0.36974  0.71702  1.0000
  C   C9        1.0  0.44077  0.72511  0.30816  1.0000
  C   C10       1.0  0.72512  0.44078  0.80816  1.0000
  C   C11       1.0  0.35120  0.81258  0.38798  1.0000
  C   C12       1.0  0.81258  0.35120  0.88798  1.0000
  C   C13       1.0  0.14405  0.17017  0.53787  1.0000
  C   C14       1.0  0.17017  0.14405  0.03788  1.0000
  C   C15       1.0  0.08512  0.26648  0.63139  1.0000
  C   C16       1.0  0.26648  0.08512  0.13139  1.0000
  C   C17       1.0  0.13854  0.41989  0.64851  1.0000
  C   C18       1.0  0.41989  0.13853  0.14851  1.0000
  C   C19       1.0  0.25079  0.47824  0.57311  1.0000
  C   C20       1.0  0.47824  0.25079  0.07311  1.0000
  C   C21       1.0  0.31016  0.38278  0.48006  1.0000
  C   C22       1.0  0.38278  0.31016  0.98006  1.0000
  C   C23       1.0  0.25672  0.22953  0.46246  1.0000
  C   C24       1.0  0.22953  0.25672  0.96246  1.0000
  C   C25       1.0  0.81872  0.86716  0.52327  1.0000
  C   C26       1.0  0.86716  0.81872  0.02327  1.0000
  C   C27       1.0  0.80202  0.72232  0.59678  1.0000
  C   C28       1.0  0.72232  0.80202  0.09678  1.0000
  C   C29       1.0  0.15801  0.87921  0.76783  1.0000
  C   C30       1.0  0.87921  0.15801  0.26783  1.0000
  C   C31       1.0  0.27560  0.83728  0.86913  1.0000
  C   C32       1.0  0.83728  0.27560  0.36913  1.0000
  Cl  Cl1       1.0  0.43572  0.72968  0.81853  1.0000
  Cl  Cl2       1.0  0.72967  0.43572  0.31853  1.0000
  O   O1        1.0  0.18652  0.84471  0.65545  1.0000
  O   O2        1.0  0.84470  0.18652  0.15546  1.0000
  O   O3        1.0  0.03851  0.94791  0.80137  1.0000
  O   O4        1.0  0.94791  0.03851  0.30137  1.0000
