data_image0
_chemical_formula_structural       Ni4H16C20N12
_chemical_formula_sum              "Ni4 H16 C20 N12"
_cell_length_a       5.31505
_cell_length_b       9.35563
_cell_length_c       11.413
_cell_angle_alpha    90.0009
_cell_angle_beta     91.0485
_cell_angle_gamma    90.0022

_space_group_name_H-M_alt    "P 1"
_space_group_IT_number       1

loop_
  _space_group_symop_operation_xyz
  'x, y, z'

loop_
  _atom_site_type_symbol
  _atom_site_label
  _atom_site_symmetry_multiplicity
  _atom_site_fract_x
  _atom_site_fract_y
  _atom_site_fract_z
  _atom_site_occupancy
  Ni  Ni1       1.0  0.34693  0.49984  0.25362  1.0000
  Ni  Ni2       1.0  0.65306  0.99986  0.24638  1.0000
  Ni  Ni3       1.0  0.65302  0.50015  0.74637  1.0000
  Ni  Ni4       1.0  0.34697  0.00014  0.75363  1.0000
  H   H1        1.0  0.89907  0.64659  0.33023  1.0000
  H   H2        1.0  0.10095  0.14660  0.16977  1.0000
  H   H3        1.0  0.10094  0.35341  0.66976  1.0000
  H   H4        1.0  0.89904  0.85339  0.83025  1.0000
  H   H5        1.0  0.38532  0.63968  0.00858  1.0000
  H   H6        1.0  0.61469  0.13967  0.49142  1.0000
  H   H7        1.0  0.61466  0.36034  0.99143  1.0000
  H   H8        1.0  0.38532  0.86034  0.50857  1.0000
  H   H9        1.0  0.88723  0.36246  0.17145  1.0000
  H   H10       1.0  0.11277  0.86247  0.32854  1.0000
  H   H11       1.0  0.11275  0.63755  0.82855  1.0000
  H   H12       1.0  0.88725  0.13754  0.67146  1.0000
  H   H13       1.0  0.38732  0.36225  0.50068  1.0000
  H   H14       1.0  0.61266  0.86224  0.99933  1.0000
  H   H15       1.0  0.61268  0.63775  0.49930  1.0000
  H   H16       1.0  0.38734  0.13775  0.00069  1.0000
  C   C1        1.0  0.21321  0.57663  0.00497  1.0000
  C   C2        1.0  0.78680  0.07663  0.49503  1.0000
  C   C3        1.0  0.78678  0.42338  0.99502  1.0000
  C   C4        1.0  0.21321  0.92337  0.50497  1.0000
  C   C5        1.0  0.93988  0.42339  0.09453  1.0000
  C   C6        1.0  0.06011  0.92340  0.40547  1.0000
  C   C7        1.0  0.06012  0.57661  0.90546  1.0000
  C   C8        1.0  0.93989  0.07661  0.59454  1.0000
  C   C9        1.0  0.94717  0.58167  0.40647  1.0000
  C   C10       1.0  0.05284  0.08167  0.09353  1.0000
  C   C11       1.0  0.05284  0.41834  0.59353  1.0000
  C   C12       1.0  0.94715  0.91832  0.90648  1.0000
  C   C13       1.0  0.21413  0.42430  0.49985  1.0000
  C   C14       1.0  0.78587  0.92430  0.00015  1.0000
  C   C15       1.0  0.78588  0.57570  0.50014  1.0000
  C   C16       1.0  0.21413  0.07570  0.99986  1.0000
  C   C17       1.0  0.53552  0.81240  0.23998  1.0000
  C   C18       1.0  0.46448  0.31238  0.26002  1.0000
  C   C19       1.0  0.46453  0.18761  0.76001  1.0000
  C   C20       1.0  0.53549  0.68760  0.73998  1.0000
  N   N1        1.0  0.15616  0.49954  0.10107  1.0000
  N   N2        1.0  0.84385  0.99955  0.39893  1.0000
  N   N3        1.0  0.84384  0.50045  0.89892  1.0000
  N   N4        1.0  0.15616  0.00044  0.60108  1.0000
  N   N5        1.0  0.16497  0.50627  0.40436  1.0000
  N   N6        1.0  0.83504  0.00627  0.09564  1.0000
  N   N7        1.0  0.83505  0.49374  0.59564  1.0000
  N   N8        1.0  0.16495  0.99373  0.90436  1.0000
  N   N9        1.0  0.45871  0.69353  0.24167  1.0000
  N   N10       1.0  0.54129  0.19354  0.25834  1.0000
  N   N11       1.0  0.54125  0.30647  0.75832  1.0000
  N   N12       1.0  0.45874  0.80646  0.74167  1.0000
