data_image0
_chemical_formula_structural       Zn4H44C60S4N12O20
_chemical_formula_sum              "Zn4 H44 C60 S4 N12 O20"
_cell_length_a       8.55467
_cell_length_b       13.4264
_cell_length_c       13.6638
_cell_angle_alpha    90.0003
_cell_angle_beta     89.9998
_cell_angle_gamma    102.177

_space_group_name_H-M_alt    "P 1"
_space_group_IT_number       1

loop_
  _space_group_symop_operation_xyz
  'x, y, z'

loop_
  _atom_site_type_symbol
  _atom_site_label
  _atom_site_symmetry_multiplicity
  _atom_site_fract_x
  _atom_site_fract_y
  _atom_site_fract_z
  _atom_site_occupancy
  Zn  Zn1       1.0  0.58286  0.01430  0.89005  1.0000
  Zn  Zn2       1.0  0.91714  0.98570  0.39005  1.0000
  Zn  Zn3       1.0  0.41714  0.98570  0.10995  1.0000
  Zn  Zn4       1.0  0.08286  0.01430  0.60995  1.0000
  H   H1        1.0  0.85983  0.04995  0.99251  1.0000
  H   H2        1.0  0.64017  0.95005  0.49251  1.0000
  H   H3        1.0  0.14018  0.95005  0.00749  1.0000
  H   H4        1.0  0.35983  0.04996  0.50749  1.0000
  H   H5        1.0  0.88999  0.99354  0.89625  1.0000
  H   H6        1.0  0.61001  0.00646  0.39626  1.0000
  H   H7        1.0  0.11001  0.00646  0.10375  1.0000
  H   H8        1.0  0.38999  0.99354  0.60375  1.0000
  H   H9        1.0  0.54255  0.76815  0.52771  1.0000
  H   H10       1.0  0.95744  0.23184  0.02771  1.0000
  H   H11       1.0  0.45744  0.23185  0.47229  1.0000
  H   H12       1.0  0.04256  0.76815  0.97229  1.0000
  H   H13       1.0  0.59026  0.59469  0.48730  1.0000
  H   H14       1.0  0.90973  0.40531  0.98730  1.0000
  H   H15       1.0  0.40973  0.40531  0.51270  1.0000
  H   H16       1.0  0.09026  0.59469  0.01270  1.0000
  H   H17       1.0  0.88786  0.60571  0.74274  1.0000
  H   H18       1.0  0.61214  0.39429  0.24274  1.0000
  H   H19       1.0  0.11214  0.39429  0.25726  1.0000
  H   H20       1.0  0.38786  0.60571  0.75726  1.0000
  H   H21       1.0  0.83847  0.77739  0.78414  1.0000
  H   H22       1.0  0.66153  0.22261  0.28414  1.0000
  H   H23       1.0  0.16153  0.22261  0.21586  1.0000
  H   H24       1.0  0.33847  0.77739  0.71586  1.0000
  H   H25       1.0  0.81424  0.38386  0.44602  1.0000
  H   H26       1.0  0.68576  0.61614  0.94602  1.0000
  H   H27       1.0  0.18575  0.61614  0.55398  1.0000
  H   H28       1.0  0.31424  0.38386  0.05398  1.0000
  H   H29       1.0  0.87685  0.22165  0.38465  1.0000
  H   H30       1.0  0.62315  0.77835  0.88464  1.0000
  H   H31       1.0  0.12315  0.77835  0.61535  1.0000
  H   H32       1.0  0.37685  0.22165  0.11536  1.0000
  H   H33       1.0  0.97436  0.40020  0.78568  1.0000
  H   H34       1.0  0.52563  0.59979  0.28567  1.0000
  H   H35       1.0  0.02564  0.59979  0.21432  1.0000
  H   H36       1.0  0.47436  0.40020  0.71433  1.0000
  H   H37       1.0  0.08781  0.28006  0.89169  1.0000
  H   H38       1.0  0.41218  0.71994  0.39169  1.0000
  H   H39       1.0  0.91219  0.71994  0.10831  1.0000
  H   H40       1.0  0.58782  0.28006  0.60831  1.0000
  H   H41       1.0  0.14724  0.12177  0.81798  1.0000
  H   H42       1.0  0.35276  0.87823  0.31797  1.0000
  H   H43       1.0  0.85276  0.87823  0.18202  1.0000
  H   H44       1.0  0.64725  0.12177  0.68203  1.0000
  C   C1        1.0  0.68894  0.78272  0.65733  1.0000
  C   C2        1.0  0.81106  0.21728  0.15733  1.0000
  C   C3        1.0  0.31106  0.21728  0.34267  1.0000
  C   C4        1.0  0.18894  0.78272  0.84267  1.0000
  C   C5        1.0  0.61729  0.73188  0.57430  1.0000
  C   C6        1.0  0.88270  0.26812  0.07430  1.0000
  C   C7        1.0  0.38270  0.26812  0.42570  1.0000
  C   C8        1.0  0.11729  0.73187  0.92570  1.0000
  C   C9        1.0  0.64388  0.63580  0.55197  1.0000
  C   C10       1.0  0.85612  0.36420  0.05197  1.0000
  C   C11       1.0  0.35612  0.36420  0.44803  1.0000
  C   C12       1.0  0.14387  0.63580  0.94802  1.0000
  C   C13       1.0  0.74312  0.59043  0.61163  1.0000
  C   C14       1.0  0.75688  0.40957  0.11163  1.0000
  C   C15       1.0  0.25688  0.40957  0.38837  1.0000
  C   C16       1.0  0.24312  0.59043  0.88836  1.0000
  C   C17       1.0  0.81123  0.64138  0.69676  1.0000
  C   C18       1.0  0.68877  0.35862  0.19676  1.0000
  C   C19       1.0  0.18877  0.35862  0.30324  1.0000
  C   C20       1.0  0.31123  0.64138  0.80324  1.0000
  C   C21       1.0  0.78406  0.73699  0.71945  1.0000
  C   C22       1.0  0.71595  0.26301  0.21945  1.0000
  C   C23       1.0  0.21595  0.26301  0.28055  1.0000
  C   C24       1.0  0.28406  0.73699  0.78055  1.0000
  C   C25       1.0  0.90014  0.36876  0.59129  1.0000
  C   C26       1.0  0.59987  0.63124  0.09129  1.0000
  C   C27       1.0  0.09986  0.63125  0.40871  1.0000
  C   C28       1.0  0.40014  0.36875  0.90872  1.0000
  C   C29       1.0  0.86644  0.33541  0.49476  1.0000
  C   C30       1.0  0.63357  0.66459  0.99476  1.0000
  C   C31       1.0  0.13356  0.66459  0.50524  1.0000
  C   C32       1.0  0.36643  0.33541  0.00524  1.0000
  C   C33       1.0  0.90047  0.24497  0.46028  1.0000
  C   C34       1.0  0.59953  0.75503  0.96028  1.0000
  C   C35       1.0  0.09952  0.75503  0.53972  1.0000
  C   C36       1.0  0.40048  0.24497  0.03972  1.0000
  C   C37       1.0  0.97101  0.18238  0.52117  1.0000
  C   C38       1.0  0.52900  0.81762  0.02117  1.0000
  C   C39       1.0  0.02899  0.81762  0.47883  1.0000
  C   C40       1.0  0.47101  0.18238  0.97883  1.0000
  C   C41       1.0  0.00672  0.21472  0.62104  1.0000
  C   C42       1.0  0.49328  0.78528  0.12104  1.0000
  C   C43       1.0  0.99328  0.78528  0.37896  1.0000
  C   C44       1.0  0.50672  0.21472  0.87896  1.0000
  C   C45       1.0  0.97216  0.30746  0.65626  1.0000
  C   C46       1.0  0.52784  0.69254  0.15625  1.0000
  C   C47       1.0  0.02783  0.69254  0.34374  1.0000
  C   C48       1.0  0.47216  0.30746  0.84375  1.0000
  C   C49       1.0  0.00195  0.33044  0.75639  1.0000
  C   C50       1.0  0.49805  0.66956  0.25639  1.0000
  C   C51       1.0  0.99806  0.66956  0.24361  1.0000
  C   C52       1.0  0.50194  0.33044  0.74361  1.0000
  C   C53       1.0  0.06332  0.26405  0.81459  1.0000
  C   C54       1.0  0.43667  0.73595  0.31458  1.0000
  C   C55       1.0  0.93668  0.73595  0.18541  1.0000
  C   C56       1.0  0.56333  0.26405  0.68541  1.0000
  C   C57       1.0  0.09717  0.17481  0.77355  1.0000
  C   C58       1.0  0.40283  0.82519  0.27355  1.0000
  C   C59       1.0  0.90283  0.82519  0.22645  1.0000
  C   C60       1.0  0.59717  0.17481  0.72645  1.0000
  S   S1        1.0  0.66353  0.90818  0.68108  1.0000
  S   S2        1.0  0.83647  0.09182  0.18108  1.0000
  S   S3        1.0  0.33646  0.09182  0.31892  1.0000
  S   S4        1.0  0.16354  0.90818  0.81892  1.0000
  N   N1        1.0  0.76877  0.49638  0.57776  1.0000
  N   N2        1.0  0.73123  0.50362  0.07776  1.0000
  N   N3        1.0  0.23123  0.50362  0.42224  1.0000
  N   N4        1.0  0.26877  0.49638  0.92224  1.0000
  N   N5        1.0  0.86641  0.45783  0.62894  1.0000
  N   N6        1.0  0.63358  0.54217  0.12894  1.0000
  N   N7        1.0  0.13359  0.54217  0.37106  1.0000
  N   N8        1.0  0.36641  0.45782  0.87106  1.0000
  N   N9        1.0  0.06968  0.15102  0.67988  1.0000
  N   N10       1.0  0.43032  0.84898  0.17988  1.0000
  N   N11       1.0  0.93032  0.84898  0.32012  1.0000
  N   N12       1.0  0.56968  0.15102  0.82012  1.0000
  O   O1        1.0  0.81548  0.98040  0.66810  1.0000
  O   O2        1.0  0.68452  0.01960  0.16810  1.0000
  O   O3        1.0  0.18452  0.01960  0.33190  1.0000
  O   O4        1.0  0.31548  0.98040  0.83190  1.0000
  O   O5        1.0  0.54170  0.92509  0.60943  1.0000
  O   O6        1.0  0.95830  0.07491  0.10943  1.0000
  O   O7        1.0  0.45830  0.07491  0.39057  1.0000
  O   O8        1.0  0.04170  0.92509  0.89056  1.0000
  O   O9        1.0  0.60567  0.90663  0.78323  1.0000
  O   O10       1.0  0.89434  0.09338  0.28323  1.0000
  O   O11       1.0  0.39434  0.09337  0.21677  1.0000
  O   O12       1.0  0.10566  0.90662  0.71677  1.0000
  O   O13       1.0  0.82412  0.03915  0.92369  1.0000
  O   O14       1.0  0.67588  0.96085  0.42369  1.0000
  O   O15       1.0  0.17588  0.96085  0.07631  1.0000
  O   O16       1.0  0.32412  0.03915  0.57631  1.0000
  O   O17       1.0  0.00697  0.09684  0.49273  1.0000
  O   O18       1.0  0.49303  0.90316  0.99272  1.0000
  O   O19       1.0  0.99303  0.90316  0.50728  1.0000
  O   O20       1.0  0.50697  0.09684  0.00728  1.0000
