data_image0
_chemical_formula_structural       Ag4H24C36S2N4O14
_chemical_formula_sum              "Ag4 H24 C36 S2 N4 O14"
_cell_length_a       8.1277
_cell_length_b       10.543
_cell_length_c       11.2678
_cell_angle_alpha    105.095
_cell_angle_beta     97.1491
_cell_angle_gamma    101.589

_space_group_name_H-M_alt    "P 1"
_space_group_IT_number       1

loop_
  _space_group_symop_operation_xyz
  'x, y, z'

loop_
  _atom_site_type_symbol
  _atom_site_label
  _atom_site_symmetry_multiplicity
  _atom_site_fract_x
  _atom_site_fract_y
  _atom_site_fract_z
  _atom_site_occupancy
  Ag  Ag1       1.0  0.87695  0.06167  0.96059  1.0000
  Ag  Ag2       1.0  0.12306  0.93832  0.03941  1.0000
  Ag  Ag3       1.0  0.11620  0.38032  0.00345  1.0000
  Ag  Ag4       1.0  0.88380  0.61968  0.99655  1.0000
  H   H1        1.0  0.53081  0.90094  0.76514  1.0000
  H   H2        1.0  0.46919  0.09907  0.23487  1.0000
  H   H3        1.0  0.39916  0.71121  0.34564  1.0000
  H   H4        1.0  0.60084  0.28880  0.65437  1.0000
  H   H5        1.0  0.81247  0.02309  0.60014  1.0000
  H   H6        1.0  0.18754  0.97691  0.39987  1.0000
  H   H7        1.0  0.93323  0.06496  0.41764  1.0000
  H   H8        1.0  0.06678  0.93504  0.58237  1.0000
  H   H9        1.0  0.84346  0.29360  0.15387  1.0000
  H   H10       1.0  0.15653  0.70641  0.84612  1.0000
  H   H11       1.0  0.83353  0.29969  0.37263  1.0000
  H   H12       1.0  0.16646  0.70031  0.62736  1.0000
  H   H13       1.0  0.38720  0.41349  0.44827  1.0000
  H   H14       1.0  0.61279  0.58651  0.55173  1.0000
  H   H15       1.0  0.37265  0.40427  0.22410  1.0000
  H   H16       1.0  0.62734  0.59573  0.77590  1.0000
  H   H17       1.0  0.37336  0.48927  0.63535  1.0000
  H   H18       1.0  0.62663  0.51072  0.36464  1.0000
  H   H19       1.0  0.36334  0.49977  0.85673  1.0000
  H   H20       1.0  0.63666  0.50022  0.14326  1.0000
  H   H21       1.0  0.85755  0.28029  0.76480  1.0000
  H   H22       1.0  0.14246  0.71970  0.23520  1.0000
  H   H23       1.0  0.84562  0.26120  0.53967  1.0000
  H   H24       1.0  0.15438  0.73879  0.46033  1.0000
  C   C1        1.0  0.81754  0.95360  0.17771  1.0000
  C   C2        1.0  0.18246  0.04640  0.82230  1.0000
  C   C3        1.0  0.72913  0.91997  0.27944  1.0000
  C   C4        1.0  0.27087  0.08004  0.72056  1.0000
  C   C5        1.0  0.57557  0.82122  0.25913  1.0000
  C   C6        1.0  0.42444  0.17879  0.74088  1.0000
  C   C7        1.0  0.51301  0.79265  0.36165  1.0000
  C   C8        1.0  0.48699  0.20736  0.63836  1.0000
  C   C9        1.0  0.59581  0.86526  0.48438  1.0000
  C   C10       1.0  0.40419  0.13474  0.51563  1.0000
  C   C11       1.0  0.74644  0.96660  0.50497  1.0000
  C   C12       1.0  0.25357  0.03340  0.49504  1.0000
  C   C13       1.0  0.81264  0.99063  0.40292  1.0000
  C   C14       1.0  0.18737  0.00937  0.59709  1.0000
  C   C15       1.0  0.52141  0.83257  0.58935  1.0000
  C   C16       1.0  0.47860  0.16744  0.41065  1.0000
  C   C17       1.0  0.96127  0.32012  0.22248  1.0000
  C   C18       1.0  0.03873  0.67988  0.77751  1.0000
  C   C19       1.0  0.95761  0.32280  0.34582  1.0000
  C   C20       1.0  0.04238  0.67720  0.65418  1.0000
  C   C21       1.0  0.11108  0.36000  0.43267  1.0000
  C   C22       1.0  0.88892  0.64000  0.56732  1.0000
  C   C23       1.0  0.26340  0.38859  0.38746  1.0000
  C   C24       1.0  0.73660  0.61141  0.61253  1.0000
  C   C25       1.0  0.25743  0.38264  0.26265  1.0000
  C   C26       1.0  0.74257  0.61736  0.73735  1.0000
  C   C27       1.0  0.11164  0.36993  0.56584  1.0000
  C   C28       1.0  0.88834  0.63007  0.43416  1.0000
  C   C29       1.0  0.25695  0.43857  0.65854  1.0000
  C   C30       1.0  0.74304  0.56143  0.34145  1.0000
  C   C31       1.0  0.25184  0.44713  0.78302  1.0000
  C   C32       1.0  0.74816  0.55286  0.21697  1.0000
  C   C33       1.0  0.96874  0.32443  0.73113  1.0000
  C   C34       1.0  0.03126  0.67556  0.26886  1.0000
  C   C35       1.0  0.96447  0.31333  0.60550  1.0000
  C   C36       1.0  0.03552  0.68666  0.39450  1.0000
  S   S1        1.0  0.45262  0.72540  0.10525  1.0000
  S   S2        1.0  0.54738  0.27459  0.89475  1.0000
  N   N1        1.0  0.10847  0.35139  0.18133  1.0000
  N   N2        1.0  0.89153  0.64862  0.81867  1.0000
  N   N3        1.0  0.11004  0.39018  0.81879  1.0000
  N   N4        1.0  0.88996  0.60981  0.18120  1.0000
  O   O1        1.0  0.74816  0.01449  0.11011  1.0000
  O   O2        1.0  0.25184  0.98551  0.88989  1.0000
  O   O3        1.0  0.96123  0.92256  0.17727  1.0000
  O   O4        1.0  0.03877  0.07744  0.82274  1.0000
  O   O5        1.0  0.57363  0.71207  0.01966  1.0000
  O   O6        1.0  0.42637  0.28793  0.98035  1.0000
  O   O7        1.0  0.33082  0.80492  0.07785  1.0000
  O   O8        1.0  0.66918  0.19508  0.92215  1.0000
  O   O9        1.0  0.36708  0.59666  0.12311  1.0000
  O   O10       1.0  0.63292  0.40334  0.87691  1.0000
  O   O11       1.0  0.40435  0.73273  0.57708  1.0000
  O   O12       1.0  0.59564  0.26727  0.42293  1.0000
  O   O13       1.0  0.59404  0.92340  0.70151  1.0000
  O   O14       1.0  0.40596  0.07659  0.29850  1.0000
