data_image0
_chemical_formula_structural       Bi4H44C36S8N4Cl4
_chemical_formula_sum              "Bi4 H44 C36 S8 N4 Cl4"
_cell_length_a       8.27125
_cell_length_b       8.5464
_cell_length_c       17.3371
_cell_angle_alpha    102.499
_cell_angle_beta     90.0003
_cell_angle_gamma    90.0001

_space_group_name_H-M_alt    "P 1"
_space_group_IT_number       1

loop_
  _space_group_symop_operation_xyz
  'x, y, z'

loop_
  _atom_site_type_symbol
  _atom_site_label
  _atom_site_symmetry_multiplicity
  _atom_site_fract_x
  _atom_site_fract_y
  _atom_site_fract_z
  _atom_site_occupancy
  Bi  Bi1       1.0  0.67173  0.24500  0.80511  1.0000
  Bi  Bi2       1.0  0.17172  0.25501  0.69489  1.0000
  Bi  Bi3       1.0  0.32827  0.75501  0.19489  1.0000
  Bi  Bi4       1.0  0.82826  0.74499  0.30511  1.0000
  H   H1        1.0  0.10218  0.17260  0.08007  1.0000
  H   H2        1.0  0.60218  0.32740  0.41993  1.0000
  H   H3        1.0  0.89783  0.82740  0.91993  1.0000
  H   H4        1.0  0.39782  0.67260  0.58007  1.0000
  H   H5        1.0  0.96148  0.31006  0.13648  1.0000
  H   H6        1.0  0.46148  0.18994  0.36352  1.0000
  H   H7        1.0  0.03852  0.68994  0.86352  1.0000
  H   H8        1.0  0.53852  0.81006  0.63648  1.0000
  H   H9        1.0  0.03717  0.34558  0.04571  1.0000
  H   H10       1.0  0.53717  0.15442  0.45429  1.0000
  H   H11       1.0  0.96283  0.65442  0.95429  1.0000
  H   H12       1.0  0.46283  0.84558  0.54571  1.0000
  H   H13       1.0  0.67422  0.00535  0.04880  1.0000
  H   H14       1.0  0.17422  0.49465  0.45120  1.0000
  H   H15       1.0  0.32578  0.99465  0.95120  1.0000
  H   H16       1.0  0.82578  0.50535  0.54880  1.0000
  H   H17       1.0  0.75797  0.11810  0.13816  1.0000
  H   H18       1.0  0.25797  0.38190  0.36183  1.0000
  H   H19       1.0  0.24203  0.88190  0.86184  1.0000
  H   H20       1.0  0.74204  0.61810  0.63817  1.0000
  H   H21       1.0  0.86779  0.95265  0.08190  1.0000
  H   H22       1.0  0.36780  0.54735  0.41810  1.0000
  H   H23       1.0  0.13221  0.04735  0.91810  1.0000
  H   H24       1.0  0.63221  0.45265  0.58190  1.0000
  H   H25       1.0  0.93200  0.94851  0.80868  1.0000
  H   H26       1.0  0.43199  0.55148  0.69132  1.0000
  H   H27       1.0  0.06801  0.05148  0.19132  1.0000
  H   H28       1.0  0.56800  0.44852  0.30868  1.0000
  H   H29       1.0  0.10234  0.76272  0.71137  1.0000
  H   H30       1.0  0.60234  0.73728  0.78862  1.0000
  H   H31       1.0  0.89766  0.23728  0.28862  1.0000
  H   H32       1.0  0.39766  0.26272  0.21138  1.0000
  H   H33       1.0  0.08264  0.76397  0.56831  1.0000
  H   H34       1.0  0.58264  0.73604  0.93168  1.0000
  H   H35       1.0  0.91736  0.23603  0.43168  1.0000
  H   H36       1.0  0.41736  0.26396  0.06831  1.0000
  H   H37       1.0  0.88964  0.94907  0.52263  1.0000
  H   H38       1.0  0.38964  0.55094  0.97737  1.0000
  H   H39       1.0  0.11035  0.05093  0.47736  1.0000
  H   H40       1.0  0.61036  0.44907  0.02263  1.0000
  H   H41       1.0  0.72339  0.13625  0.61890  1.0000
  H   H42       1.0  0.22339  0.36375  0.88110  1.0000
  H   H43       1.0  0.27661  0.86375  0.38110  1.0000
  H   H44       1.0  0.77661  0.63625  0.11890  1.0000
  C   C1        1.0  0.81467  0.17708  0.96378  1.0000
  C   C2        1.0  0.31467  0.32292  0.53622  1.0000
  C   C3        1.0  0.18533  0.82292  0.03622  1.0000
  C   C4        1.0  0.68533  0.67708  0.46378  1.0000
  C   C5        1.0  0.99943  0.25249  0.07637  1.0000
  C   C6        1.0  0.49943  0.24752  0.42363  1.0000
  C   C7        1.0  0.00057  0.74751  0.92363  1.0000
  C   C8        1.0  0.50057  0.75248  0.57637  1.0000
  C   C9        1.0  0.78656  0.05263  0.07808  1.0000
  C   C10       1.0  0.28656  0.44737  0.42192  1.0000
  C   C11       1.0  0.21344  0.94737  0.92192  1.0000
  C   C12       1.0  0.71344  0.55263  0.57808  1.0000
  C   C13       1.0  0.81649  0.05488  0.72079  1.0000
  C   C14       1.0  0.31649  0.44512  0.77921  1.0000
  C   C15       1.0  0.18351  0.94512  0.27921  1.0000
  C   C16       1.0  0.68351  0.55488  0.22079  1.0000
  C   C17       1.0  0.92284  0.94895  0.74598  1.0000
  C   C18       1.0  0.42284  0.55105  0.75402  1.0000
  C   C19       1.0  0.07716  0.05105  0.25402  1.0000
  C   C20       1.0  0.57716  0.44895  0.24598  1.0000
  C   C21       1.0  0.01907  0.84453  0.69132  1.0000
  C   C22       1.0  0.51907  0.65547  0.80867  1.0000
  C   C23       1.0  0.98093  0.15546  0.30867  1.0000
  C   C24       1.0  0.48093  0.34453  0.19133  1.0000
  C   C25       1.0  0.00855  0.84575  0.61103  1.0000
  C   C26       1.0  0.50854  0.65425  0.88897  1.0000
  C   C27       1.0  0.99145  0.15425  0.38897  1.0000
  C   C28       1.0  0.49145  0.34575  0.11103  1.0000
  C   C29       1.0  0.90047  0.94970  0.58539  1.0000
  C   C30       1.0  0.40046  0.55030  0.91461  1.0000
  C   C31       1.0  0.09953  0.05030  0.41461  1.0000
  C   C32       1.0  0.59953  0.44970  0.08539  1.0000
  C   C33       1.0  0.80516  0.05439  0.64005  1.0000
  C   C34       1.0  0.30516  0.44561  0.85995  1.0000
  C   C35       1.0  0.19483  0.94561  0.35995  1.0000
  C   C36       1.0  0.69484  0.55439  0.14005  1.0000
  S   S1        1.0  0.65156  0.07011  0.91725  1.0000
  S   S2        1.0  0.15156  0.42989  0.58275  1.0000
  S   S3        1.0  0.34845  0.92988  0.08275  1.0000
  S   S4        1.0  0.84845  0.57012  0.41725  1.0000
  S   S5        1.0  0.91026  0.30666  0.91476  1.0000
  S   S6        1.0  0.41026  0.19334  0.58524  1.0000
  S   S7        1.0  0.08974  0.69334  0.08524  1.0000
  S   S8        1.0  0.58974  0.80667  0.41476  1.0000
  N   N1        1.0  0.86459  0.16075  0.03489  1.0000
  N   N2        1.0  0.36459  0.33925  0.46511  1.0000
  N   N3        1.0  0.13541  0.83925  0.96512  1.0000
  N   N4        1.0  0.63541  0.66076  0.53489  1.0000
  Cl  Cl1       1.0  0.39314  0.04547  0.75521  1.0000
  Cl  Cl2       1.0  0.89314  0.45452  0.74479  1.0000
  Cl  Cl3       1.0  0.60686  0.95453  0.24479  1.0000
  Cl  Cl4       1.0  0.10686  0.54547  0.25521  1.0000
