data_image0
_chemical_formula_structural       Ag12H20C40S4N4O28
_chemical_formula_sum              "Ag12 H20 C40 S4 N4 O28"
_cell_length_a       10.7815
_cell_length_b       11.2757
_cell_length_c       11.1989
_cell_angle_alpha    90
_cell_angle_beta     90
_cell_angle_gamma    119.121

_space_group_name_H-M_alt    "P 1"
_space_group_IT_number       1

loop_
  _space_group_symop_operation_xyz
  'x, y, z'

loop_
  _atom_site_type_symbol
  _atom_site_label
  _atom_site_symmetry_multiplicity
  _atom_site_fract_x
  _atom_site_fract_y
  _atom_site_fract_z
  _atom_site_occupancy
  Ag  Ag1       1.0  0.33252  0.83697  0.81771  1.0000
  Ag  Ag2       1.0  0.16748  0.16303  0.31771  1.0000
  Ag  Ag3       1.0  0.66748  0.16303  0.18229  1.0000
  Ag  Ag4       1.0  0.83252  0.83697  0.68229  1.0000
  Ag  Ag5       1.0  0.12539  0.98607  0.70174  1.0000
  Ag  Ag6       1.0  0.37461  0.01393  0.20174  1.0000
  Ag  Ag7       1.0  0.87461  0.01393  0.29826  1.0000
  Ag  Ag8       1.0  0.62539  0.98607  0.79826  1.0000
  Ag  Ag9       1.0  0.12246  0.85282  0.00218  1.0000
  Ag  Ag10      1.0  0.37754  0.14718  0.50217  1.0000
  Ag  Ag11      1.0  0.87754  0.14718  0.99782  1.0000
  Ag  Ag12      1.0  0.62246  0.85282  0.49782  1.0000
  H   H1        1.0  0.28371  0.44199  0.93771  1.0000
  H   H2        1.0  0.21629  0.55801  0.43771  1.0000
  H   H3        1.0  0.71629  0.55801  0.06229  1.0000
  H   H4        1.0  0.78371  0.44199  0.56229  1.0000
  H   H5        1.0  0.66814  0.58974  0.73515  1.0000
  H   H6        1.0  0.83186  0.41026  0.23516  1.0000
  H   H7        1.0  0.33186  0.41026  0.26484  1.0000
  H   H8        1.0  0.16814  0.58974  0.76485  1.0000
  H   H9        1.0  0.65200  0.36413  0.74852  1.0000
  H   H10       1.0  0.84800  0.63587  0.24852  1.0000
  H   H11       1.0  0.34800  0.63587  0.25148  1.0000
  H   H12       1.0  0.15200  0.36413  0.75148  1.0000
  H   H13       1.0  0.23452  0.66105  0.07653  1.0000
  H   H14       1.0  0.26548  0.33895  0.57652  1.0000
  H   H15       1.0  0.76548  0.33895  0.92348  1.0000
  H   H16       1.0  0.73452  0.66105  0.42347  1.0000
  H   H17       1.0  0.85719  0.59366  0.91796  1.0000
  H   H18       1.0  0.64281  0.40633  0.41796  1.0000
  H   H19       1.0  0.14281  0.40633  0.08204  1.0000
  H   H20       1.0  0.35719  0.59366  0.58204  1.0000
  C   C1        1.0  0.45722  0.13905  0.84335  1.0000
  C   C2        1.0  0.04278  0.86096  0.34335  1.0000
  C   C3        1.0  0.54278  0.86096  0.15665  1.0000
  C   C4        1.0  0.95722  0.13904  0.65665  1.0000
  C   C5        1.0  0.45699  0.27217  0.84739  1.0000
  C   C6        1.0  0.04301  0.72783  0.34739  1.0000
  C   C7        1.0  0.54301  0.72783  0.15261  1.0000
  C   C8        1.0  0.95699  0.27217  0.65261  1.0000
  C   C9        1.0  0.35325  0.29575  0.90157  1.0000
  C   C10       1.0  0.14675  0.70425  0.40157  1.0000
  C   C11       1.0  0.64675  0.70425  0.09843  1.0000
  C   C12       1.0  0.85325  0.29575  0.59843  1.0000
  C   C13       1.0  0.36292  0.42355  0.89452  1.0000
  C   C14       1.0  0.13708  0.57645  0.39452  1.0000
  C   C15       1.0  0.63708  0.57645  0.10548  1.0000
  C   C16       1.0  0.86292  0.42355  0.60548  1.0000
  C   C17       1.0  0.47388  0.53050  0.83301  1.0000
  C   C18       1.0  0.02612  0.46950  0.33301  1.0000
  C   C19       1.0  0.52612  0.46950  0.16699  1.0000
  C   C20       1.0  0.97388  0.53049  0.66699  1.0000
  C   C21       1.0  0.57920  0.50824  0.78191  1.0000
  C   C22       1.0  0.92080  0.49176  0.28191  1.0000
  C   C23       1.0  0.42080  0.49176  0.21809  1.0000
  C   C24       1.0  0.07920  0.50824  0.71809  1.0000
  C   C25       1.0  0.57077  0.38158  0.78978  1.0000
  C   C26       1.0  0.92923  0.61842  0.28978  1.0000
  C   C27       1.0  0.42923  0.61842  0.21022  1.0000
  C   C28       1.0  0.07077  0.38158  0.71022  1.0000
  C   C29       1.0  0.47572  0.66430  0.82044  1.0000
  C   C30       1.0  0.02428  0.33570  0.32044  1.0000
  C   C31       1.0  0.52428  0.33570  0.17956  1.0000
  C   C32       1.0  0.97572  0.66430  0.67956  1.0000
  C   C33       1.0  0.12936  0.58857  0.04338  1.0000
  C   C34       1.0  0.37064  0.41143  0.54338  1.0000
  C   C35       1.0  0.87064  0.41143  0.95662  1.0000
  C   C36       1.0  0.62936  0.58857  0.45662  1.0000
  C   C37       1.0  0.92019  0.55066  0.95469  1.0000
  C   C38       1.0  0.57981  0.44934  0.45469  1.0000
  C   C39       1.0  0.07981  0.44934  0.04531  1.0000
  C   C40       1.0  0.42019  0.55066  0.54531  1.0000
  S   S1        1.0  0.20238  0.16746  0.97941  1.0000
  S   S2        1.0  0.29762  0.83254  0.47940  1.0000
  S   S3        1.0  0.79762  0.83254  0.02059  1.0000
  S   S4        1.0  0.70238  0.16746  0.52059  1.0000
  N   N1        1.0  0.04881  0.63899  0.99851  1.0000
  N   N2        1.0  0.45119  0.36101  0.49851  1.0000
  N   N3        1.0  0.95119  0.36100  0.00149  1.0000
  N   N4        1.0  0.54881  0.63899  0.50149  1.0000
  O   O1        1.0  0.34929  0.03767  0.79612  1.0000
  O   O2        1.0  0.15071  0.96233  0.29612  1.0000
  O   O3        1.0  0.65071  0.96233  0.20388  1.0000
  O   O4        1.0  0.84929  0.03767  0.70388  1.0000
  O   O5        1.0  0.56851  0.13974  0.87958  1.0000
  O   O6        1.0  0.93148  0.86026  0.37958  1.0000
  O   O7        1.0  0.43149  0.86026  0.12042  1.0000
  O   O8        1.0  0.06851  0.13974  0.62042  1.0000
  O   O9        1.0  0.24842  0.07009  0.02252  1.0000
  O   O10       1.0  0.25158  0.92991  0.52252  1.0000
  O   O11       1.0  0.75158  0.92991  0.97748  1.0000
  O   O12       1.0  0.74842  0.07009  0.47748  1.0000
  O   O13       1.0  0.08681  0.10706  0.89139  1.0000
  O   O14       1.0  0.41319  0.89294  0.39139  1.0000
  O   O15       1.0  0.91320  0.89294  0.10861  1.0000
  O   O16       1.0  0.58681  0.10706  0.60861  1.0000
  O   O17       1.0  0.17210  0.23560  0.07722  1.0000
  O   O18       1.0  0.32790  0.76440  0.57722  1.0000
  O   O19       1.0  0.82790  0.76440  0.92278  1.0000
  O   O20       1.0  0.67211  0.23560  0.42278  1.0000
  O   O21       1.0  0.36981  0.66963  0.86612  1.0000
  O   O22       1.0  0.13020  0.33038  0.36612  1.0000
  O   O23       1.0  0.63020  0.33038  0.13388  1.0000
  O   O24       1.0  0.86980  0.66963  0.63388  1.0000
  O   O25       1.0  0.57746  0.76054  0.76428  1.0000
  O   O26       1.0  0.92254  0.23946  0.26428  1.0000
  O   O27       1.0  0.42254  0.23946  0.23572  1.0000
  O   O28       1.0  0.07746  0.76054  0.73572  1.0000
