data_image0
_chemical_formula_structural       K2H76C52I2N4O12
_chemical_formula_sum              "K2 H76 C52 I2 N4 O12"
_cell_length_a       10.2818
_cell_length_b       11.4916
_cell_length_c       12.7551
_cell_angle_alpha    84.7293
_cell_angle_beta     79.8265
_cell_angle_gamma    70.7679

_space_group_name_H-M_alt    "P 1"
_space_group_IT_number       1

loop_
  _space_group_symop_operation_xyz
  'x, y, z'

loop_
  _atom_site_type_symbol
  _atom_site_label
  _atom_site_symmetry_multiplicity
  _atom_site_fract_x
  _atom_site_fract_y
  _atom_site_fract_z
  _atom_site_occupancy
  K   K1        1.0  0.84219  0.39107  0.95440  1.0000
  K   K2        1.0  0.15780  0.60893  0.04560  1.0000
  H   H1        1.0  0.02382  0.10348  0.06538  1.0000
  H   H2        1.0  0.97618  0.89652  0.93462  1.0000
  H   H3        1.0  0.97061  0.87808  0.41502  1.0000
  H   H4        1.0  0.02938  0.12192  0.58498  1.0000
  H   H5        1.0  0.87465  0.10766  0.40350  1.0000
  H   H6        1.0  0.12534  0.89234  0.59650  1.0000
  H   H7        1.0  0.24571  0.97937  0.99374  1.0000
  H   H8        1.0  0.75429  0.02063  0.00626  1.0000
  H   H9        1.0  0.26929  0.84492  0.92160  1.0000
  H   H10       1.0  0.73071  0.15508  0.07841  1.0000
  H   H11       1.0  0.47864  0.82907  0.00907  1.0000
  H   H12       1.0  0.52136  0.17093  0.99093  1.0000
  H   H13       1.0  0.36921  0.84368  0.13557  1.0000
  H   H14       1.0  0.63079  0.15632  0.86443  1.0000
  H   H15       1.0  0.47238  0.66877  0.20376  1.0000
  H   H16       1.0  0.52762  0.33123  0.79624  1.0000
  H   H17       1.0  0.60091  0.59479  0.09825  1.0000
  H   H18       1.0  0.39909  0.40521  0.90175  1.0000
  H   H19       1.0  0.48501  0.43612  0.09399  1.0000
  H   H20       1.0  0.51499  0.56388  0.90601  1.0000
  H   H21       1.0  0.52702  0.44063  0.22208  1.0000
  H   H22       1.0  0.47298  0.55937  0.77793  1.0000
  H   H23       1.0  0.35098  0.50947  0.36037  1.0000
  H   H24       1.0  0.64902  0.49054  0.63963  1.0000
  H   H25       1.0  0.18458  0.50627  0.34152  1.0000
  H   H26       1.0  0.81542  0.49374  0.65849  1.0000
  H   H27       1.0  0.15496  0.70393  0.40610  1.0000
  H   H28       1.0  0.84504  0.29608  0.59390  1.0000
  H   H29       1.0  0.28975  0.73061  0.30657  1.0000
  H   H30       1.0  0.71025  0.26939  0.69342  1.0000
  H   H31       1.0  0.78117  0.48601  0.23189  1.0000
  H   H32       1.0  0.21883  0.51399  0.76811  1.0000
  H   H33       1.0  0.75074  0.42125  0.47031  1.0000
  H   H34       1.0  0.24927  0.57875  0.52969  1.0000
  H   H35       1.0  0.64299  0.40771  0.38145  1.0000
  H   H36       1.0  0.35701  0.59229  0.61855  1.0000
  H   H37       1.0  0.55754  0.63542  0.35156  1.0000
  H   H38       1.0  0.44246  0.36458  0.64844  1.0000
  H   H39       1.0  0.53260  0.60019  0.48961  1.0000
  H   H40       1.0  0.46740  0.39981  0.51039  1.0000
  H   H41       1.0  0.63432  0.77316  0.44780  1.0000
  H   H42       1.0  0.36568  0.22683  0.55220  1.0000
  H   H43       1.0  0.74999  0.64499  0.50688  1.0000
  H   H44       1.0  0.25001  0.35501  0.49312  1.0000
  H   H45       1.0  0.87864  0.72755  0.35163  1.0000
  H   H46       1.0  0.12136  0.27245  0.64837  1.0000
  H   H47       1.0  0.76914  0.70922  0.26654  1.0000
  H   H48       1.0  0.23086  0.29078  0.73346  1.0000
  H   H49       1.0  0.98979  0.53322  0.25067  1.0000
  H   H50       1.0  0.01021  0.46678  0.74933  1.0000
  H   H51       1.0  0.96349  0.50384  0.39089  1.0000
  H   H52       1.0  0.03651  0.49616  0.60911  1.0000
  H   H53       1.0  0.25991  0.16226  0.41105  1.0000
  H   H54       1.0  0.74009  0.83775  0.58895  1.0000
  H   H55       1.0  0.32623  0.02384  0.20448  1.0000
  H   H56       1.0  0.67377  0.97616  0.79552  1.0000
  H   H57       1.0  0.23348  0.98719  0.32668  1.0000
  H   H58       1.0  0.76651  0.01281  0.67331  1.0000
  H   H59       1.0  0.44474  0.94030  0.41395  1.0000
  H   H60       1.0  0.55526  0.05970  0.58605  1.0000
  H   H61       1.0  0.48317  0.84920  0.30134  1.0000
  H   H62       1.0  0.51683  0.15080  0.69866  1.0000
  H   H63       1.0  0.67297  0.94035  0.30751  1.0000
  H   H64       1.0  0.32703  0.05965  0.69249  1.0000
  H   H65       1.0  0.59397  0.99112  0.19247  1.0000
  H   H66       1.0  0.40603  0.00888  0.80753  1.0000
  H   H67       1.0  0.62029  0.16960  0.27285  1.0000
  H   H68       1.0  0.37971  0.83039  0.72715  1.0000
  H   H69       1.0  0.53251  0.13416  0.39730  1.0000
  H   H70       1.0  0.46749  0.86584  0.60270  1.0000
  H   H71       1.0  0.37004  0.30544  0.30474  1.0000
  H   H72       1.0  0.62996  0.69456  0.69526  1.0000
  H   H73       1.0  0.40638  0.21809  0.19075  1.0000
  H   H74       1.0  0.59362  0.78191  0.80925  1.0000
  H   H75       1.0  0.15394  0.24755  0.20459  1.0000
  H   H76       1.0  0.84606  0.75245  0.79541  1.0000
  C   C1        1.0  0.94484  0.11996  0.23365  1.0000
  C   C2        1.0  0.05517  0.88004  0.76634  1.0000
  C   C3        1.0  0.01284  0.05430  0.14188  1.0000
  C   C4        1.0  0.98716  0.94570  0.85812  1.0000
  C   C5        1.0  0.06925  0.92638  0.14859  1.0000
  C   C6        1.0  0.93075  0.07362  0.85141  1.0000
  C   C7        1.0  0.05486  0.86280  0.24757  1.0000
  C   C8        1.0  0.94514  0.13720  0.75243  1.0000
  C   C9        1.0  0.98320  0.92822  0.33892  1.0000
  C   C10       1.0  0.01680  0.07178  0.66108  1.0000
  C   C11       1.0  0.92965  0.05662  0.33214  1.0000
  C   C12       1.0  0.07035  0.94338  0.66786  1.0000
  C   C13       1.0  0.25876  0.87994  0.00089  1.0000
  C   C14       1.0  0.74124  0.12006  0.99912  1.0000
  C   C15       1.0  0.38432  0.81134  0.05397  1.0000
  C   C16       1.0  0.61568  0.18866  0.94603  1.0000
  C   C17       1.0  0.49000  0.61342  0.13324  1.0000
  C   C18       1.0  0.51000  0.38658  0.86677  1.0000
  C   C19       1.0  0.45957  0.49329  0.16396  1.0000
  C   C20       1.0  0.54043  0.50671  0.83605  1.0000
  C   C21       1.0  0.26724  0.54719  0.31103  1.0000
  C   C22       1.0  0.73276  0.45281  0.68897  1.0000
  C   C23       1.0  0.20825  0.68584  0.32356  1.0000
  C   C24       1.0  0.79175  0.31416  0.67644  1.0000
  C   C25       1.0  0.87985  0.25685  0.22406  1.0000
  C   C26       1.0  0.12015  0.74315  0.77594  1.0000
  C   C27       1.0  0.82451  0.45609  0.30651  1.0000
  C   C28       1.0  0.17549  0.54391  0.69349  1.0000
  C   C29       1.0  0.70470  0.46377  0.39901  1.0000
  C   C30       1.0  0.29530  0.53623  0.60099  1.0000
  C   C31       1.0  0.61334  0.59721  0.41970  1.0000
  C   C32       1.0  0.38667  0.40279  0.58030  1.0000
  C   C33       1.0  0.70102  0.67727  0.43474  1.0000
  C   C34       1.0  0.29898  0.32273  0.56526  1.0000
  C   C35       1.0  0.81541  0.67119  0.33908  1.0000
  C   C36       1.0  0.18459  0.32881  0.66092  1.0000
  C   C37       1.0  0.90969  0.53817  0.32127  1.0000
  C   C38       1.0  0.09032  0.46183  0.67873  1.0000
  C   C39       1.0  0.02803  0.27420  0.34978  1.0000
  C   C40       1.0  0.97197  0.72580  0.65021  1.0000
  C   C41       1.0  0.28027  0.15815  0.32357  1.0000
  C   C42       1.0  0.71973  0.84185  0.67643  1.0000
  C   C43       1.0  0.31835  0.02395  0.29188  1.0000
  C   C44       1.0  0.68165  0.97605  0.70812  1.0000
  C   C45       1.0  0.45683  0.94462  0.32600  1.0000
  C   C46       1.0  0.54317  0.05538  0.67400  1.0000
  C   C47       1.0  0.57505  0.99675  0.28006  1.0000
  C   C48       1.0  0.42495  0.00325  0.71994  1.0000
  C   C49       1.0  0.53780  0.13096  0.31031  1.0000
  C   C50       1.0  0.46220  0.86904  0.68969  1.0000
  C   C51       1.0  0.39818  0.21099  0.27837  1.0000
  C   C52       1.0  0.60182  0.78901  0.72162  1.0000
  I   I1        1.0  0.18648  0.29355  0.00025  1.0000
  I   I2        1.0  0.81352  0.70645  0.99975  1.0000
  N   N1        1.0  0.91256  0.32627  0.29084  1.0000
  N   N2        1.0  0.08744  0.67373  0.70916  1.0000
  N   N3        1.0  0.15112  0.23295  0.28599  1.0000
  N   N4        1.0  0.84888  0.76705  0.71401  1.0000
  O   O1        1.0  0.79360  0.30431  0.16210  1.0000
  O   O2        1.0  0.20639  0.69569  0.83790  1.0000
  O   O3        1.0  0.00980  0.27351  0.44856  1.0000
  O   O4        1.0  0.99020  0.72649  0.55143  1.0000
  O   O5        1.0  0.13412  0.85819  0.05959  1.0000
  O   O6        1.0  0.86589  0.14181  0.94041  1.0000
  O   O7        1.0  0.40090  0.68236  0.05944  1.0000
  O   O8        1.0  0.59910  0.31763  0.94056  1.0000
  O   O9        1.0  0.31589  0.50866  0.20407  1.0000
  O   O10       1.0  0.68411  0.49134  0.79593  1.0000
  O   O11       1.0  0.11126  0.73618  0.24910  1.0000
  O   O12       1.0  0.88874  0.26383  0.75090  1.0000
