data_image0
_chemical_formula_structural       K2Fe2H36C30N4O20
_chemical_formula_sum              "K2 Fe2 H36 C30 N4 O20"
_cell_length_a       7.56182
_cell_length_b       9.20223
_cell_length_c       13.3485
_cell_angle_alpha    75.7917
_cell_angle_beta     81.2226
_cell_angle_gamma    78.783

_space_group_name_H-M_alt    "P 1"
_space_group_IT_number       1

loop_
  _space_group_symop_operation_xyz
  'x, y, z'

loop_
  _atom_site_type_symbol
  _atom_site_label
  _atom_site_symmetry_multiplicity
  _atom_site_fract_x
  _atom_site_fract_y
  _atom_site_fract_z
  _atom_site_occupancy
  K   K1        1.0  0.38284  0.70414  0.89636  1.0000
  K   K2        1.0  0.61715  0.29587  0.10364  1.0000
  Fe  Fe1       1.0  0.74520  0.30034  0.76810  1.0000
  Fe  Fe2       1.0  0.25480  0.69966  0.23190  1.0000
  H   H1        1.0  0.09498  0.93349  0.76986  1.0000
  H   H2        1.0  0.90503  0.06651  0.23015  1.0000
  H   H3        1.0  0.06310  0.06719  0.84925  1.0000
  H   H4        1.0  0.93690  0.93281  0.15076  1.0000
  H   H5        1.0  0.68750  0.01409  0.67082  1.0000
  H   H6        1.0  0.31252  0.98590  0.32917  1.0000
  H   H7        1.0  0.92191  0.97981  0.63172  1.0000
  H   H8        1.0  0.07811  0.02020  0.36827  1.0000
  H   H9        1.0  0.07635  0.49704  0.83270  1.0000
  H   H10       1.0  0.92364  0.50296  0.16730  1.0000
  H   H11       1.0  0.19354  0.31436  0.82593  1.0000
  H   H12       1.0  0.80646  0.68564  0.17407  1.0000
  H   H13       1.0  0.31656  0.95793  0.64026  1.0000
  H   H14       1.0  0.68345  0.04206  0.35975  1.0000
  H   H15       1.0  0.43816  0.39265  0.46130  1.0000
  H   H16       1.0  0.56184  0.60735  0.53870  1.0000
  H   H17       1.0  0.19279  0.52066  0.56541  1.0000
  H   H18       1.0  0.80721  0.47934  0.43460  1.0000
  H   H19       1.0  0.50420  0.10979  0.49703  1.0000
  H   H20       1.0  0.49580  0.89020  0.50298  1.0000
  H   H21       1.0  0.89698  0.56143  0.59957  1.0000
  H   H22       1.0  0.10303  0.43857  0.40043  1.0000
  H   H23       1.0  0.01170  0.62600  0.68356  1.0000
  H   H24       1.0  0.98830  0.37399  0.31644  1.0000
  H   H25       1.0  0.78827  0.98991  0.92348  1.0000
  H   H26       1.0  0.21173  0.01009  0.07652  1.0000
  H   H27       1.0  0.74939  0.87764  0.83930  1.0000
  H   H28       1.0  0.25061  0.12236  0.16069  1.0000
  H   H29       1.0  0.60390  0.66833  0.07561  1.0000
  H   H30       1.0  0.39610  0.33167  0.92439  1.0000
  H   H31       1.0  0.78285  0.64368  0.00136  1.0000
  H   H32       1.0  0.21715  0.35632  0.99864  1.0000
  H   H33       1.0  0.26707  0.70637  0.63611  1.0000
  H   H34       1.0  0.73292  0.29364  0.36388  1.0000
  H   H35       1.0  0.39727  0.60217  0.71659  1.0000
  H   H36       1.0  0.60272  0.39785  0.28340  1.0000
  C   C1        1.0  0.04448  0.05332  0.77237  1.0000
  C   C2        1.0  0.95552  0.94668  0.22764  1.0000
  C   C3        1.0  0.11461  0.31285  0.66335  1.0000
  C   C4        1.0  0.88540  0.68714  0.33665  1.0000
  C   C5        1.0  0.94414  0.31332  0.92465  1.0000
  C   C6        1.0  0.05585  0.68667  0.07536  1.0000
  C   C7        1.0  0.81296  0.06199  0.66063  1.0000
  C   C8        1.0  0.18705  0.93802  0.33936  1.0000
  C   C9        1.0  0.14906  0.15260  0.68555  1.0000
  C   C10       1.0  0.85095  0.84740  0.31445  1.0000
  C   C11       1.0  0.78658  0.21150  0.58232  1.0000
  C   C12       1.0  0.21342  0.78850  0.41767  1.0000
  C   C13       1.0  0.05766  0.38337  0.82866  1.0000
  C   C14       1.0  0.94234  0.61663  0.17134  1.0000
  C   C15       1.0  0.28931  0.08190  0.62353  1.0000
  C   C16       1.0  0.71070  0.91809  0.37647  1.0000
  C   C17       1.0  0.35772  0.32395  0.52280  1.0000
  C   C18       1.0  0.64228  0.67604  0.47721  1.0000
  C   C19       1.0  0.21753  0.39712  0.58234  1.0000
  C   C20       1.0  0.78247  0.60288  0.41766  1.0000
  C   C21       1.0  0.39354  0.16613  0.54319  1.0000
  C   C22       1.0  0.60646  0.83387  0.45682  1.0000
  C   C23       1.0  0.91396  0.55393  0.68095  1.0000
  C   C24       1.0  0.08603  0.44607  0.31905  1.0000
  C   C25       1.0  0.72897  0.61027  0.73202  1.0000
  C   C26       1.0  0.27103  0.38973  0.26798  1.0000
  C   C27       1.0  0.54175  0.07372  0.85450  1.0000
  C   C28       1.0  0.45825  0.92628  0.14550  1.0000
  C   C29       1.0  0.73876  0.99379  0.84952  1.0000
  C   C30       1.0  0.26124  0.00622  0.15048  1.0000
  N   N1        1.0  0.84591  0.08562  0.76262  1.0000
  N   N2        1.0  0.15410  0.91438  0.23738  1.0000
  N   N3        1.0  0.97778  0.39196  0.73045  1.0000
  N   N4        1.0  0.02222  0.60803  0.26956  1.0000
  O   O1        1.0  0.52214  0.22202  0.81857  1.0000
  O   O2        1.0  0.47786  0.77798  0.18142  1.0000
  O   O3        1.0  0.80229  0.26442  0.90921  1.0000
  O   O4        1.0  0.19771  0.73557  0.09080  1.0000
  O   O5        1.0  0.73324  0.33087  0.62240  1.0000
  O   O6        1.0  0.26677  0.66913  0.37759  1.0000
  O   O7        1.0  0.80852  0.21615  0.48745  1.0000
  O   O8        1.0  0.19148  0.78386  0.51254  1.0000
  O   O9        1.0  0.98969  0.30080  0.01286  1.0000
  O   O10       1.0  0.01030  0.69920  0.98715  1.0000
  O   O11       1.0  0.41270  0.00519  0.89118  1.0000
  O   O12       1.0  0.58730  0.99481  0.10882  1.0000
  O   O13       1.0  0.62594  0.50583  0.77027  1.0000
  O   O14       1.0  0.37406  0.49417  0.22973  1.0000
  O   O15       1.0  0.67795  0.74630  0.73295  1.0000
  O   O16       1.0  0.32204  0.25369  0.26705  1.0000
  O   O17       1.0  0.66070  0.61469  0.02056  1.0000
  O   O18       1.0  0.33930  0.38531  0.97944  1.0000
  O   O19       1.0  0.28251  0.67369  0.71086  1.0000
  O   O20       1.0  0.71749  0.32633  0.28913  1.0000
