data_image0
_chemical_formula_structural       Mn2H12C12N8O8
_chemical_formula_sum              "Mn2 H12 C12 N8 O8"
_cell_length_a       6.59156
_cell_length_b       7.73429
_cell_length_c       9.12804
_cell_angle_alpha    98.6749
_cell_angle_beta     94.8223
_cell_angle_gamma    109.663

_space_group_name_H-M_alt    "P 1"
_space_group_IT_number       1

loop_
  _space_group_symop_operation_xyz
  'x, y, z'

loop_
  _atom_site_type_symbol
  _atom_site_label
  _atom_site_symmetry_multiplicity
  _atom_site_fract_x
  _atom_site_fract_y
  _atom_site_fract_z
  _atom_site_occupancy
  Mn  Mn1       1.0  0.99999  0.50000  0.50000  1.0000
  Mn  Mn2       1.0  1.00000  1.00000  0.50000  1.0000
  H   H1        1.0  0.30356  0.69290  0.93188  1.0000
  H   H2        1.0  0.69644  0.30710  0.06811  1.0000
  H   H3        1.0  0.36767  0.78140  0.21270  1.0000
  H   H4        1.0  0.63232  0.21860  0.78729  1.0000
  H   H5        1.0  0.20705  0.22818  0.25929  1.0000
  H   H6        1.0  0.79294  0.77182  0.74071  1.0000
  H   H7        1.0  0.13525  0.11648  0.97680  1.0000
  H   H8        1.0  0.86474  0.88352  0.02320  1.0000
  H   H9        1.0  0.45530  0.26258  0.52810  1.0000
  H   H10       1.0  0.54471  0.73743  0.47189  1.0000
  H   H11       1.0  0.39549  0.10059  0.38532  1.0000
  H   H12       1.0  0.60451  0.89941  0.61469  1.0000
  C   C1        1.0  0.20317  0.39532  0.93217  1.0000
  C   C2        1.0  0.79684  0.60468  0.06783  1.0000
  C   C3        1.0  0.27673  0.58472  0.99947  1.0000
  C   C4        1.0  0.72327  0.41528  0.00053  1.0000
  C   C5        1.0  0.31372  0.63694  0.15370  1.0000
  C   C6        1.0  0.68628  0.36306  0.84630  1.0000
  C   C7        1.0  0.22223  0.32038  0.17917  1.0000
  C   C8        1.0  0.77777  0.67962  0.82083  1.0000
  C   C9        1.0  0.18263  0.26408  0.02555  1.0000
  C   C10       1.0  0.81737  0.73591  0.97445  1.0000
  C   C11       1.0  0.13818  0.33331  0.76616  1.0000
  C   C12       1.0  0.86182  0.66669  0.23384  1.0000
  N   N1        1.0  0.28065  0.50506  0.24137  1.0000
  N   N2        1.0  0.71935  0.49494  0.75863  1.0000
  N   N3        1.0  0.88982  0.20480  0.39777  1.0000
  N   N4        1.0  0.11017  0.79520  0.60224  1.0000
  N   N5        1.0  0.72422  0.13923  0.31066  1.0000
  N   N6        1.0  0.27578  0.86076  0.68933  1.0000
  N   N7        1.0  0.56013  0.07562  0.22780  1.0000
  N   N8        1.0  0.43988  0.92437  0.77219  1.0000
  O   O1        1.0  0.17344  0.46050  0.68762  1.0000
  O   O2        1.0  0.82657  0.53951  0.31238  1.0000
  O   O3        1.0  0.04826  0.15777  0.71722  1.0000
  O   O4        1.0  0.95175  0.84224  0.28278  1.0000
  O   O5        1.0  0.30291  0.55601  0.38923  1.0000
  O   O6        1.0  0.69708  0.44399  0.61077  1.0000
  O   O7        1.0  0.33778  0.14527  0.47386  1.0000
  O   O8        1.0  0.66222  0.85473  0.52614  1.0000
