data_image0
_chemical_formula_structural       Co2H12C12N8O8
_chemical_formula_sum              "Co2 H12 C12 N8 O8"
_cell_length_a       6.5003
_cell_length_b       7.52782
_cell_length_c       9.03253
_cell_angle_alpha    99.313
_cell_angle_beta     92.7787
_cell_angle_gamma    109.256

_space_group_name_H-M_alt    "P 1"
_space_group_IT_number       1

loop_
  _space_group_symop_operation_xyz
  'x, y, z'

loop_
  _atom_site_type_symbol
  _atom_site_label
  _atom_site_symmetry_multiplicity
  _atom_site_fract_x
  _atom_site_fract_y
  _atom_site_fract_z
  _atom_site_occupancy
  Co  Co1       1.0  0.00000  0.50000  0.50000  1.0000
  Co  Co2       1.0  1.00000  0.00000  0.50000  1.0000
  H   H1        1.0  0.30176  0.70132  0.93338  1.0000
  H   H2        1.0  0.69824  0.29869  0.06663  1.0000
  H   H3        1.0  0.36203  0.78566  0.21674  1.0000
  H   H4        1.0  0.63797  0.21433  0.78327  1.0000
  H   H5        1.0  0.20709  0.21721  0.25574  1.0000
  H   H6        1.0  0.79291  0.78278  0.74425  1.0000
  H   H7        1.0  0.14195  0.10888  0.97066  1.0000
  H   H8        1.0  0.85805  0.89111  0.02933  1.0000
  H   H9        1.0  0.44456  0.26283  0.52498  1.0000
  H   H10       1.0  0.55545  0.73717  0.47502  1.0000
  H   H11       1.0  0.39729  0.09344  0.38533  1.0000
  H   H12       1.0  0.60271  0.90655  0.61467  1.0000
  C   C1        1.0  0.20467  0.39583  0.92986  1.0000
  C   C2        1.0  0.79533  0.60418  0.07014  1.0000
  C   C3        1.0  0.27606  0.58888  0.99990  1.0000
  C   C4        1.0  0.72394  0.41113  0.00011  1.0000
  C   C5        1.0  0.31009  0.63885  0.15548  1.0000
  C   C6        1.0  0.68991  0.36115  0.84453  1.0000
  C   C7        1.0  0.22210  0.31375  0.17679  1.0000
  C   C8        1.0  0.77789  0.68623  0.82321  1.0000
  C   C9        1.0  0.18552  0.25928  0.02173  1.0000
  C   C10       1.0  0.81448  0.74073  0.97826  1.0000
  C   C11       1.0  0.13869  0.33617  0.76287  1.0000
  C   C12       1.0  0.86131  0.66384  0.23713  1.0000
  N   N1        1.0  0.27651  0.50188  0.24186  1.0000
  N   N2        1.0  0.72348  0.49811  0.75815  1.0000
  N   N3        1.0  0.90195  0.20672  0.40933  1.0000
  N   N4        1.0  0.09805  0.79328  0.59067  1.0000
  N   N5        1.0  0.74308  0.14059  0.31762  1.0000
  N   N6        1.0  0.25693  0.85941  0.68238  1.0000
  N   N7        1.0  0.58624  0.07662  0.23020  1.0000
  N   N8        1.0  0.41376  0.92338  0.76979  1.0000
  O   O1        1.0  0.16829  0.47052  0.68833  1.0000
  O   O2        1.0  0.83171  0.52950  0.31167  1.0000
  O   O3        1.0  0.05273  0.15633  0.71285  1.0000
  O   O4        1.0  0.94727  0.84367  0.28715  1.0000
  O   O5        1.0  0.29597  0.55266  0.39178  1.0000
  O   O6        1.0  0.70403  0.44733  0.60822  1.0000
  O   O7        1.0  0.33284  0.14002  0.47323  1.0000
  O   O8        1.0  0.66716  0.85998  0.52677  1.0000
