data_image0
_chemical_formula_structural       Cu4H16C24N16O12
_chemical_formula_sum              "Cu4 H16 C24 N16 O12"
_cell_length_a       6.38994
_cell_length_b       8.00509
_cell_length_c       17.0073
_cell_angle_alpha    89.9861
_cell_angle_beta     90.0077
_cell_angle_gamma    89.9793

_space_group_name_H-M_alt    "P 1"
_space_group_IT_number       1

loop_
  _space_group_symop_operation_xyz
  'x, y, z'

loop_
  _atom_site_type_symbol
  _atom_site_label
  _atom_site_symmetry_multiplicity
  _atom_site_fract_x
  _atom_site_fract_y
  _atom_site_fract_z
  _atom_site_occupancy
  Cu  Cu1       1.0  1.00000  0.00000  1.00000  1.0000
  Cu  Cu2       1.0  0.00001  0.50000  0.50000  1.0000
  Cu  Cu3       1.0  0.50000  1.00000  0.00000  1.0000
  Cu  Cu4       1.0  0.50001  0.50000  0.50000  1.0000
  H   H1        1.0  0.91417  0.15136  0.23345  1.0000
  H   H2        1.0  0.08574  0.65108  0.26657  1.0000
  H   H3        1.0  0.41408  0.84895  0.76653  1.0000
  H   H4        1.0  0.58590  0.34890  0.73357  1.0000
  H   H5        1.0  0.08582  0.84863  0.76655  1.0000
  H   H6        1.0  0.91428  0.34892  0.73342  1.0000
  H   H7        1.0  0.58591  0.15106  0.23347  1.0000
  H   H8        1.0  0.41412  0.65110  0.26642  1.0000
  H   H9        1.0  0.92771  0.23519  0.37844  1.0000
  H   H10       1.0  0.07232  0.73499  0.12155  1.0000
  H   H11       1.0  0.42759  0.76502  0.62155  1.0000
  H   H12       1.0  0.57230  0.26502  0.87859  1.0000
  H   H13       1.0  0.07228  0.76480  0.62156  1.0000
  H   H14       1.0  0.92768  0.26501  0.87845  1.0000
  H   H15       1.0  0.57241  0.23499  0.37845  1.0000
  H   H16       1.0  0.42770  0.73499  0.12141  1.0000
  C   C1        1.0  0.25006  0.14477  0.22292  1.0000
  C   C2        1.0  0.74992  0.64470  0.27704  1.0000
  C   C3        1.0  0.74993  0.85523  0.77708  1.0000
  C   C4        1.0  0.25009  0.35530  0.72295  1.0000
  C   C5        1.0  0.06231  0.16916  0.26378  1.0000
  C   C6        1.0  0.93768  0.66897  0.23622  1.0000
  C   C7        1.0  0.56220  0.83101  0.73622  1.0000
  C   C8        1.0  0.43777  0.33102  0.76386  1.0000
  C   C9        1.0  0.93769  0.83084  0.73622  1.0000
  C   C10       1.0  0.06233  0.33103  0.76378  1.0000
  C   C11       1.0  0.43779  0.16900  0.26378  1.0000
  C   C12       1.0  0.56224  0.66898  0.23614  1.0000
  C   C13       1.0  0.06472  0.21567  0.34178  1.0000
  C   C14       1.0  0.93529  0.71549  0.15819  1.0000
  C   C15       1.0  0.56464  0.78446  0.65821  1.0000
  C   C16       1.0  0.43531  0.28451  0.84188  1.0000
  C   C17       1.0  0.93528  0.78433  0.65822  1.0000
  C   C18       1.0  0.06471  0.28451  0.84181  1.0000
  C   C19       1.0  0.43535  0.21555  0.34180  1.0000
  C   C20       1.0  0.56469  0.71549  0.15812  1.0000
  C   C21       1.0  0.25004  0.09123  0.13895  1.0000
  C   C22       1.0  0.74993  0.59124  0.36106  1.0000
  C   C23       1.0  0.74996  0.90878  0.86105  1.0000
  C   C24       1.0  0.25009  0.40875  0.63894  1.0000
  N   N1        1.0  0.25007  0.24002  0.38029  1.0000
  N   N2        1.0  0.75001  0.73992  0.11964  1.0000
  N   N3        1.0  0.74993  0.75998  0.61972  1.0000
  N   N4        1.0  0.24999  0.26008  0.88036  1.0000
  N   N5        1.0  0.25005  0.84131  0.99872  1.0000
  N   N6        1.0  0.75008  0.34128  0.50128  1.0000
  N   N7        1.0  0.74994  0.15870  0.00128  1.0000
  N   N8        1.0  0.24993  0.65871  0.49872  1.0000
  N   N9        1.0  0.25005  0.73652  0.94651  1.0000
  N   N10       1.0  0.75011  0.23640  0.55345  1.0000
  N   N11       1.0  0.74994  0.26347  0.05349  1.0000
  N   N12       1.0  0.24989  0.76361  0.44654  1.0000
  N   N13       1.0  0.25004  0.63619  0.89768  1.0000
  N   N14       1.0  0.75011  0.13593  0.60226  1.0000
  N   N15       1.0  0.74995  0.36381  0.10233  1.0000
  N   N16       1.0  0.24990  0.86407  0.39774  1.0000
  O   O1        1.0  0.07110  0.06989  0.10744  1.0000
  O   O2        1.0  0.92886  0.56997  0.39259  1.0000
  O   O3        1.0  0.57106  0.93007  0.89255  1.0000
  O   O4        1.0  0.42900  0.43000  0.60743  1.0000
  O   O5        1.0  0.92890  0.93012  0.89256  1.0000
  O   O6        1.0  0.07115  0.43003  0.60741  1.0000
  O   O7        1.0  0.42893  0.06993  0.10745  1.0000
  O   O8        1.0  0.57101  0.56999  0.39257  1.0000
  O   O9        1.0  0.25007  0.28390  0.45409  1.0000
  O   O10       1.0  0.75005  0.78387  0.04582  1.0000
  O   O11       1.0  0.74993  0.71609  0.54591  1.0000
  O   O12       1.0  0.24994  0.21614  0.95418  1.0000
