data_image0
_chemical_formula_structural       Cu4H16C24N16O12
_chemical_formula_sum              "Cu4 H16 C24 N16 O12"
_cell_length_a       6.85777
_cell_length_b       8.64014
_cell_length_c       14.9531
_cell_angle_alpha    103.561
_cell_angle_beta     90.0091
_cell_angle_gamma    113.426

_space_group_name_H-M_alt    "P 1"
_space_group_IT_number       1

loop_
  _space_group_symop_operation_xyz
  'x, y, z'

loop_
  _atom_site_type_symbol
  _atom_site_label
  _atom_site_symmetry_multiplicity
  _atom_site_fract_x
  _atom_site_fract_y
  _atom_site_fract_z
  _atom_site_occupancy
  Cu  Cu1       1.0  0.60919  0.54691  0.26891  1.0000
  Cu  Cu2       1.0  0.06219  0.45301  0.23109  1.0000
  Cu  Cu3       1.0  0.39081  0.45308  0.73109  1.0000
  Cu  Cu4       1.0  0.93781  0.54700  0.76891  1.0000
  H   H1        1.0  0.11231  0.65637  0.00079  1.0000
  H   H2        1.0  0.45630  0.34383  0.49928  1.0000
  H   H3        1.0  0.88769  0.34363  0.99921  1.0000
  H   H4        1.0  0.54370  0.65617  0.50072  1.0000
  H   H5        1.0  0.53111  0.91434  0.83231  1.0000
  H   H6        1.0  0.61696  0.08590  0.66777  1.0000
  H   H7        1.0  0.46890  0.08566  0.16770  1.0000
  H   H8        1.0  0.38303  0.91409  0.33223  1.0000
  H   H9        1.0  0.84498  0.90235  0.91406  1.0000
  H   H10       1.0  0.94280  0.09799  0.58599  1.0000
  H   H11       1.0  0.15502  0.09765  0.08594  1.0000
  H   H12       1.0  0.05720  0.90201  0.41401  1.0000
  H   H13       1.0  0.78389  0.76823  0.04955  1.0000
  H   H14       1.0  0.01595  0.23218  0.45055  1.0000
  H   H15       1.0  0.21612  0.23176  0.95046  1.0000
  H   H16       1.0  0.98406  0.76783  0.54945  1.0000
  C   C1        1.0  0.44429  0.70027  0.03519  1.0000
  C   C2        1.0  0.74442  0.30008  0.46496  1.0000
  C   C3        1.0  0.55571  0.29973  0.96481  1.0000
  C   C4        1.0  0.25556  0.69991  0.53504  1.0000
  C   C5        1.0  0.27744  0.70774  0.98597  1.0000
  C   C6        1.0  0.57012  0.29261  0.51418  1.0000
  C   C7        1.0  0.72256  0.29226  0.01403  1.0000
  C   C8        1.0  0.42987  0.70739  0.48582  1.0000
  C   C9        1.0  0.51737  0.85463  0.88967  1.0000
  C   C10       1.0  0.66301  0.14569  0.61043  1.0000
  C   C11       1.0  0.48264  0.14537  0.11033  1.0000
  C   C12       1.0  0.33699  0.85431  0.38957  1.0000
  C   C13       1.0  0.68646  0.84782  0.93651  1.0000
  C   C14       1.0  0.83893  0.15259  0.56359  1.0000
  C   C15       1.0  0.31355  0.15219  0.06350  1.0000
  C   C16       1.0  0.16106  0.84741  0.43641  1.0000
  C   C17       1.0  0.65233  0.77158  0.01068  1.0000
  C   C18       1.0  0.88113  0.22886  0.48943  1.0000
  C   C19       1.0  0.34767  0.22842  0.98932  1.0000
  C   C20       1.0  0.11886  0.77114  0.51058  1.0000
  C   C21       1.0  0.39855  0.61839  0.11563  1.0000
  C   C22       1.0  0.78042  0.38184  0.38448  1.0000
  C   C23       1.0  0.60145  0.38162  0.88436  1.0000
  C   C24       1.0  0.21958  0.61817  0.61552  1.0000
  N   N1        1.0  0.31453  0.78565  0.91459  1.0000
  N   N2        1.0  0.52918  0.21459  0.58553  1.0000
  N   N3        1.0  0.68547  0.21435  0.08542  1.0000
  N   N4        1.0  0.47082  0.78540  0.41447  1.0000
  N   N5        1.0  0.29890  0.39100  0.26400  1.0000
  N   N6        1.0  0.90779  0.60874  0.23589  1.0000
  N   N7        1.0  0.70110  0.60900  0.73600  1.0000
  N   N8        1.0  0.09221  0.39125  0.76411  1.0000
  N   N9        1.0  0.25666  0.27107  0.30049  1.0000
  N   N10       1.0  0.98568  0.72880  0.19946  1.0000
  N   N11       1.0  0.74334  0.72895  0.69950  1.0000
  N   N12       1.0  0.01433  0.27122  0.80053  1.0000
  N   N13       1.0  0.22031  0.15651  0.33444  1.0000
  N   N14       1.0  0.06409  0.84342  0.16559  1.0000
  N   N15       1.0  0.77968  0.84349  0.66556  1.0000
  N   N16       1.0  0.93590  0.15657  0.83441  1.0000
  O   O1        1.0  0.56113  0.63821  0.16505  1.0000
  O   O2        1.0  0.92291  0.36186  0.33497  1.0000
  O   O3        1.0  0.43887  0.36179  0.83495  1.0000
  O   O4        1.0  0.07709  0.63815  0.66503  1.0000
  O   O5        1.0  0.20214  0.53958  0.12618  1.0000
  O   O6        1.0  0.66289  0.46054  0.37386  1.0000
  O   O7        1.0  0.79786  0.46042  0.87382  1.0000
  O   O8        1.0  0.33710  0.53945  0.62613  1.0000
  O   O9        1.0  0.15726  0.79558  0.86983  1.0000
  O   O10       1.0  0.36188  0.20452  0.63022  1.0000
  O   O11       1.0  0.84274  0.20443  0.13017  1.0000
  O   O12       1.0  0.63812  0.79548  0.36979  1.0000
