data_image0
_chemical_formula_structural       Cd4H38C50Br8N14
_chemical_formula_sum              "Cd4 H38 C50 Br8 N14"
_cell_length_a       11.3377
_cell_length_b       11.3375
_cell_length_c       12.0247
_cell_angle_alpha    76.1159
_cell_angle_beta     76.1149
_cell_angle_gamma    83.2245

_space_group_name_H-M_alt    "P 1"
_space_group_IT_number       1

loop_
  _space_group_symop_operation_xyz
  'x, y, z'

loop_
  _atom_site_type_symbol
  _atom_site_label
  _atom_site_symmetry_multiplicity
  _atom_site_fract_x
  _atom_site_fract_y
  _atom_site_fract_z
  _atom_site_occupancy
  Cd  Cd1       1.0  0.49638  0.05238  0.64448  1.0000
  Cd  Cd2       1.0  0.94761  0.50361  0.85552  1.0000
  Cd  Cd3       1.0  0.50361  0.94762  0.35552  1.0000
  Cd  Cd4       1.0  0.05239  0.49639  0.14448  1.0000
  H   H1        1.0  0.55571  0.44429  0.74999  1.0000
  H   H2        1.0  0.44429  0.55572  0.25001  1.0000
  H   H3        1.0  0.57227  0.62237  0.82921  1.0000
  H   H4        1.0  0.37763  0.42772  0.67078  1.0000
  H   H5        1.0  0.42773  0.37764  0.17079  1.0000
  H   H6        1.0  0.62238  0.57228  0.32922  1.0000
  H   H7        1.0  0.62572  0.73424  0.11042  1.0000
  H   H8        1.0  0.26577  0.37428  0.38956  1.0000
  H   H9        1.0  0.37429  0.26575  0.88958  1.0000
  H   H10       1.0  0.73423  0.62572  0.61044  1.0000
  H   H11       1.0  0.16788  0.76588  0.94539  1.0000
  H   H12       1.0  0.23411  0.83212  0.55462  1.0000
  H   H13       1.0  0.83212  0.23411  0.05461  1.0000
  H   H14       1.0  0.76590  0.16788  0.44538  1.0000
  H   H15       1.0  0.46428  0.68118  0.02381  1.0000
  H   H16       1.0  0.31881  0.53572  0.47618  1.0000
  H   H17       1.0  0.53572  0.31881  0.97619  1.0000
  H   H18       1.0  0.68119  0.46428  0.52382  1.0000
  H   H19       1.0  0.22681  0.18474  0.71505  1.0000
  H   H20       1.0  0.81526  0.77319  0.78495  1.0000
  H   H21       1.0  0.77319  0.81526  0.28495  1.0000
  H   H22       1.0  0.18475  0.22681  0.21505  1.0000
  H   H23       1.0  0.98581  0.91206  0.93744  1.0000
  H   H24       1.0  0.08793  0.01419  0.56257  1.0000
  H   H25       1.0  0.01419  0.08793  0.06256  1.0000
  H   H26       1.0  0.91208  0.98581  0.43743  1.0000
  H   H27       1.0  0.67124  0.05939  0.83164  1.0000
  H   H28       1.0  0.94061  0.32875  0.66835  1.0000
  H   H29       1.0  0.32877  0.94061  0.16836  1.0000
  H   H30       1.0  0.05938  0.67125  0.33165  1.0000
  H   H31       1.0  0.73325  0.92707  0.01219  1.0000
  H   H32       1.0  0.07295  0.26674  0.48780  1.0000
  H   H33       1.0  0.26676  0.07293  0.98781  1.0000
  H   H34       1.0  0.92705  0.73326  0.51221  1.0000
  H   H35       1.0  0.01620  0.13016  0.82477  1.0000
  H   H36       1.0  0.86983  0.98379  0.67524  1.0000
  H   H37       1.0  0.98379  0.86984  0.17523  1.0000
  H   H38       1.0  0.13017  0.01621  0.32476  1.0000
  C   C1        1.0  0.48329  0.51670  0.74999  1.0000
  C   C2        1.0  0.51671  0.48330  0.25001  1.0000
  C   C3        1.0  0.48910  0.83957  0.88097  1.0000
  C   C4        1.0  0.16044  0.51089  0.61903  1.0000
  C   C5        1.0  0.51090  0.16043  0.11904  1.0000
  C   C6        1.0  0.83956  0.48911  0.38097  1.0000
  C   C7        1.0  0.39725  0.70670  0.79275  1.0000
  C   C8        1.0  0.29330  0.60275  0.70725  1.0000
  C   C9        1.0  0.60275  0.29330  0.20725  1.0000
  C   C10       1.0  0.70670  0.39725  0.29275  1.0000
  C   C11       1.0  0.29058  0.89756  0.83044  1.0000
  C   C12       1.0  0.10243  0.70942  0.66956  1.0000
  C   C13       1.0  0.70942  0.10244  0.16955  1.0000
  C   C14       1.0  0.89757  0.29058  0.33044  1.0000
  C   C15       1.0  0.49318  0.61673  0.79484  1.0000
  C   C16       1.0  0.38327  0.50682  0.70514  1.0000
  C   C17       1.0  0.50683  0.38328  0.20516  1.0000
  C   C18       1.0  0.61674  0.49319  0.29485  1.0000
  C   C19       1.0  0.60423  0.79290  0.03081  1.0000
  C   C20       1.0  0.20711  0.39576  0.46918  1.0000
  C   C21       1.0  0.39577  0.20710  0.96919  1.0000
  C   C22       1.0  0.79289  0.60424  0.53082  1.0000
  C   C23       1.0  0.17610  0.85903  0.89444  1.0000
  C   C24       1.0  0.14097  0.82390  0.60557  1.0000
  C   C25       1.0  0.82390  0.14097  0.10557  1.0000
  C   C26       1.0  0.85904  0.17610  0.39442  1.0000
  C   C27       1.0  0.51524  0.76196  0.98271  1.0000
  C   C28       1.0  0.23804  0.48476  0.51728  1.0000
  C   C29       1.0  0.48476  0.23803  0.01729  1.0000
  C   C30       1.0  0.76196  0.51524  0.48272  1.0000
  C   C31       1.0  0.20878  0.09316  0.76723  1.0000
  C   C32       1.0  0.90683  0.79122  0.73277  1.0000
  C   C33       1.0  0.79122  0.90684  0.23277  1.0000
  C   C34       1.0  0.09317  0.20878  0.26722  1.0000
  C   C35       1.0  0.07591  0.94182  0.89061  1.0000
  C   C36       1.0  0.05817  0.92409  0.60940  1.0000
  C   C37       1.0  0.92409  0.05817  0.10939  1.0000
  C   C38       1.0  0.94184  0.07591  0.39060  1.0000
  C   C39       1.0  0.63065  0.97308  0.87667  1.0000
  C   C40       1.0  0.02693  0.36933  0.62332  1.0000
  C   C41       1.0  0.36935  0.02692  0.12333  1.0000
  C   C42       1.0  0.97307  0.63067  0.37668  1.0000
  C   C43       1.0  0.66323  0.90027  0.97684  1.0000
  C   C44       1.0  0.09974  0.33676  0.52316  1.0000
  C   C45       1.0  0.33677  0.09972  0.02317  1.0000
  C   C46       1.0  0.90026  0.66324  0.47685  1.0000
  C   C47       1.0  0.09225  0.06197  0.82752  1.0000
  C   C48       1.0  0.93802  0.90774  0.67248  1.0000
  C   C49       1.0  0.90774  0.93803  0.17248  1.0000
  C   C50       1.0  0.06198  0.09226  0.32752  1.0000
  Br  Br1       1.0  0.36442  0.11160  0.46398  1.0000
  Br  Br2       1.0  0.88840  0.63557  0.03603  1.0000
  Br  Br3       1.0  0.63558  0.88840  0.53603  1.0000
  Br  Br4       1.0  0.11160  0.36443  0.96397  1.0000
  Br  Br5       1.0  0.59842  0.24513  0.63703  1.0000
  Br  Br6       1.0  0.75487  0.40158  0.86295  1.0000
  Br  Br7       1.0  0.40159  0.75488  0.36296  1.0000
  Br  Br8       1.0  0.24513  0.59842  0.13705  1.0000
  N   N1        1.0  0.39608  0.81567  0.82982  1.0000
  N   N2        1.0  0.18432  0.60391  0.67018  1.0000
  N   N3        1.0  0.60392  0.18433  0.17018  1.0000
  N   N4        1.0  0.81568  0.39609  0.32982  1.0000
  N   N5        1.0  0.30116  0.69884  0.75000  1.0000
  N   N6        1.0  0.69884  0.30116  0.25001  1.0000
  N   N7        1.0  0.30561  0.01161  0.76678  1.0000
  N   N8        1.0  0.98839  0.69438  0.73323  1.0000
  N   N9        1.0  0.69439  0.98839  0.23323  1.0000
  N   N10       1.0  0.01161  0.30562  0.26677  1.0000
  N   N11       1.0  0.54669  0.94197  0.82847  1.0000
  N   N12       1.0  0.05803  0.45330  0.67152  1.0000
  N   N13       1.0  0.45331  0.05803  0.17153  1.0000
  N   N14       1.0  0.94196  0.54670  0.32848  1.0000
