data_image0
_chemical_formula_structural       Cd4H38C50N14Cl8
_chemical_formula_sum              "Cd4 H38 C50 N14 Cl8"
_cell_length_a       11.1482
_cell_length_b       11.1483
_cell_length_c       11.9256
_cell_angle_alpha    75.0359
_cell_angle_beta     75.0363
_cell_angle_gamma    82.5526

_space_group_name_H-M_alt    "P 1"
_space_group_IT_number       1

loop_
  _space_group_symop_operation_xyz
  'x, y, z'

loop_
  _atom_site_type_symbol
  _atom_site_label
  _atom_site_symmetry_multiplicity
  _atom_site_fract_x
  _atom_site_fract_y
  _atom_site_fract_z
  _atom_site_occupancy
  Cd  Cd1       1.0  0.50045  0.05254  0.63908  1.0000
  Cd  Cd2       1.0  0.94746  0.49955  0.86092  1.0000
  Cd  Cd3       1.0  0.49955  0.94746  0.36092  1.0000
  Cd  Cd4       1.0  0.05254  0.50045  0.13908  1.0000
  H   H1        1.0  0.67509  0.06274  0.82937  1.0000
  H   H2        1.0  0.93725  0.32491  0.67063  1.0000
  H   H3        1.0  0.32491  0.93725  0.17063  1.0000
  H   H4        1.0  0.06274  0.67509  0.32937  1.0000
  H   H5        1.0  0.73745  0.92662  0.01320  1.0000
  H   H6        1.0  0.07337  0.26256  0.48681  1.0000
  H   H7        1.0  0.26256  0.07337  0.98680  1.0000
  H   H8        1.0  0.92662  0.73745  0.51319  1.0000
  H   H9        1.0  0.63103  0.72780  0.11381  1.0000
  H   H10       1.0  0.27219  0.36898  0.38619  1.0000
  H   H11       1.0  0.36898  0.27219  0.88619  1.0000
  H   H12       1.0  0.72780  0.63103  0.61381  1.0000
  H   H13       1.0  0.46678  0.67421  0.02855  1.0000
  H   H14       1.0  0.32578  0.53323  0.47145  1.0000
  H   H15       1.0  0.53322  0.32578  0.97145  1.0000
  H   H16       1.0  0.67421  0.46678  0.52855  1.0000
  H   H17       1.0  0.16728  0.75843  0.94971  1.0000
  H   H18       1.0  0.24158  0.83272  0.55029  1.0000
  H   H19       1.0  0.83273  0.24157  0.05029  1.0000
  H   H20       1.0  0.75842  0.16727  0.44971  1.0000
  H   H21       1.0  0.97948  0.90562  0.94005  1.0000
  H   H22       1.0  0.09438  0.02052  0.55994  1.0000
  H   H23       1.0  0.02052  0.09438  0.05994  1.0000
  H   H24       1.0  0.90561  0.97948  0.44005  1.0000
  H   H25       1.0  0.00828  0.12910  0.82352  1.0000
  H   H26       1.0  0.87090  0.99172  0.67647  1.0000
  H   H27       1.0  0.99172  0.87090  0.17648  1.0000
  H   H28       1.0  0.12910  0.00828  0.32352  1.0000
  H   H29       1.0  0.22355  0.18750  0.71114  1.0000
  H   H30       1.0  0.81250  0.77646  0.78886  1.0000
  H   H31       1.0  0.77646  0.81250  0.28886  1.0000
  H   H32       1.0  0.18749  0.22355  0.21114  1.0000
  H   H33       1.0  0.57942  0.61149  0.83326  1.0000
  H   H34       1.0  0.38852  0.42058  0.66674  1.0000
  H   H35       1.0  0.42057  0.38851  0.16674  1.0000
  H   H36       1.0  0.61148  0.57942  0.33326  1.0000
  H   H37       1.0  0.56646  0.43355  0.75000  1.0000
  H   H38       1.0  0.43354  0.56645  0.25001  1.0000
  C   C1        1.0  0.63467  0.97390  0.87574  1.0000
  C   C2        1.0  0.02609  0.36534  0.62427  1.0000
  C   C3        1.0  0.36533  0.02609  0.12426  1.0000
  C   C4        1.0  0.97390  0.63467  0.37573  1.0000
  C   C5        1.0  0.66735  0.89909  0.97774  1.0000
  C   C6        1.0  0.10090  0.33266  0.52227  1.0000
  C   C7        1.0  0.33266  0.10090  0.02226  1.0000
  C   C8        1.0  0.89910  0.66734  0.47773  1.0000
  C   C9        1.0  0.60858  0.78843  0.03336  1.0000
  C   C10       1.0  0.21156  0.39142  0.46664  1.0000
  C   C11       1.0  0.39142  0.21156  0.96664  1.0000
  C   C12       1.0  0.78843  0.60858  0.53336  1.0000
  C   C13       1.0  0.51877  0.75679  0.98576  1.0000
  C   C14       1.0  0.24321  0.48123  0.51424  1.0000
  C   C15       1.0  0.48123  0.24321  0.01424  1.0000
  C   C16       1.0  0.75679  0.51877  0.48576  1.0000
  C   C17       1.0  0.49319  0.83623  0.88173  1.0000
  C   C18       1.0  0.16377  0.50682  0.61827  1.0000
  C   C19       1.0  0.50682  0.16377  0.11828  1.0000
  C   C20       1.0  0.83623  0.49318  0.38173  1.0000
  C   C21       1.0  0.29130  0.89442  0.83080  1.0000
  C   C22       1.0  0.10558  0.70870  0.66919  1.0000
  C   C23       1.0  0.70870  0.10558  0.16919  1.0000
  C   C24       1.0  0.89442  0.29130  0.33081  1.0000
  C   C25       1.0  0.17454  0.85366  0.89673  1.0000
  C   C26       1.0  0.14635  0.82546  0.60327  1.0000
  C   C27       1.0  0.82546  0.14635  0.10327  1.0000
  C   C28       1.0  0.85365  0.17454  0.39673  1.0000
  C   C29       1.0  0.07130  0.93710  0.89209  1.0000
  C   C30       1.0  0.06290  0.92871  0.60790  1.0000
  C   C31       1.0  0.92871  0.06290  0.10790  1.0000
  C   C32       1.0  0.93710  0.07129  0.39209  1.0000
  C   C33       1.0  0.08687  0.06023  0.82679  1.0000
  C   C34       1.0  0.93977  0.91313  0.67321  1.0000
  C   C35       1.0  0.91313  0.93977  0.17321  1.0000
  C   C36       1.0  0.06023  0.08687  0.32679  1.0000
  C   C37       1.0  0.20582  0.09366  0.76504  1.0000
  C   C38       1.0  0.90634  0.79418  0.73496  1.0000
  C   C39       1.0  0.79418  0.90634  0.23496  1.0000
  C   C40       1.0  0.09366  0.20582  0.26505  1.0000
  C   C41       1.0  0.40282  0.70061  0.79373  1.0000
  C   C42       1.0  0.29939  0.59718  0.70627  1.0000
  C   C43       1.0  0.59718  0.29939  0.20627  1.0000
  C   C44       1.0  0.70061  0.40282  0.29374  1.0000
  C   C45       1.0  0.50046  0.60792  0.79679  1.0000
  C   C46       1.0  0.39209  0.49955  0.70321  1.0000
  C   C47       1.0  0.49954  0.39207  0.20322  1.0000
  C   C48       1.0  0.60791  0.50045  0.29679  1.0000
  C   C49       1.0  0.49236  0.50764  0.75000  1.0000
  C   C50       1.0  0.50764  0.49235  0.25000  1.0000
  N   N1        1.0  0.55130  0.94138  0.82697  1.0000
  N   N2        1.0  0.05862  0.44871  0.67303  1.0000
  N   N3        1.0  0.44871  0.05861  0.17303  1.0000
  N   N4        1.0  0.94138  0.55129  0.32697  1.0000
  N   N5        1.0  0.39996  0.81150  0.83041  1.0000
  N   N6        1.0  0.18850  0.60004  0.66960  1.0000
  N   N7        1.0  0.60004  0.18850  0.16960  1.0000
  N   N8        1.0  0.81150  0.39996  0.33041  1.0000
  N   N9        1.0  0.30574  0.01122  0.76506  1.0000
  N   N10       1.0  0.98878  0.69427  0.73495  1.0000
  N   N11       1.0  0.69426  0.98878  0.23494  1.0000
  N   N12       1.0  0.01122  0.30574  0.26506  1.0000
  N   N13       1.0  0.30612  0.69388  0.75001  1.0000
  N   N14       1.0  0.69388  0.30612  0.25000  1.0000
  Cl  Cl1       1.0  0.37132  0.10837  0.46648  1.0000
  Cl  Cl2       1.0  0.89163  0.62869  0.03352  1.0000
  Cl  Cl3       1.0  0.62869  0.89163  0.53352  1.0000
  Cl  Cl4       1.0  0.10837  0.37132  0.96648  1.0000
  Cl  Cl5       1.0  0.59614  0.24030  0.63071  1.0000
  Cl  Cl6       1.0  0.75970  0.40386  0.86929  1.0000
  Cl  Cl7       1.0  0.40386  0.75970  0.36929  1.0000
  Cl  Cl8       1.0  0.24030  0.59614  0.13071  1.0000
