data_image0
_chemical_formula_structural       Li4H40C16N8Cl4
_chemical_formula_sum              "Li4 H40 C16 N8 Cl4"
_cell_length_a       6.6442
_cell_length_b       6.9174
_cell_length_c       13.8694
_cell_angle_alpha    97.0906
_cell_angle_beta     89.9998
_cell_angle_gamma    90

_space_group_name_H-M_alt    "P 1"
_space_group_IT_number       1

loop_
  _space_group_symop_operation_xyz
  'x, y, z'

loop_
  _atom_site_type_symbol
  _atom_site_label
  _atom_site_symmetry_multiplicity
  _atom_site_fract_x
  _atom_site_fract_y
  _atom_site_fract_z
  _atom_site_occupancy
  Li  Li1       1.0  0.12182  0.12433  0.70680  1.0000
  Li  Li2       1.0  0.62183  0.87566  0.79320  1.0000
  Li  Li3       1.0  0.87817  0.87566  0.29320  1.0000
  Li  Li4       1.0  0.37817  0.12433  0.20680  1.0000
  H   H1        1.0  0.29470  0.48407  0.75139  1.0000
  H   H2        1.0  0.79469  0.51592  0.74860  1.0000
  H   H3        1.0  0.70531  0.51592  0.24860  1.0000
  H   H4        1.0  0.20531  0.48408  0.25140  1.0000
  H   H5        1.0  0.45160  0.30665  0.76946  1.0000
  H   H6        1.0  0.95159  0.69334  0.73053  1.0000
  H   H7        1.0  0.54840  0.69335  0.23054  1.0000
  H   H8        1.0  0.04841  0.30665  0.26946  1.0000
  H   H9        1.0  0.50911  0.21219  0.61162  1.0000
  H   H10       1.0  0.00911  0.78780  0.88838  1.0000
  H   H11       1.0  0.49089  0.78780  0.38838  1.0000
  H   H12       1.0  0.99090  0.21220  0.11162  1.0000
  H   H13       1.0  0.50538  0.46992  0.61834  1.0000
  H   H14       1.0  0.00538  0.53008  0.88165  1.0000
  H   H15       1.0  0.49462  0.53007  0.38165  1.0000
  H   H16       1.0  0.99462  0.46993  0.11835  1.0000
  H   H17       1.0  0.29530  0.35028  0.48161  1.0000
  H   H18       1.0  0.79530  0.64972  0.01839  1.0000
  H   H19       1.0  0.70470  0.64972  0.51839  1.0000
  H   H20       1.0  0.20471  0.35029  0.98162  1.0000
  H   H21       1.0  0.14083  0.46104  0.57748  1.0000
  H   H22       1.0  0.64083  0.53896  0.92252  1.0000
  H   H23       1.0  0.85917  0.53896  0.42252  1.0000
  H   H24       1.0  0.35918  0.46105  0.07748  1.0000
  H   H25       1.0  0.35337  0.95886  0.53416  1.0000
  H   H26       1.0  0.85338  0.04114  0.96584  1.0000
  H   H27       1.0  0.64662  0.04114  0.46584  1.0000
  H   H28       1.0  0.14662  0.95887  0.03416  1.0000
  H   H29       1.0  0.24920  0.02544  0.42334  1.0000
  H   H30       1.0  0.74921  0.97456  0.07666  1.0000
  H   H31       1.0  0.75079  0.97456  0.57666  1.0000
  H   H32       1.0  0.25080  0.02545  0.92334  1.0000
  H   H33       1.0  0.93849  0.23197  0.43575  1.0000
  H   H34       1.0  0.43849  0.76803  0.06425  1.0000
  H   H35       1.0  0.06150  0.76803  0.56425  1.0000
  H   H36       1.0  0.56151  0.23198  0.93576  1.0000
  H   H37       1.0  0.84113  0.30902  0.55414  1.0000
  H   H38       1.0  0.34112  0.69099  0.94585  1.0000
  H   H39       1.0  0.15887  0.69098  0.44585  1.0000
  H   H40       1.0  0.65887  0.30903  0.05415  1.0000
  C   C1        1.0  0.41248  0.34083  0.62700  1.0000
  C   C2        1.0  0.91248  0.65916  0.87299  1.0000
  C   C3        1.0  0.58752  0.65916  0.37300  1.0000
  C   C4        1.0  0.08753  0.34084  0.12701  1.0000
  C   C5        1.0  0.23844  0.33495  0.55555  1.0000
  C   C6        1.0  0.73845  0.66506  0.94444  1.0000
  C   C7        1.0  0.76156  0.66505  0.44445  1.0000
  C   C8        1.0  0.26156  0.33495  0.05556  1.0000
  C   C9        1.0  0.21317  0.99097  0.49749  1.0000
  C   C10       1.0  0.71317  0.00903  0.00251  1.0000
  C   C11       1.0  0.78683  0.00902  0.50251  1.0000
  C   C12       1.0  0.28684  0.99098  0.99749  1.0000
  C   C13       1.0  0.91852  0.18922  0.50960  1.0000
  C   C14       1.0  0.41851  0.81078  0.99040  1.0000
  C   C15       1.0  0.08148  0.81078  0.49040  1.0000
  C   C16       1.0  0.58148  0.18923  0.00960  1.0000
  N   N1        1.0  0.33493  0.34327  0.72682  1.0000
  N   N2        1.0  0.83493  0.65673  0.77318  1.0000
  N   N3        1.0  0.66507  0.65673  0.27318  1.0000
  N   N4        1.0  0.16506  0.34326  0.22682  1.0000
  N   N5        1.0  0.11446  0.15817  0.55433  1.0000
  N   N6        1.0  0.61447  0.84183  0.94567  1.0000
  N   N7        1.0  0.88553  0.84182  0.44567  1.0000
  N   N8        1.0  0.38554  0.15818  0.05433  1.0000
  Cl  Cl1       1.0  0.30198  0.83573  0.72714  1.0000
  Cl  Cl2       1.0  0.80198  0.16427  0.77286  1.0000
  Cl  Cl3       1.0  0.69801  0.16427  0.27286  1.0000
  Cl  Cl4       1.0  0.19802  0.83573  0.22714  1.0000
