data_image0
_chemical_formula_structural       Cu3H18C28N6O10
_chemical_formula_sum              "Cu3 H18 C28 N6 O10"
_cell_length_a       7.02862
_cell_length_b       10.3234
_cell_length_c       13.1923
_cell_angle_alpha    107.916
_cell_angle_beta     91.2394
_cell_angle_gamma    97.4397

_space_group_name_H-M_alt    "P 1"
_space_group_IT_number       1

loop_
  _space_group_symop_operation_xyz
  'x, y, z'

loop_
  _atom_site_type_symbol
  _atom_site_label
  _atom_site_symmetry_multiplicity
  _atom_site_fract_x
  _atom_site_fract_y
  _atom_site_fract_z
  _atom_site_occupancy
  Cu  Cu1       1.0  0.50050  0.00006  0.50008  1.0000
  Cu  Cu2       1.0  0.89931  0.77947  0.65923  1.0000
  Cu  Cu3       1.0  0.10104  0.22107  0.34062  1.0000
  H   H1        1.0  0.68987  0.36563  0.35058  1.0000
  H   H2        1.0  0.30890  0.63481  0.64978  1.0000
  H   H3        1.0  0.89068  0.44524  0.22230  1.0000
  H   H4        1.0  0.10846  0.55442  0.77783  1.0000
  H   H5        1.0  0.10164  0.67722  0.28702  1.0000
  H   H6        1.0  0.89892  0.32192  0.71290  1.0000
  H   H7        1.0  0.99426  0.05942  0.77860  1.0000
  H   H8        1.0  0.00721  0.93980  0.22147  1.0000
  H   H9        1.0  0.15843  0.28915  0.89279  1.0000
  H   H10       1.0  0.84226  0.71022  0.10719  1.0000
  H   H11       1.0  0.46253  0.39387  0.82940  1.0000
  H   H12       1.0  0.53752  0.60624  0.17050  1.0000
  H   H13       1.0  0.58422  0.25952  0.66008  1.0000
  H   H14       1.0  0.41578  0.74110  0.33966  1.0000
  H   H15       1.0  0.08760  0.88463  0.02678  1.0000
  H   H16       1.0  0.91081  0.11527  0.97318  1.0000
  H   H17       1.0  0.83601  0.88880  0.00570  1.0000
  H   H18       1.0  0.16249  0.11110  0.99407  1.0000
  C   C1        1.0  0.68886  0.51508  0.57208  1.0000
  C   C2        1.0  0.31090  0.48573  0.42826  1.0000
  C   C3        1.0  0.78626  0.55005  0.48112  1.0000
  C   C4        1.0  0.21316  0.45040  0.51902  1.0000
  C   C5        1.0  0.77945  0.46562  0.37556  1.0000
  C   C6        1.0  0.21978  0.53463  0.62463  1.0000
  C   C7        1.0  0.89094  0.51233  0.30413  1.0000
  C   C8        1.0  0.10850  0.48750  0.69594  1.0000
  C   C9        1.0  0.00755  0.63999  0.33949  1.0000
  C   C10       1.0  0.99244  0.35961  0.66043  1.0000
  C   C11       1.0  0.00598  0.71928  0.44596  1.0000
  C   C12       1.0  0.99422  0.28049  0.55392  1.0000
  C   C13       1.0  0.13092  0.85223  0.49876  1.0000
  C   C14       1.0  0.87005  0.14732  0.50115  1.0000
  C   C15       1.0  0.20501  0.03521  0.66166  1.0000
  C   C16       1.0  0.79599  0.96447  0.33818  1.0000
  C   C17       1.0  0.12746  0.10719  0.75670  1.0000
  C   C18       1.0  0.87374  0.89230  0.24328  1.0000
  C   C19       1.0  0.21979  0.23436  0.81931  1.0000
  C   C20       1.0  0.78098  0.76527  0.18065  1.0000
  C   C21       1.0  0.38780  0.29194  0.78574  1.0000
  C   C22       1.0  0.61257  0.70806  0.21418  1.0000
  C   C23       1.0  0.45795  0.21724  0.69150  1.0000
  C   C24       1.0  0.54236  0.78304  0.30832  1.0000
  C   C25       1.0  0.99339  0.85424  0.86511  1.0000
  C   C26       1.0  0.00557  0.14578  0.13480  1.0000
  C   C27       1.0  0.98094  0.92100  0.98419  1.0000
  C   C28       1.0  0.01762  0.07890  0.01568  1.0000
  N   N1        1.0  0.89467  0.67346  0.51227  1.0000
  N   N2        1.0  0.10511  0.32688  0.48763  1.0000
  N   N3        1.0  0.10518  0.90898  0.60221  1.0000
  N   N4        1.0  0.89626  0.09048  0.39785  1.0000
  N   N5        1.0  0.37242  0.09126  0.63099  1.0000
  N   N6        1.0  0.62822  0.90900  0.36868  1.0000
  O   O1        1.0  0.59731  0.39832  0.55678  1.0000
  O   O2        1.0  0.40215  0.60268  0.44390  1.0000
  O   O3        1.0  0.71494  0.61262  0.66299  1.0000
  O   O4        1.0  0.28571  0.38833  0.33729  1.0000
  O   O5        1.0  0.24905  0.89760  0.44070  1.0000
  O   O6        1.0  0.75209  0.10192  0.55939  1.0000
  O   O7        1.0  0.86425  0.88056  0.80429  1.0000
  O   O8        1.0  0.13525  0.11982  0.19550  1.0000
  O   O9        1.0  0.12048  0.78164  0.82908  1.0000
  O   O10       1.0  0.87829  0.21820  0.17092  1.0000
