data_image0
_chemical_formula_structural       Co2H28C42N4O14
_chemical_formula_sum              "Co2 H28 C42 N4 O14"
_cell_length_a       9.5472
_cell_length_b       10.9854
_cell_length_c       10.7496
_cell_angle_alpha    96.5804
_cell_angle_beta     110.603
_cell_angle_gamma    113.806

_space_group_name_H-M_alt    "P 1"
_space_group_IT_number       1

loop_
  _space_group_symop_operation_xyz
  'x, y, z'

loop_
  _atom_site_type_symbol
  _atom_site_label
  _atom_site_symmetry_multiplicity
  _atom_site_fract_x
  _atom_site_fract_y
  _atom_site_fract_z
  _atom_site_occupancy
  Co  Co1       1.0  0.11347  0.98039  0.15267  1.0000
  Co  Co2       1.0  0.88653  0.01961  0.84732  1.0000
  H   H1        1.0  0.73417  0.79387  0.05875  1.0000
  H   H2        1.0  0.26582  0.20613  0.94123  1.0000
  H   H3        1.0  0.53662  0.80145  0.16014  1.0000
  H   H4        1.0  0.46337  0.19855  0.83985  1.0000
  H   H5        1.0  0.64328  0.99121  0.37128  1.0000
  H   H6        1.0  0.35672  0.00879  0.62871  1.0000
  H   H7        1.0  0.50462  0.17638  0.33230  1.0000
  H   H8        1.0  0.49538  0.82363  0.66770  1.0000
  H   H9        1.0  0.66342  0.38139  0.54270  1.0000
  H   H10       1.0  0.33657  0.61861  0.45730  1.0000
  H   H11       1.0  0.50827  0.44867  0.65891  1.0000
  H   H12       1.0  0.49173  0.55133  0.34109  1.0000
  H   H13       1.0  0.91062  0.21417  0.56877  1.0000
  H   H14       1.0  0.08937  0.78583  0.43123  1.0000
  H   H15       1.0  0.21828  0.37928  0.66673  1.0000
  H   H16       1.0  0.78171  0.62071  0.33327  1.0000
  H   H17       1.0  0.14789  0.81870  0.88429  1.0000
  H   H18       1.0  0.85212  0.18130  0.11572  1.0000
  H   H19       1.0  0.51293  0.65003  0.85303  1.0000
  H   H20       1.0  0.48707  0.34997  0.14696  1.0000
  H   H21       1.0  0.12921  0.41689  0.81139  1.0000
  H   H22       1.0  0.87080  0.58312  0.18862  1.0000
  H   H23       1.0  0.71390  0.45144  0.84751  1.0000
  H   H24       1.0  0.28611  0.54856  0.15248  1.0000
  H   H25       1.0  0.39559  0.07440  0.12043  1.0000
  H   H26       1.0  0.60441  0.92561  0.87959  1.0000
  H   H27       1.0  0.32138  0.91760  0.13834  1.0000
  H   H28       1.0  0.67861  0.08241  0.86165  1.0000
  C   C1        1.0  0.77931  0.87481  0.15295  1.0000
  C   C2        1.0  0.22068  0.12520  0.84704  1.0000
  C   C3        1.0  0.66991  0.88053  0.20996  1.0000
  C   C4        1.0  0.33008  0.11947  0.79003  1.0000
  C   C5        1.0  0.72958  0.98673  0.32842  1.0000
  C   C6        1.0  0.27041  0.01327  0.67158  1.0000
  C   C7        1.0  0.90345  0.08727  0.39273  1.0000
  C   C8        1.0  0.09654  0.91272  0.60726  1.0000
  C   C9        1.0  0.00524  0.07159  0.33014  1.0000
  C   C10       1.0  0.99476  0.92841  0.66986  1.0000
  C   C11       1.0  0.43732  0.20463  0.38349  1.0000
  C   C12       1.0  0.56267  0.79537  0.61651  1.0000
  C   C13       1.0  0.52572  0.32051  0.50243  1.0000
  C   C14       1.0  0.47427  0.67949  0.49757  1.0000
  C   C15       1.0  0.44021  0.35756  0.56736  1.0000
  C   C16       1.0  0.55979  0.64244  0.43263  1.0000
  C   C17       1.0  0.26222  0.27391  0.51256  1.0000
  C   C18       1.0  0.73778  0.72608  0.48744  1.0000
  C   C19       1.0  0.18278  0.16069  0.39139  1.0000
  C   C20       1.0  0.81721  0.83930  0.60861  1.0000
  C   C21       1.0  0.98579  0.20213  0.51658  1.0000
  C   C22       1.0  0.01421  0.79786  0.48342  1.0000
  C   C23       1.0  0.15692  0.29256  0.57248  1.0000
  C   C24       1.0  0.84307  0.70743  0.42752  1.0000
  C   C25       1.0  0.83694  0.72753  0.89199  1.0000
  C   C26       1.0  0.16306  0.27247  0.10801  1.0000
  C   C27       1.0  0.92100  0.64430  0.86652  1.0000
  C   C28       1.0  0.07901  0.35570  0.13349  1.0000
  C   C29       1.0  0.07968  0.70646  0.86419  1.0000
  C   C30       1.0  0.92033  0.29354  0.13582  1.0000
  C   C31       1.0  0.15457  0.62439  0.84253  1.0000
  C   C32       1.0  0.84545  0.37562  0.15749  1.0000
  C   C33       1.0  0.32689  0.69070  0.84685  1.0000
  C   C34       1.0  0.67312  0.30929  0.15318  1.0000
  C   C35       1.0  0.06989  0.48097  0.82233  1.0000
  C   C36       1.0  0.93012  0.51903  0.17768  1.0000
  C   C37       1.0  0.90933  0.41762  0.82068  1.0000
  C   C38       1.0  0.09067  0.58238  0.17933  1.0000
  C   C39       1.0  0.82572  0.26456  0.80592  1.0000
  C   C40       1.0  0.17428  0.73544  0.19408  1.0000
  C   C41       1.0  0.83602  0.49970  0.84354  1.0000
  C   C42       1.0  0.16398  0.50029  0.15646  1.0000
  N   N1        1.0  0.94433  0.96946  0.21071  1.0000
  N   N2        1.0  0.05566  0.03054  0.78928  1.0000
  N   N3        1.0  0.26725  0.12602  0.32578  1.0000
  N   N4        1.0  0.73274  0.87398  0.67422  1.0000
  O   O1        1.0  0.92727  0.85989  0.95601  1.0000
  O   O2        1.0  0.07273  0.14011  0.04399  1.0000
  O   O3        1.0  0.67640  0.66246  0.84356  1.0000
  O   O4        1.0  0.32360  0.33754  0.15643  1.0000
  O   O5        1.0  0.39562  0.60622  0.85273  1.0000
  O   O6        1.0  0.60437  0.39378  0.14724  1.0000
  O   O7        1.0  0.39852  0.81289  0.84566  1.0000
  O   O8        1.0  0.60152  0.18715  0.15441  1.0000
  O   O9        1.0  0.90942  0.20168  0.79354  1.0000
  O   O10       1.0  0.09057  0.79832  0.20646  1.0000
  O   O11       1.0  0.68311  0.20902  0.81069  1.0000
  O   O12       1.0  0.31689  0.79098  0.18931  1.0000
  O   O13       1.0  0.28888  0.98800  0.09762  1.0000
  O   O14       1.0  0.71112  0.01200  0.90237  1.0000
