data_image0
_chemical_formula_structural       Zn2H28C36Br2N6O14
_chemical_formula_sum              "Zn2 H28 C36 Br2 N6 O14"
_cell_length_a       9.46644
_cell_length_b       9.48699
_cell_length_c       11.1826
_cell_angle_alpha    70.615
_cell_angle_beta     79.8668
_cell_angle_gamma    81.0675

_space_group_name_H-M_alt    "P 1"
_space_group_IT_number       1

loop_
  _space_group_symop_operation_xyz
  'x, y, z'

loop_
  _atom_site_type_symbol
  _atom_site_label
  _atom_site_symmetry_multiplicity
  _atom_site_fract_x
  _atom_site_fract_y
  _atom_site_fract_z
  _atom_site_occupancy
  Zn  Zn1       1.0  0.02430  0.97909  0.28555  1.0000
  Zn  Zn2       1.0  0.97570  0.02092  0.71445  1.0000
  H   H1        1.0  0.38897  0.75291  0.35442  1.0000
  H   H2        1.0  0.61103  0.24709  0.64558  1.0000
  H   H3        1.0  0.00570  0.81003  0.53263  1.0000
  H   H4        1.0  0.99430  0.18997  0.46737  1.0000
  H   H5        1.0  0.09947  0.71883  0.44319  1.0000
  H   H6        1.0  0.90052  0.28117  0.55681  1.0000
  H   H7        1.0  0.99260  0.46695  0.20118  1.0000
  H   H8        1.0  0.00740  0.53305  0.79881  1.0000
  H   H9        1.0  0.79263  0.76031  0.35555  1.0000
  H   H10       1.0  0.20737  0.23969  0.64445  1.0000
  H   H11       1.0  0.84017  0.56167  0.40906  1.0000
  H   H12       1.0  0.15983  0.43833  0.59094  1.0000
  H   H13       1.0  0.72921  0.64386  0.28337  1.0000
  H   H14       1.0  0.27079  0.35613  0.71663  1.0000
  H   H15       1.0  0.33873  0.85921  0.90014  1.0000
  H   H16       1.0  0.66127  0.14079  0.09986  1.0000
  H   H17       1.0  0.46538  0.09073  0.81896  1.0000
  H   H18       1.0  0.53462  0.90927  0.18104  1.0000
  H   H19       1.0  0.38787  0.29310  0.92352  1.0000
  H   H20       1.0  0.61213  0.70690  0.07648  1.0000
  H   H21       1.0  0.19189  0.24831  0.11102  1.0000
  H   H22       1.0  0.80811  0.75169  0.88898  1.0000
  H   H23       1.0  0.57061  0.01023  0.34037  1.0000
  H   H24       1.0  0.42939  0.98977  0.65963  1.0000
  H   H25       1.0  0.63226  0.44770  0.34083  1.0000
  H   H26       1.0  0.36774  0.55230  0.65916  1.0000
  H   H27       1.0  0.20142  0.32853  0.37588  1.0000
  H   H28       1.0  0.79858  0.67148  0.62412  1.0000
  C   C1        1.0  0.13719  0.65301  0.09463  1.0000
  C   C2        1.0  0.86281  0.34699  0.90537  1.0000
  C   C3        1.0  0.12116  0.79893  0.10591  1.0000
  C   C4        1.0  0.87884  0.20106  0.89409  1.0000
  C   C5        1.0  0.02381  0.57985  0.17696  1.0000
  C   C6        1.0  0.97619  0.42015  0.82304  1.0000
  C   C7        1.0  0.81882  0.65933  0.32620  1.0000
  C   C8        1.0  0.18118  0.34066  0.67380  1.0000
  C   C9        1.0  0.20209  0.92977  0.05023  1.0000
  C   C10       1.0  0.79791  0.07023  0.94977  1.0000
  C   C11       1.0  0.31018  0.94675  0.94533  1.0000
  C   C12       1.0  0.68982  0.05325  0.05467  1.0000
  C   C13       1.0  0.37906  0.07734  0.89930  1.0000
  C   C14       1.0  0.62093  0.92267  0.10070  1.0000
  C   C15       1.0  0.33649  0.18931  0.95731  1.0000
  C   C16       1.0  0.66351  0.81069  0.04269  1.0000
  C   C17       1.0  0.22756  0.16537  0.06106  1.0000
  C   C18       1.0  0.77244  0.83463  0.93895  1.0000
  C   C19       1.0  0.37553  0.15707  0.35777  1.0000
  C   C20       1.0  0.62447  0.84293  0.64223  1.0000
  C   C21       1.0  0.52540  0.12109  0.34529  1.0000
  C   C22       1.0  0.47460  0.87891  0.65471  1.0000
  C   C23       1.0  0.61781  0.22609  0.33777  1.0000
  C   C24       1.0  0.38219  0.77391  0.66223  1.0000
  C   C25       1.0  0.55922  0.36766  0.34550  1.0000
  C   C26       1.0  0.44078  0.63234  0.65450  1.0000
  C   C27       1.0  0.40957  0.40454  0.35979  1.0000
  C   C28       1.0  0.59043  0.59546  0.64021  1.0000
  C   C29       1.0  0.31769  0.29913  0.36557  1.0000
  C   C30       1.0  0.68231  0.70087  0.63444  1.0000
  C   C31       1.0  0.28060  0.04547  0.35411  1.0000
  C   C32       1.0  0.71940  0.95454  0.64590  1.0000
  C   C33       1.0  0.77940  0.19062  0.31800  1.0000
  C   C34       1.0  0.22060  0.80938  0.68200  1.0000
  C   C35       1.0  0.34510  0.55421  0.36906  1.0000
  C   C36       1.0  0.65490  0.44580  0.63094  1.0000
  Br  Br1       1.0  0.28698  0.56462  0.99981  1.0000
  Br  Br2       1.0  0.71303  0.43538  0.00019  1.0000
  N   N1        1.0  0.00395  0.81161  0.19144  1.0000
  N   N2        1.0  0.99606  0.18839  0.80856  1.0000
  N   N3        1.0  0.94754  0.68008  0.23273  1.0000
  N   N4        1.0  0.05246  0.31992  0.76727  1.0000
  N   N5        1.0  0.16316  0.03818  0.10769  1.0000
  N   N6        1.0  0.83684  0.96182  0.89231  1.0000
  O   O1        1.0  0.14471  0.08759  0.35722  1.0000
  O   O2        1.0  0.85529  0.91241  0.64279  1.0000
  O   O3        1.0  0.33990  0.92194  0.34084  1.0000
  O   O4        1.0  0.66010  0.07806  0.65916  1.0000
  O   O5        1.0  0.82162  0.06119  0.30107  1.0000
  O   O6        1.0  0.17838  0.93882  0.69892  1.0000
  O   O7        1.0  0.85959  0.28405  0.31754  1.0000
  O   O8        1.0  0.14040  0.71595  0.68246  1.0000
  O   O9        1.0  0.21329  0.58338  0.39482  1.0000
  O   O10       1.0  0.78671  0.41662  0.60518  1.0000
  O   O11       1.0  0.44010  0.65244  0.34828  1.0000
  O   O12       1.0  0.55990  0.34757  0.65172  1.0000
  O   O13       1.0  0.01412  0.79264  0.44958  1.0000
  O   O14       1.0  0.98588  0.20736  0.55042  1.0000
