data_image0
_chemical_formula_structural       Zn2H30C36N6O14
_chemical_formula_sum              "Zn2 H30 C36 N6 O14"
_cell_length_a       9.32501
_cell_length_b       9.30874
_cell_length_c       11.6746
_cell_angle_alpha    67.2117
_cell_angle_beta     81.529
_cell_angle_gamma    80.5581

_space_group_name_H-M_alt    "P 1"
_space_group_IT_number       1

loop_
  _space_group_symop_operation_xyz
  'x, y, z'

loop_
  _atom_site_type_symbol
  _atom_site_label
  _atom_site_symmetry_multiplicity
  _atom_site_fract_x
  _atom_site_fract_y
  _atom_site_fract_z
  _atom_site_occupancy
  Zn  Zn1       1.0  0.03460  0.48255  0.28817  1.0000
  Zn  Zn2       1.0  0.96540  0.51746  0.71183  1.0000
  H   H1        1.0  0.17053  0.79939  0.14666  1.0000
  H   H2        1.0  0.82948  0.20061  0.85333  1.0000
  H   H3        1.0  0.33943  0.91505  0.95311  1.0000
  H   H4        1.0  0.66057  0.08495  0.04689  1.0000
  H   H5        1.0  0.42633  0.75646  0.81840  1.0000
  H   H6        1.0  0.57367  0.24354  0.18160  1.0000
  H   H7        1.0  0.33552  0.49659  0.87737  1.0000
  H   H8        1.0  0.66448  0.50341  0.12263  1.0000
  H   H9        1.0  0.21251  0.24733  0.94589  1.0000
  H   H10       1.0  0.78748  0.75267  0.05411  1.0000
  H   H11       1.0  0.03417  0.03302  0.11391  1.0000
  H   H12       1.0  0.96582  0.96698  0.88609  1.0000
  H   H13       1.0  0.96998  0.06841  0.40090  1.0000
  H   H14       1.0  0.03002  0.93159  0.59910  1.0000
  H   H15       1.0  0.87739  0.01428  0.30178  1.0000
  H   H16       1.0  0.12261  0.98572  0.69822  1.0000
  H   H17       1.0  0.81876  0.19560  0.32665  1.0000
  H   H18       1.0  0.18124  0.80440  0.67335  1.0000
  H   H19       1.0  0.57049  0.51773  0.32701  1.0000
  H   H20       1.0  0.42951  0.48227  0.67299  1.0000
  H   H21       1.0  0.64253  0.96277  0.32410  1.0000
  H   H22       1.0  0.35747  0.03722  0.67590  1.0000
  H   H23       1.0  0.40421  0.25895  0.37240  1.0000
  H   H24       1.0  0.59579  0.74105  0.62760  1.0000
  H   H25       1.0  0.20845  0.82388  0.41210  1.0000
  H   H26       1.0  0.79155  0.17612  0.58790  1.0000
  H   H27       1.0  0.97334  0.32390  0.53172  1.0000
  H   H28       1.0  0.02666  0.67611  0.46828  1.0000
  H   H29       1.0  0.10455  0.22298  0.47496  1.0000
  H   H30       1.0  0.89546  0.77702  0.52504  1.0000
  C   C1        1.0  0.21085  0.73755  0.08373  1.0000
  C   C2        1.0  0.78915  0.26245  0.91626  1.0000
  C   C3        1.0  0.30509  0.79969  0.97734  1.0000
  C   C4        1.0  0.69492  0.20031  0.02266  1.0000
  C   C5        1.0  0.35248  0.71176  0.90239  1.0000
  C   C6        1.0  0.64752  0.28824  0.09761  1.0000
  C   C7        1.0  0.30268  0.56671  0.93503  1.0000
  C   C8        1.0  0.69732  0.43329  0.06497  1.0000
  C   C9        1.0  0.20739  0.51238  0.04306  1.0000
  C   C10       1.0  0.79261  0.48762  0.95694  1.0000
  C   C11       1.0  0.14645  0.36362  0.08528  1.0000
  C   C12       1.0  0.85355  0.63638  0.91472  1.0000
  C   C13       1.0  0.15519  0.24852  0.03312  1.0000
  C   C14       1.0  0.84481  0.75148  0.96688  1.0000
  C   C15       1.0  0.06589  0.13946  0.11513  1.0000
  C   C16       1.0  0.93411  0.86054  0.88487  1.0000
  C   C17       1.0  0.91244  0.11187  0.31677  1.0000
  C   C18       1.0  0.08755  0.88813  0.68323  1.0000
  C   C19       1.0  0.27748  0.55011  0.36629  1.0000
  C   C20       1.0  0.72252  0.44989  0.63371  1.0000
  C   C21       1.0  0.37798  0.65991  0.36710  1.0000
  C   C22       1.0  0.62202  0.34009  0.63290  1.0000
  C   C23       1.0  0.52793  0.62822  0.33792  1.0000
  C   C24       1.0  0.47207  0.37178  0.66208  1.0000
  C   C25       1.0  0.62326  0.73764  0.32092  1.0000
  C   C26       1.0  0.37675  0.26236  0.67908  1.0000
  C   C27       1.0  0.78402  0.70550  0.28532  1.0000
  C   C28       1.0  0.21597  0.29451  0.71468  1.0000
  C   C29       1.0  0.56804  0.87813  0.33697  1.0000
  C   C30       1.0  0.43196  0.12187  0.66304  1.0000
  C   C31       1.0  0.41943  0.90723  0.37263  1.0000
  C   C32       1.0  0.58057  0.09277  0.62737  1.0000
  C   C33       1.0  0.35935  0.05219  0.39635  1.0000
  C   C34       1.0  0.64063  0.94781  0.60366  1.0000
  C   C35       1.0  0.32416  0.79880  0.38645  1.0000
  C   C36       1.0  0.67583  0.20119  0.61355  1.0000
  N   N1        1.0  0.16369  0.59737  0.11613  1.0000
  N   N2        1.0  0.83631  0.40263  0.88386  1.0000
  N   N3        1.0  0.01011  0.18946  0.20917  1.0000
  N   N4        1.0  0.98989  0.81054  0.79083  1.0000
  N   N5        1.0  0.05829  0.32479  0.19284  1.0000
  N   N6        1.0  0.94170  0.67521  0.80716  1.0000
  O   O1        1.0  0.13922  0.59549  0.37091  1.0000
  O   O2        1.0  0.86078  0.40451  0.62909  1.0000
  O   O3        1.0  0.33055  0.42561  0.34953  1.0000
  O   O4        1.0  0.66945  0.57439  0.65047  1.0000
  O   O5        1.0  0.82565  0.56235  0.29320  1.0000
  O   O6        1.0  0.17435  0.43765  0.70680  1.0000
  O   O7        1.0  0.86389  0.81331  0.25030  1.0000
  O   O8        1.0  0.13611  0.18670  0.74969  1.0000
  O   O9        1.0  0.45484  0.15590  0.36661  1.0000
  O   O10       1.0  0.54516  0.84410  0.63339  1.0000
  O   O11       1.0  0.23220  0.07327  0.44005  1.0000
  O   O12       1.0  0.76781  0.92673  0.55994  1.0000
  O   O13       1.0  0.01233  0.29354  0.45943  1.0000
  O   O14       1.0  0.98767  0.70646  0.54057  1.0000
