data_image0
_chemical_formula_structural       Li4H6C12N6O14
_chemical_formula_sum              "Li4 H6 C12 N6 O14"
_cell_length_a       4.71934
_cell_length_b       6.02297
_cell_length_c       15.9189
_cell_angle_alpha    90.0017
_cell_angle_beta     90.003
_cell_angle_gamma    96.6572

_space_group_name_H-M_alt    "P 1"
_space_group_IT_number       1

loop_
  _space_group_symop_operation_xyz
  'x, y, z'

loop_
  _atom_site_type_symbol
  _atom_site_label
  _atom_site_symmetry_multiplicity
  _atom_site_fract_x
  _atom_site_fract_y
  _atom_site_fract_z
  _atom_site_occupancy
  Li  Li1       1.0  0.28711  0.66054  0.55280  1.0000
  Li  Li2       1.0  0.71290  0.33947  0.05281  1.0000
  Li  Li3       1.0  0.39056  0.21439  0.48534  1.0000
  Li  Li4       1.0  0.60945  0.78560  0.98535  1.0000
  H   H1        1.0  0.25549  0.03900  0.85216  1.0000
  H   H2        1.0  0.74452  0.96100  0.35215  1.0000
  H   H3        1.0  0.12440  0.98380  0.69742  1.0000
  H   H4        1.0  0.87558  0.01619  0.19742  1.0000
  H   H5        1.0  0.85387  0.29559  0.75133  1.0000
  H   H6        1.0  0.14611  0.70441  0.25133  1.0000
  C   C1        1.0  0.51471  0.57193  0.72333  1.0000
  C   C2        1.0  0.48528  0.42807  0.22333  1.0000
  C   C3        1.0  0.76309  0.45844  0.86377  1.0000
  C   C4        1.0  0.23689  0.54154  0.36377  1.0000
  C   C5        1.0  0.58814  0.60142  0.80908  1.0000
  C   C6        1.0  0.41186  0.39857  0.30908  1.0000
  C   C7        1.0  0.33188  0.90613  0.81493  1.0000
  C   C8        1.0  0.66812  0.09387  0.31493  1.0000
  C   C9        1.0  0.59037  0.39170  0.66232  1.0000
  C   C10       1.0  0.40963  0.60831  0.16232  1.0000
  C   C11       1.0  0.25848  0.87588  0.73023  1.0000
  C   C12       1.0  0.74152  0.12412  0.23023  1.0000
  N   N1        1.0  0.49269  0.76910  0.85315  1.0000
  N   N2        1.0  0.50730  0.23090  0.35314  1.0000
  N   N3        1.0  0.34856  0.71026  0.68616  1.0000
  N   N4        1.0  0.65144  0.28975  0.18616  1.0000
  N   N5        1.0  0.81827  0.93327  0.52325  1.0000
  N   N6        1.0  0.18174  0.06673  0.02325  1.0000
  O   O1        1.0  0.46314  0.37731  0.59376  1.0000
  O   O2        1.0  0.53688  0.62271  0.09378  1.0000
  O   O3        1.0  0.54816  0.92605  0.51444  1.0000
  O   O4        1.0  0.45186  0.07396  0.01444  1.0000
  O   O5        1.0  0.77924  0.26248  0.68357  1.0000
  O   O6        1.0  0.22074  0.73751  0.18357  1.0000
  O   O7        1.0  0.91684  0.78306  0.56538  1.0000
  O   O8        1.0  0.08318  0.21695  0.06538  1.0000
  O   O9        1.0  0.97549  0.09086  0.48942  1.0000
  O   O10       1.0  0.02453  0.90912  0.98942  1.0000
  O   O11       1.0  0.74795  0.48731  0.94116  1.0000
  O   O12       1.0  0.25201  0.51266  0.44115  1.0000
  O   O13       1.0  0.91558  0.32153  0.82838  1.0000
  O   O14       1.0  0.08441  0.67847  0.32837  1.0000
