data_image0
_chemical_formula_structural       H24Pb2C22I4N8
_chemical_formula_sum              "H24 Pb2 C22 I4 N8"
_cell_length_a       8.20489
_cell_length_b       9.52809
_cell_length_c       10.6567
_cell_angle_alpha    71.6154
_cell_angle_beta     81.7574
_cell_angle_gamma    79.1753

_space_group_name_H-M_alt    "P 1"
_space_group_IT_number       1

loop_
  _space_group_symop_operation_xyz
  'x, y, z'

loop_
  _atom_site_type_symbol
  _atom_site_label
  _atom_site_symmetry_multiplicity
  _atom_site_fract_x
  _atom_site_fract_y
  _atom_site_fract_z
  _atom_site_occupancy
  H   H1        1.0  0.63058  0.12669  0.51538  1.0000
  H   H2        1.0  0.36946  0.87331  0.48460  1.0000
  H   H3        1.0  0.74254  0.97504  0.32796  1.0000
  H   H4        1.0  0.25745  0.02495  0.67203  1.0000
  H   H5        1.0  0.50631  0.19598  0.01968  1.0000
  H   H6        1.0  0.49367  0.80402  0.98032  1.0000
  H   H7        1.0  0.57024  0.00185  0.10553  1.0000
  H   H8        1.0  0.42973  0.99816  0.89447  1.0000
  H   H9        1.0  0.72148  0.12752  0.04125  1.0000
  H   H10       1.0  0.27850  0.87247  0.95874  1.0000
  H   H11       1.0  0.27241  0.49374  0.92200  1.0000
  H   H12       1.0  0.72759  0.50624  0.07801  1.0000
  H   H13       1.0  0.09344  0.68965  0.76533  1.0000
  H   H14       1.0  0.90654  0.31033  0.23468  1.0000
  H   H15       1.0  0.87112  0.87662  0.08029  1.0000
  H   H16       1.0  0.12887  0.12337  0.91971  1.0000
  H   H17       1.0  0.04830  0.68236  0.23758  1.0000
  H   H18       1.0  0.95170  0.31764  0.76242  1.0000
  H   H19       1.0  0.78297  0.99553  0.86132  1.0000
  H   H20       1.0  0.21702  0.00445  0.13867  1.0000
  H   H21       1.0  0.79292  0.87124  0.76456  1.0000
  H   H22       1.0  0.20710  0.12875  0.23543  1.0000
  H   H23       1.0  0.94550  0.98720  0.73346  1.0000
  H   H24       1.0  0.05450  0.01278  0.26655  1.0000
  Pb  Pb1       1.0  0.27862  0.46833  0.44158  1.0000
  Pb  Pb2       1.0  0.72142  0.53174  0.55840  1.0000
  C   C1        1.0  0.59515  0.15207  0.41546  1.0000
  C   C2        1.0  0.40487  0.84794  0.58453  1.0000
  C   C3        1.0  0.65296  0.07585  0.32206  1.0000
  C   C4        1.0  0.34705  0.92415  0.67794  1.0000
  C   C5        1.0  0.46733  0.27196  0.23849  1.0000
  C   C6        1.0  0.53267  0.72804  0.76151  1.0000
  C   C7        1.0  0.59391  0.11674  0.08644  1.0000
  C   C8        1.0  0.40606  0.88326  0.91356  1.0000
  C   C9        1.0  0.17392  0.57635  0.08998  1.0000
  C   C10       1.0  0.82609  0.42365  0.91003  1.0000
  C   C11       1.0  0.18529  0.57853  0.95595  1.0000
  C   C12       1.0  0.81471  0.42145  0.04406  1.0000
  C   C13       1.0  0.08485  0.68830  0.86889  1.0000
  C   C14       1.0  0.91514  0.31167  0.13111  1.0000
  C   C15       1.0  0.97096  0.79911  0.91082  1.0000
  C   C16       1.0  0.02903  0.20086  0.08919  1.0000
  C   C17       1.0  0.95966  0.79382  0.04482  1.0000
  C   C18       1.0  0.04033  0.20617  0.95519  1.0000
  C   C19       1.0  0.05934  0.68432  0.13370  1.0000
  C   C20       1.0  0.94067  0.31569  0.86630  1.0000
  C   C21       1.0  0.86719  0.91941  0.81386  1.0000
  C   C22       1.0  0.13279  0.08057  0.18613  1.0000
  I   I1        1.0  0.01549  0.24879  0.50003  1.0000
  I   I2        1.0  0.98455  0.75123  0.50000  1.0000
  I   I3        1.0  0.44736  0.31269  0.71649  1.0000
  I   I4        1.0  0.55264  0.68738  0.28351  1.0000
  N   N1        1.0  0.48039  0.27230  0.36306  1.0000
  N   N2        1.0  0.51964  0.72770  0.63693  1.0000
  N   N3        1.0  0.57152  0.15218  0.21155  1.0000
  N   N4        1.0  0.42846  0.84783  0.78845  1.0000
  N   N5        1.0  0.37028  0.36973  0.14538  1.0000
  N   N6        1.0  0.62971  0.63027  0.85463  1.0000
  N   N7        1.0  0.27190  0.47177  0.18465  1.0000
  N   N8        1.0  0.72812  0.52823  0.81534  1.0000
