data_image0
_chemical_formula_structural       Er4H24C20O32
_chemical_formula_sum              "Er4 H24 C20 O32"
_cell_length_a       9.65254
_cell_length_b       9.65262
_cell_length_c       13.3869
_cell_angle_alpha    100.123
_cell_angle_beta     100.123
_cell_angle_gamma    120.919

_space_group_name_H-M_alt    "P 1"
_space_group_IT_number       1

loop_
  _space_group_symop_operation_xyz
  'x, y, z'

loop_
  _atom_site_type_symbol
  _atom_site_label
  _atom_site_symmetry_multiplicity
  _atom_site_fract_x
  _atom_site_fract_y
  _atom_site_fract_z
  _atom_site_occupancy
  Er  Er1       1.0  0.25004  0.99999  0.99979  1.0000
  Er  Er2       1.0  0.50003  0.24996  0.50022  1.0000
  Er  Er3       1.0  0.74995  0.00002  0.00021  1.0000
  Er  Er4       1.0  0.49998  0.75005  0.49979  1.0000
  H   H1        1.0  0.08570  0.51299  0.93409  1.0000
  H   H2        1.0  0.34798  0.42090  0.93421  1.0000
  H   H3        1.0  0.98701  0.41427  0.56591  1.0000
  H   H4        1.0  0.07909  0.15200  0.56579  1.0000
  H   H5        1.0  0.91429  0.48701  0.06590  1.0000
  H   H6        1.0  0.65201  0.57910  0.06580  1.0000
  H   H7        1.0  0.01299  0.58573  0.43409  1.0000
  H   H8        1.0  0.92091  0.84800  0.43421  1.0000
  H   H9        1.0  0.95394  0.67387  0.84817  1.0000
  H   H10       1.0  0.39453  0.17469  0.84837  1.0000
  H   H11       1.0  0.82612  0.54605  0.65186  1.0000
  H   H12       1.0  0.32534  0.10551  0.65165  1.0000
  H   H13       1.0  0.04605  0.32612  0.15183  1.0000
  H   H14       1.0  0.60549  0.82533  0.15163  1.0000
  H   H15       1.0  0.17390  0.45396  0.34814  1.0000
  H   H16       1.0  0.67466  0.89449  0.34835  1.0000
  H   H17       1.0  0.90799  0.80654  0.84113  1.0000
  H   H18       1.0  0.43293  0.03458  0.84107  1.0000
  H   H19       1.0  0.69345  0.59197  0.65888  1.0000
  H   H20       1.0  0.46540  0.06708  0.65893  1.0000
  H   H21       1.0  0.09198  0.19345  0.15887  1.0000
  H   H22       1.0  0.56708  0.96541  0.15893  1.0000
  H   H23       1.0  0.30655  0.40804  0.34112  1.0000
  H   H24       1.0  0.53460  0.93291  0.34107  1.0000
  C   C1        1.0  0.34666  0.70273  0.93891  1.0000
  C   C2        1.0  0.09201  0.23602  0.93913  1.0000
  C   C3        1.0  0.79727  0.15332  0.56109  1.0000
  C   C4        1.0  0.26399  0.40797  0.56087  1.0000
  C   C5        1.0  0.65333  0.29727  0.06109  1.0000
  C   C6        1.0  0.90798  0.76399  0.06087  1.0000
  C   C7        1.0  0.20273  0.84668  0.43891  1.0000
  C   C8        1.0  0.73602  0.59203  0.43913  1.0000
  C   C9        1.0  0.20635  0.53015  0.93306  1.0000
  C   C10       1.0  0.22632  0.40264  0.93314  1.0000
  C   C11       1.0  0.96985  0.29365  0.56694  1.0000
  C   C12       1.0  0.09735  0.27366  0.56685  1.0000
  C   C13       1.0  0.79365  0.46985  0.06694  1.0000
  C   C14       1.0  0.77367  0.59736  0.06686  1.0000
  C   C15       1.0  0.03015  0.70635  0.43306  1.0000
  C   C16       1.0  0.90266  0.72633  0.43315  1.0000
  C   C17       1.0  0.32915  0.17085  0.25000  1.0000
  C   C18       1.0  0.42094  0.07909  0.25000  1.0000
  C   C19       1.0  0.67085  0.82915  0.75000  1.0000
  C   C20       1.0  0.57906  0.92091  0.75000  1.0000
  O   O1        1.0  0.31299  0.81488  0.94404  1.0000
  O   O2        1.0  0.13105  0.12922  0.94445  1.0000
  O   O3        1.0  0.68511  0.18699  0.55596  1.0000
  O   O4        1.0  0.37079  0.36895  0.55557  1.0000
  O   O5        1.0  0.68701  0.18512  0.05595  1.0000
  O   O6        1.0  0.86895  0.87079  0.05556  1.0000
  O   O7        1.0  0.31489  0.81300  0.44404  1.0000
  O   O8        1.0  0.62921  0.63105  0.44444  1.0000
  O   O9        1.0  0.49166  0.73176  0.94183  1.0000
  O   O10       1.0  0.94987  0.20975  0.94196  1.0000
  O   O11       1.0  0.76823  0.00833  0.55818  1.0000
  O   O12       1.0  0.29024  0.55011  0.55803  1.0000
  O   O13       1.0  0.50834  0.26824  0.05817  1.0000
  O   O14       1.0  0.05012  0.79025  0.05804  1.0000
  O   O15       1.0  0.23177  0.99166  0.44182  1.0000
  O   O16       1.0  0.70977  0.44990  0.44197  1.0000
  O   O17       1.0  0.24734  0.15733  0.15979  1.0000
  O   O18       1.0  0.41293  0.00280  0.15980  1.0000
  O   O19       1.0  0.34268  0.25266  0.34020  1.0000
  O   O20       1.0  0.49723  0.08710  0.34020  1.0000
  O   O21       1.0  0.75266  0.84268  0.84021  1.0000
  O   O22       1.0  0.58707  0.99720  0.84020  1.0000
  O   O23       1.0  0.65733  0.74734  0.65980  1.0000
  O   O24       1.0  0.50278  0.91290  0.65980  1.0000
  O   O25       1.0  0.00287  0.78974  0.84618  1.0000
  O   O26       1.0  0.34333  0.05674  0.84623  1.0000
  O   O27       1.0  0.71027  0.49715  0.65383  1.0000
  O   O28       1.0  0.44326  0.15663  0.65377  1.0000
  O   O29       1.0  0.99714  0.21026  0.15382  1.0000
  O   O30       1.0  0.65664  0.94326  0.15377  1.0000
  O   O31       1.0  0.28974  0.50283  0.34617  1.0000
  O   O32       1.0  0.55675  0.84337  0.34623  1.0000
