data_image0
_chemical_formula_structural       Cd4H32C24N8O28
_chemical_formula_sum              "Cd4 H32 C24 N8 O28"
_cell_length_a       5.65972
_cell_length_b       10.8889
_cell_length_c       15.2954
_cell_angle_alpha    89.9998
_cell_angle_beta     89.9998
_cell_angle_gamma    90.0007

_space_group_name_H-M_alt    "P 1"
_space_group_IT_number       1

loop_
  _space_group_symop_operation_xyz
  'x, y, z'

loop_
  _atom_site_type_symbol
  _atom_site_label
  _atom_site_symmetry_multiplicity
  _atom_site_fract_x
  _atom_site_fract_y
  _atom_site_fract_z
  _atom_site_occupancy
  Cd  Cd1       1.0  0.55274  0.90685  0.35115  1.0000
  Cd  Cd2       1.0  0.94726  0.09315  0.85115  1.0000
  Cd  Cd3       1.0  0.44725  0.40684  0.14885  1.0000
  Cd  Cd4       1.0  0.05274  0.59316  0.64885  1.0000
  H   H1        1.0  0.23126  0.10229  0.40657  1.0000
  H   H2        1.0  0.26873  0.89771  0.90657  1.0000
  H   H3        1.0  0.76874  0.60229  0.09343  1.0000
  H   H4        1.0  0.73126  0.39771  0.59343  1.0000
  H   H5        1.0  0.08937  0.05450  0.32207  1.0000
  H   H6        1.0  0.41063  0.94549  0.82207  1.0000
  H   H7        1.0  0.91063  0.55451  0.17793  1.0000
  H   H8        1.0  0.58937  0.44550  0.67793  1.0000
  H   H9        1.0  0.26868  0.72439  0.42692  1.0000
  H   H10       1.0  0.23133  0.27562  0.92692  1.0000
  H   H11       1.0  0.73132  0.22439  0.07308  1.0000
  H   H12       1.0  0.76868  0.77561  0.57308  1.0000
  H   H13       1.0  0.14140  0.84924  0.44895  1.0000
  H   H14       1.0  0.35859  0.15076  0.94895  1.0000
  H   H15       1.0  0.85860  0.34924  0.05105  1.0000
  H   H16       1.0  0.64141  0.65076  0.55104  1.0000
  H   H17       1.0  0.85220  0.67192  0.33882  1.0000
  H   H18       1.0  0.64780  0.32808  0.83882  1.0000
  H   H19       1.0  0.14780  0.17191  0.16117  1.0000
  H   H20       1.0  0.35220  0.82808  0.66118  1.0000
  H   H21       1.0  0.70130  0.67595  0.25234  1.0000
  H   H22       1.0  0.79870  0.32405  0.75233  1.0000
  H   H23       1.0  0.29870  0.17595  0.24766  1.0000
  H   H24       1.0  0.20129  0.82405  0.74766  1.0000
  H   H25       1.0  0.03234  0.78046  0.06158  1.0000
  H   H26       1.0  0.46766  0.21954  0.56159  1.0000
  H   H27       1.0  0.96765  0.28046  0.43841  1.0000
  H   H28       1.0  0.53235  0.71954  0.93842  1.0000
  H   H29       1.0  0.12600  0.78692  0.22394  1.0000
  H   H30       1.0  0.37400  0.21307  0.72395  1.0000
  H   H31       1.0  0.87398  0.28692  0.27605  1.0000
  H   H32       1.0  0.62600  0.71308  0.77606  1.0000
  C   C1        1.0  0.77200  0.02715  0.18296  1.0000
  C   C2        1.0  0.72800  0.97285  0.68296  1.0000
  C   C3        1.0  0.22799  0.52715  0.31704  1.0000
  C   C4        1.0  0.27201  0.47286  0.81704  1.0000
  C   C5        1.0  0.56566  0.95291  0.14755  1.0000
  C   C6        1.0  0.93434  0.04709  0.64755  1.0000
  C   C7        1.0  0.43434  0.45291  0.35245  1.0000
  C   C8        1.0  0.06567  0.54709  0.85245  1.0000
  C   C9        1.0  0.51962  0.94217  0.05755  1.0000
  C   C10       1.0  0.98039  0.05783  0.55755  1.0000
  C   C11       1.0  0.48037  0.44217  0.44245  1.0000
  C   C12       1.0  0.01963  0.55784  0.94245  1.0000
  C   C13       1.0  0.18833  0.82704  0.08647  1.0000
  C   C14       1.0  0.31168  0.17296  0.58647  1.0000
  C   C15       1.0  0.81166  0.32704  0.41353  1.0000
  C   C16       1.0  0.68833  0.67296  0.91353  1.0000
  C   C17       1.0  0.23766  0.83240  0.17571  1.0000
  C   C18       1.0  0.26234  0.16760  0.67571  1.0000
  C   C19       1.0  0.76232  0.33240  0.32429  1.0000
  C   C20       1.0  0.73767  0.66760  0.82429  1.0000
  C   C21       1.0  0.67839  0.99184  0.98689  1.0000
  C   C22       1.0  0.82161  0.00817  0.48689  1.0000
  C   C23       1.0  0.32161  0.49183  0.51311  1.0000
  C   C24       1.0  0.17841  0.50816  0.01311  1.0000
  N   N1        1.0  0.42493  0.89496  0.20485  1.0000
  N   N2        1.0  0.07508  0.10504  0.70485  1.0000
  N   N3        1.0  0.57507  0.39495  0.29515  1.0000
  N   N4        1.0  0.92493  0.60504  0.79515  1.0000
  N   N5        1.0  0.33068  0.88011  0.02781  1.0000
  N   N6        1.0  0.16933  0.11989  0.52781  1.0000
  N   N7        1.0  0.66931  0.38011  0.47219  1.0000
  N   N8        1.0  0.83069  0.61989  0.97219  1.0000
  O   O1        1.0  0.24738  0.08084  0.34343  1.0000
  O   O2        1.0  0.25262  0.91916  0.84342  1.0000
  O   O3        1.0  0.75262  0.58084  0.15658  1.0000
  O   O4        1.0  0.74737  0.41916  0.65657  1.0000
  O   O5        1.0  0.30145  0.81110  0.44103  1.0000
  O   O6        1.0  0.19854  0.18890  0.94102  1.0000
  O   O7        1.0  0.69854  0.31110  0.05898  1.0000
  O   O8        1.0  0.80145  0.68890  0.55897  1.0000
  O   O9        1.0  0.70630  0.70764  0.31293  1.0000
  O   O10       1.0  0.79370  0.29236  0.81293  1.0000
  O   O11       1.0  0.29370  0.20763  0.18706  1.0000
  O   O12       1.0  0.20629  0.79237  0.68706  1.0000
  O   O13       1.0  0.82275  0.01467  0.26377  1.0000
  O   O14       1.0  0.67725  0.98533  0.76376  1.0000
  O   O15       1.0  0.17725  0.51467  0.23624  1.0000
  O   O16       1.0  0.32276  0.48534  0.73624  1.0000
  O   O17       1.0  0.88044  0.09483  0.12934  1.0000
  O   O18       1.0  0.61956  0.90517  0.62934  1.0000
  O   O19       1.0  0.11956  0.59483  0.37067  1.0000
  O   O20       1.0  0.38044  0.40517  0.87066  1.0000
  O   O21       1.0  0.62160  0.09349  0.95089  1.0000
  O   O22       1.0  0.87840  0.90652  0.45089  1.0000
  O   O23       1.0  0.37838  0.59348  0.54910  1.0000
  O   O24       1.0  0.12161  0.40652  0.04911  1.0000
  O   O25       1.0  0.84790  0.92601  0.96243  1.0000
  O   O26       1.0  0.65211  0.07401  0.46243  1.0000
  O   O27       1.0  0.15210  0.42600  0.53757  1.0000
  O   O28       1.0  0.34792  0.57399  0.03757  1.0000
