data_image0
_chemical_formula_structural       Cd4H32C24N8O28
_chemical_formula_sum              "Cd4 H32 C24 N8 O28"
_cell_length_a       5.67538
_cell_length_b       10.7704
_cell_length_c       15.514
_cell_angle_alpha    90.0001
_cell_angle_beta     89.9997
_cell_angle_gamma    89.9999

_space_group_name_H-M_alt    "P 1"
_space_group_IT_number       1

loop_
  _space_group_symop_operation_xyz
  'x, y, z'

loop_
  _atom_site_type_symbol
  _atom_site_label
  _atom_site_symmetry_multiplicity
  _atom_site_fract_x
  _atom_site_fract_y
  _atom_site_fract_z
  _atom_site_occupancy
  Cd  Cd1       1.0  0.04746  0.08787  0.15144  1.0000
  Cd  Cd2       1.0  0.45255  0.91213  0.65144  1.0000
  Cd  Cd3       1.0  0.95256  0.58788  0.34856  1.0000
  Cd  Cd4       1.0  0.54745  0.41213  0.84856  1.0000
  H   H1        1.0  0.63536  0.21472  0.28158  1.0000
  H   H2        1.0  0.86466  0.78529  0.78158  1.0000
  H   H3        1.0  0.36464  0.71471  0.21842  1.0000
  H   H4        1.0  0.13535  0.28529  0.71842  1.0000
  H   H5        1.0  0.55331  0.21950  0.44260  1.0000
  H   H6        1.0  0.94670  0.78050  0.94260  1.0000
  H   H7        1.0  0.44669  0.71950  0.05739  1.0000
  H   H8        1.0  0.05331  0.28050  0.55739  1.0000
  H   H9        1.0  0.58120  0.94386  0.17999  1.0000
  H   H10       1.0  0.91881  0.05614  0.67999  1.0000
  H   H11       1.0  0.41880  0.44386  0.32001  1.0000
  H   H12       1.0  0.08120  0.55614  0.82001  1.0000
  H   H13       1.0  0.71260  0.90009  0.09298  1.0000
  H   H14       1.0  0.78741  0.09991  0.59297  1.0000
  H   H15       1.0  0.28740  0.40009  0.40702  1.0000
  H   H16       1.0  0.21259  0.59991  0.90703  1.0000
  H   H17       1.0  0.61846  0.16192  0.06262  1.0000
  H   H18       1.0  0.88153  0.83807  0.56261  1.0000
  H   H19       1.0  0.38156  0.66192  0.43739  1.0000
  H   H20       1.0  0.11846  0.33808  0.93739  1.0000
  H   H21       1.0  0.80692  0.26909  0.04774  1.0000
  H   H22       1.0  0.69307  0.73090  0.54773  1.0000
  H   H23       1.0  0.19309  0.76909  0.45227  1.0000
  H   H24       1.0  0.30693  0.23091  0.95227  1.0000
  H   H25       1.0  0.20621  0.31690  0.24937  1.0000
  H   H26       1.0  0.29378  0.68310  0.74937  1.0000
  H   H27       1.0  0.79379  0.81691  0.25064  1.0000
  H   H28       1.0  0.70621  0.18309  0.75064  1.0000
  H   H29       1.0  0.34835  0.33394  0.16322  1.0000
  H   H30       1.0  0.15165  0.66607  0.66322  1.0000
  H   H31       1.0  0.65166  0.83394  0.33678  1.0000
  H   H32       1.0  0.84835  0.16607  0.83678  1.0000
  C   C1        1.0  0.75060  0.16868  0.32788  1.0000
  C   C2        1.0  0.74941  0.83132  0.82788  1.0000
  C   C3        1.0  0.24939  0.66868  0.17211  1.0000
  C   C4        1.0  0.25060  0.33132  0.67212  1.0000
  C   C5        1.0  0.70687  0.17207  0.41650  1.0000
  C   C6        1.0  0.79313  0.82793  0.91650  1.0000
  C   C7        1.0  0.29313  0.67206  0.08350  1.0000
  C   C8        1.0  0.20687  0.32794  0.58350  1.0000
  C   C9        1.0  0.03843  0.05516  0.44090  1.0000
  C   C10       1.0  0.46156  0.94484  0.94090  1.0000
  C   C11       1.0  0.96156  0.55516  0.05910  1.0000
  C   C12       1.0  0.53844  0.44484  0.55910  1.0000
  C   C13       1.0  0.08328  0.04982  0.35214  1.0000
  C   C14       1.0  0.41673  0.95018  0.85214  1.0000
  C   C15       1.0  0.91671  0.54982  0.14786  1.0000
  C   C16       1.0  0.58328  0.45019  0.64786  1.0000
  C   C17       1.0  0.19362  0.99673  0.50825  1.0000
  C   C18       1.0  0.30639  0.00327  0.00825  1.0000
  C   C19       1.0  0.80638  0.49673  0.99175  1.0000
  C   C20       1.0  0.69364  0.50326  0.49175  1.0000
  C   C21       1.0  0.29802  0.98355  0.31631  1.0000
  C   C22       1.0  0.20198  0.01645  0.81630  1.0000
  C   C23       1.0  0.70196  0.48355  0.18369  1.0000
  C   C24       1.0  0.79801  0.51645  0.68371  1.0000
  N   N1        1.0  0.85027  0.11614  0.47268  1.0000
  N   N2        1.0  0.64971  0.88386  0.97268  1.0000
  N   N3        1.0  0.14972  0.61613  0.02732  1.0000
  N   N4        1.0  0.35029  0.38387  0.52731  1.0000
  N   N5        1.0  0.93666  0.10731  0.29716  1.0000
  N   N6        1.0  0.56335  0.89269  0.79716  1.0000
  N   N7        1.0  0.06335  0.60731  0.20284  1.0000
  N   N8        1.0  0.43664  0.39269  0.70284  1.0000
  O   O1        1.0  0.33905  0.06551  0.54627  1.0000
  O   O2        1.0  0.16094  0.93448  0.04627  1.0000
  O   O3        1.0  0.66094  0.56551  0.95372  1.0000
  O   O4        1.0  0.83906  0.43448  0.45373  1.0000
  O   O5        1.0  0.15283  0.88375  0.52998  1.0000
  O   O6        1.0  0.34716  0.11624  0.02998  1.0000
  O   O7        1.0  0.84715  0.38376  0.97002  1.0000
  O   O8        1.0  0.65287  0.61624  0.47001  1.0000
  O   O9        1.0  0.43735  0.93807  0.37058  1.0000
  O   O10       1.0  0.06264  0.06192  0.87058  1.0000
  O   O11       1.0  0.56264  0.43808  0.12943  1.0000
  O   O12       1.0  0.93737  0.56193  0.62942  1.0000
  O   O13       1.0  0.32331  0.98098  0.23419  1.0000
  O   O14       1.0  0.17670  0.01902  0.73419  1.0000
  O   O15       1.0  0.67668  0.48099  0.26581  1.0000
  O   O16       1.0  0.82331  0.51902  0.76581  1.0000
  O   O17       1.0  0.73714  0.91989  0.15511  1.0000
  O   O18       1.0  0.76286  0.08011  0.65510  1.0000
  O   O19       1.0  0.26286  0.41990  0.34489  1.0000
  O   O20       1.0  0.23713  0.58011  0.84489  1.0000
  O   O21       1.0  0.76825  0.19703  0.08474  1.0000
  O   O22       1.0  0.73173  0.80297  0.58472  1.0000
  O   O23       1.0  0.23175  0.69701  0.41528  1.0000
  O   O24       1.0  0.26825  0.30297  0.91527  1.0000
  O   O25       1.0  0.22147  0.28321  0.19055  1.0000
  O   O26       1.0  0.27851  0.71679  0.69055  1.0000
  O   O27       1.0  0.77854  0.78322  0.30945  1.0000
  O   O28       1.0  0.72147  0.21678  0.80945  1.0000
