data_image0
_chemical_formula_structural       Cd4H32C24N8O28
_chemical_formula_sum              "Cd4 H32 C24 N8 O28"
_cell_length_a       5.39981
_cell_length_b       10.9281
_cell_length_c       16.1525
_cell_angle_alpha    89.999
_cell_angle_beta     89.9993
_cell_angle_gamma    94.986

_space_group_name_H-M_alt    "P 1"
_space_group_IT_number       1

loop_
  _space_group_symop_operation_xyz
  'x, y, z'

loop_
  _atom_site_type_symbol
  _atom_site_label
  _atom_site_symmetry_multiplicity
  _atom_site_fract_x
  _atom_site_fract_y
  _atom_site_fract_z
  _atom_site_occupancy
  Cd  Cd1       1.0  0.91788  0.68268  0.63226  1.0000
  Cd  Cd2       1.0  0.58213  0.81732  0.13226  1.0000
  Cd  Cd3       1.0  0.08211  0.31731  0.36774  1.0000
  Cd  Cd4       1.0  0.41790  0.18269  0.86774  1.0000
  H   H1        1.0  0.59990  0.45190  0.60514  1.0000
  H   H2        1.0  0.90010  0.04810  0.10515  1.0000
  H   H3        1.0  0.40008  0.54810  0.39486  1.0000
  H   H4        1.0  0.09992  0.95189  0.89486  1.0000
  H   H5        1.0  0.81708  0.42380  0.66419  1.0000
  H   H6        1.0  0.68292  0.07620  0.16420  1.0000
  H   H7        1.0  0.18292  0.57619  0.33579  1.0000
  H   H8        1.0  0.31708  0.92382  0.83579  1.0000
  H   H9        1.0  0.40158  0.83445  0.65313  1.0000
  H   H10       1.0  0.09843  0.66556  0.15313  1.0000
  H   H11       1.0  0.59839  0.16556  0.34687  1.0000
  H   H12       1.0  0.90160  0.33445  0.84687  1.0000
  H   H13       1.0  0.29685  0.86664  0.56349  1.0000
  H   H14       1.0  0.20315  0.63336  0.06349  1.0000
  H   H15       1.0  0.70313  0.13336  0.43651  1.0000
  H   H16       1.0  0.79687  0.36664  0.93651  1.0000
  H   H17       1.0  0.32249  0.58237  0.54083  1.0000
  H   H18       1.0  0.17751  0.91764  0.04083  1.0000
  H   H19       1.0  0.67753  0.41764  0.45919  1.0000
  H   H20       1.0  0.82245  0.08235  0.95919  1.0000
  H   H21       1.0  0.16191  0.46946  0.58394  1.0000
  H   H22       1.0  0.33808  0.03054  0.08395  1.0000
  H   H23       1.0  0.83807  0.53055  0.41605  1.0000
  H   H24       1.0  0.66194  0.96945  0.91603  1.0000
  H   H25       1.0  0.40941  0.50523  0.89960  1.0000
  H   H26       1.0  0.09060  0.99477  0.39960  1.0000
  H   H27       1.0  0.59059  0.49477  0.10040  1.0000
  H   H28       1.0  0.90943  0.00524  0.60040  1.0000
  H   H29       1.0  0.33019  0.53817  0.74669  1.0000
  H   H30       1.0  0.16982  0.96183  0.24669  1.0000
  H   H31       1.0  0.66980  0.46184  0.25330  1.0000
  H   H32       1.0  0.83022  0.03819  0.75330  1.0000
  C   C1        1.0  0.90802  0.70363  0.82615  1.0000
  C   C2        1.0  0.59199  0.79637  0.32615  1.0000
  C   C3        1.0  0.09198  0.29637  0.17385  1.0000
  C   C4        1.0  0.40802  0.20362  0.67384  1.0000
  C   C5        1.0  0.96434  0.69006  0.91031  1.0000
  C   C6        1.0  0.53566  0.80994  0.41032  1.0000
  C   C7        1.0  0.03565  0.30994  0.08968  1.0000
  C   C8        1.0  0.46434  0.19006  0.58968  1.0000
  C   C9        1.0  0.26766  0.56352  0.87875  1.0000
  C   C10       1.0  0.23233  0.93648  0.37875  1.0000
  C   C11       1.0  0.73233  0.43648  0.12125  1.0000
  C   C12       1.0  0.76768  0.06353  0.62125  1.0000
  C   C13       1.0  0.22101  0.57949  0.79435  1.0000
  C   C14       1.0  0.27899  0.92051  0.29435  1.0000
  C   C15       1.0  0.77898  0.42052  0.20564  1.0000
  C   C16       1.0  0.72103  0.07950  0.70564  1.0000
  C   C17       1.0  0.69801  0.77768  0.79607  1.0000
  C   C18       1.0  0.80200  0.72233  0.29607  1.0000
  C   C19       1.0  0.30199  0.22234  0.20393  1.0000
  C   C20       1.0  0.19800  0.27765  0.70393  1.0000
  C   C21       1.0  0.85070  0.75968  0.97846  1.0000
  C   C22       1.0  0.64931  0.74032  0.47847  1.0000
  C   C23       1.0  0.14930  0.24032  0.02153  1.0000
  C   C24       1.0  0.35067  0.25967  0.52153  1.0000
  N   N1        1.0  0.04164  0.64817  0.76951  1.0000
  N   N2        1.0  0.45836  0.85183  0.26951  1.0000
  N   N3        1.0  0.95835  0.35183  0.23048  1.0000
  N   N4        1.0  0.54167  0.14818  0.73048  1.0000
  N   N5        1.0  0.14046  0.61922  0.93659  1.0000
  N   N6        1.0  0.35954  0.88078  0.43659  1.0000
  N   N7        1.0  0.85953  0.38078  0.06341  1.0000
  N   N8        1.0  0.64046  0.11922  0.56340  1.0000
  O   O1        1.0  0.65850  0.78206  0.71826  1.0000
  O   O2        1.0  0.84152  0.71795  0.21826  1.0000
  O   O3        1.0  0.34150  0.21795  0.28174  1.0000
  O   O4        1.0  0.15850  0.28205  0.78174  1.0000
  O   O5        1.0  0.57321  0.82776  0.85052  1.0000
  O   O6        1.0  0.92680  0.67226  0.35052  1.0000
  O   O7        1.0  0.42682  0.17227  0.14947  1.0000
  O   O8        1.0  0.07317  0.32771  0.64947  1.0000
  O   O9        1.0  0.70036  0.69998  0.02651  1.0000
  O   O10       1.0  0.79963  0.80002  0.52652  1.0000
  O   O11       1.0  0.29963  0.30004  0.97348  1.0000
  O   O12       1.0  0.20034  0.19994  0.47348  1.0000
  O   O13       1.0  0.93234  0.87158  0.98635  1.0000
  O   O14       1.0  0.56769  0.62841  0.48635  1.0000
  O   O15       1.0  0.06769  0.12842  0.01364  1.0000
  O   O16       1.0  0.43227  0.37157  0.51362  1.0000
  O   O17       1.0  0.68733  0.48183  0.65598  1.0000
  O   O18       1.0  0.81267  0.01817  0.15599  1.0000
  O   O19       1.0  0.31268  0.51816  0.34401  1.0000
  O   O20       1.0  0.18731  0.98184  0.84401  1.0000
  O   O21       1.0  0.25004  0.84953  0.62182  1.0000
  O   O22       1.0  0.24997  0.65048  0.12182  1.0000
  O   O23       1.0  0.74994  0.15048  0.37818  1.0000
  O   O24       1.0  0.75006  0.34953  0.87818  1.0000
  O   O25       1.0  0.17899  0.55896  0.57752  1.0000
  O   O26       1.0  0.32101  0.94103  0.07753  1.0000
  O   O27       1.0  0.82121  0.44105  0.42256  1.0000
  O   O28       1.0  0.67878  0.05894  0.92256  1.0000
