data_image0
_chemical_formula_structural       Cd2H28C32Cl8O16
_chemical_formula_sum              "Cd2 H28 C32 Cl8 O16"
_cell_length_a       7.39539
_cell_length_b       8.2274
_cell_length_c       16.8834
_cell_angle_alpha    88.9626
_cell_angle_beta     89.9998
_cell_angle_gamma    90.0006

_space_group_name_H-M_alt    "P 1"
_space_group_IT_number       1

loop_
  _space_group_symop_operation_xyz
  'x, y, z'

loop_
  _atom_site_type_symbol
  _atom_site_label
  _atom_site_symmetry_multiplicity
  _atom_site_fract_x
  _atom_site_fract_y
  _atom_site_fract_z
  _atom_site_occupancy
  Cd  Cd1       1.0  0.49998  0.50000  0.50000  1.0000
  Cd  Cd2       1.0  0.99998  0.99999  0.50001  1.0000
  H   H1        1.0  0.31145  0.26230  0.43187  1.0000
  H   H2        1.0  0.81143  0.23767  0.56814  1.0000
  H   H3        1.0  0.68852  0.73768  0.56815  1.0000
  H   H4        1.0  0.18851  0.76233  0.43186  1.0000
  H   H5        1.0  0.28682  0.38653  0.35939  1.0000
  H   H6        1.0  0.78681  0.11344  0.64062  1.0000
  H   H7        1.0  0.71315  0.61343  0.64062  1.0000
  H   H8        1.0  0.21316  0.88656  0.35939  1.0000
  H   H9        1.0  0.55368  0.08978  0.39674  1.0000
  H   H10       1.0  0.05363  0.41022  0.60325  1.0000
  H   H11       1.0  0.44635  0.91023  0.60324  1.0000
  H   H12       1.0  0.94633  0.58978  0.39675  1.0000
  H   H13       1.0  0.74898  0.02205  0.34700  1.0000
  H   H14       1.0  0.24897  0.47794  0.65300  1.0000
  H   H15       1.0  0.25103  0.97793  0.65300  1.0000
  H   H16       1.0  0.75105  0.52208  0.34700  1.0000
  H   H17       1.0  0.39082  0.69659  0.07330  1.0000
  H   H18       1.0  0.89081  0.80343  0.92670  1.0000
  H   H19       1.0  0.60920  0.30341  0.92669  1.0000
  H   H20       1.0  0.10921  0.19661  0.07332  1.0000
  H   H21       1.0  0.93364  0.67412  0.16604  1.0000
  H   H22       1.0  0.43360  0.82590  0.83395  1.0000
  H   H23       1.0  0.06641  0.32589  0.83393  1.0000
  H   H24       1.0  0.56644  0.17413  0.16605  1.0000
  H   H25       1.0  0.84028  0.83257  0.28116  1.0000
  H   H26       1.0  0.34027  0.66744  0.71882  1.0000
  H   H27       1.0  0.15977  0.16744  0.71882  1.0000
  H   H28       1.0  0.65977  0.33256  0.28118  1.0000
  C   C1        1.0  0.62605  0.84444  0.42702  1.0000
  C   C2        1.0  0.12604  0.65553  0.57297  1.0000
  C   C3        1.0  0.37393  0.15555  0.57298  1.0000
  C   C4        1.0  0.87393  0.34446  0.42703  1.0000
  C   C5        1.0  0.61335  0.98485  0.36711  1.0000
  C   C6        1.0  0.11335  0.51512  0.63290  1.0000
  C   C7        1.0  0.38666  0.01512  0.63289  1.0000
  C   C8        1.0  0.88667  0.48487  0.36712  1.0000
  C   C9        1.0  0.56090  0.85639  0.24334  1.0000
  C   C10       1.0  0.06089  0.64355  0.75666  1.0000
  C   C11       1.0  0.43910  0.14357  0.75664  1.0000
  C   C12       1.0  0.93912  0.35643  0.24337  1.0000
  C   C13       1.0  0.43687  0.81548  0.18389  1.0000
  C   C14       1.0  0.93686  0.68451  0.81611  1.0000
  C   C15       1.0  0.56314  0.18454  0.81609  1.0000
  C   C16       1.0  0.06314  0.31549  0.18391  1.0000
  C   C17       1.0  0.48902  0.72471  0.11894  1.0000
  C   C18       1.0  0.98899  0.77534  0.88104  1.0000
  C   C19       1.0  0.51102  0.27532  0.88104  1.0000
  C   C20       1.0  0.01102  0.22473  0.11895  1.0000
  C   C21       1.0  0.66848  0.67431  0.11316  1.0000
  C   C22       1.0  0.16844  0.82574  0.88682  1.0000
  C   C23       1.0  0.33152  0.32570  0.88684  1.0000
  C   C24       1.0  0.83153  0.17432  0.11316  1.0000
  C   C25       1.0  0.79367  0.71271  0.17150  1.0000
  C   C26       1.0  0.29363  0.78727  0.82849  1.0000
  C   C27       1.0  0.20636  0.28723  0.82850  1.0000
  C   C28       1.0  0.70638  0.21275  0.17152  1.0000
  C   C29       1.0  0.73977  0.80317  0.23650  1.0000
  C   C30       1.0  0.23977  0.69679  0.76349  1.0000
  C   C31       1.0  0.26025  0.19678  0.76350  1.0000
  C   C32       1.0  0.76027  0.30319  0.23652  1.0000
  Cl  Cl1       1.0  0.21666  0.88364  0.19108  1.0000
  Cl  Cl2       1.0  0.71666  0.61636  0.80892  1.0000
  Cl  Cl3       1.0  0.78335  0.11633  0.80892  1.0000
  Cl  Cl4       1.0  0.28334  0.38369  0.19109  1.0000
  Cl  Cl5       1.0  0.73777  0.56662  0.03134  1.0000
  Cl  Cl6       1.0  0.23773  0.93342  0.96864  1.0000
  Cl  Cl7       1.0  0.26225  0.43340  0.96864  1.0000
  Cl  Cl8       1.0  0.76228  0.06661  0.03135  1.0000
  O   O1        1.0  0.37567  0.34371  0.39736  1.0000
  O   O2        1.0  0.87566  0.15626  0.60265  1.0000
  O   O3        1.0  0.62428  0.65625  0.60264  1.0000
  O   O4        1.0  0.12428  0.84374  0.39736  1.0000
  O   O5        1.0  0.53651  0.71705  0.41414  1.0000
  O   O6        1.0  0.03652  0.78295  0.58587  1.0000
  O   O7        1.0  0.46345  0.28295  0.58586  1.0000
  O   O8        1.0  0.96346  0.21702  0.41416  1.0000
  O   O9        1.0  0.72326  0.86867  0.48842  1.0000
  O   O10       1.0  0.22325  0.63130  0.51158  1.0000
  O   O11       1.0  0.27671  0.13130  0.51158  1.0000
  O   O12       1.0  0.77669  0.36872  0.48841  1.0000
  O   O13       1.0  0.49589  0.95157  0.30283  1.0000
  O   O14       1.0  0.99589  0.54842  0.69717  1.0000
  O   O15       1.0  0.50412  0.04842  0.69715  1.0000
  O   O16       1.0  0.00415  0.45160  0.30285  1.0000
