data_image0
_chemical_formula_structural       Yb2H20C12O16
_chemical_formula_sum              "Yb2 H20 C12 O16"
_cell_length_a       6.56218
_cell_length_b       9.44377
_cell_length_c       10.2475
_cell_angle_alpha    81.5728
_cell_angle_beta     89.4676
_cell_angle_gamma    69.5527

_space_group_name_H-M_alt    "P 1"
_space_group_IT_number       1

loop_
  _space_group_symop_operation_xyz
  'x, y, z'

loop_
  _atom_site_type_symbol
  _atom_site_label
  _atom_site_symmetry_multiplicity
  _atom_site_fract_x
  _atom_site_fract_y
  _atom_site_fract_z
  _atom_site_occupancy
  Yb  Yb1       1.0  0.38128  0.11545  0.32403  1.0000
  Yb  Yb2       1.0  0.61872  0.88455  0.67597  1.0000
  H   H1        1.0  0.48530  0.21526  0.05457  1.0000
  H   H2        1.0  0.51470  0.78474  0.94543  1.0000
  H   H3        1.0  0.51948  0.32202  0.15083  1.0000
  H   H4        1.0  0.48052  0.67798  0.84917  1.0000
  H   H5        1.0  0.83047  0.94523  0.38718  1.0000
  H   H6        1.0  0.16953  0.05477  0.61282  1.0000
  H   H7        1.0  0.85426  0.06294  0.26604  1.0000
  H   H8        1.0  0.14574  0.93706  0.73397  1.0000
  H   H9        1.0  0.91145  0.43212  0.58250  1.0000
  H   H10       1.0  0.08855  0.56788  0.41750  1.0000
  H   H11       1.0  0.73061  0.48032  0.44451  1.0000
  H   H12       1.0  0.26940  0.51967  0.55549  1.0000
  H   H13       1.0  0.81756  0.19536  0.65766  1.0000
  H   H14       1.0  0.18243  0.80464  0.34234  1.0000
  H   H15       1.0  0.59105  0.36570  0.64963  1.0000
  H   H16       1.0  0.40895  0.63430  0.35037  1.0000
  H   H17       1.0  0.17416  0.83934  0.03215  1.0000
  H   H18       1.0  0.82583  0.16067  0.96785  1.0000
  H   H19       1.0  0.20767  0.99437  0.92553  1.0000
  H   H20       1.0  0.79232  0.00563  0.07447  1.0000
  C   C1        1.0  0.01573  0.28842  0.43492  1.0000
  C   C2        1.0  0.98427  0.71158  0.56508  1.0000
  C   C3        1.0  0.83757  0.38303  0.51315  1.0000
  C   C4        1.0  0.16243  0.61697  0.48685  1.0000
  C   C5        1.0  0.71057  0.29283  0.58897  1.0000
  C   C6        1.0  0.28943  0.70717  0.41103  1.0000
  C   C7        1.0  0.58867  0.23384  0.49921  1.0000
  C   C8        1.0  0.41133  0.76616  0.50079  1.0000
  C   C9        1.0  0.21010  0.01474  0.12671  1.0000
  C   C10       1.0  0.78990  0.98526  0.87329  1.0000
  C   C11       1.0  0.12268  0.96502  0.01270  1.0000
  C   C12       1.0  0.87731  0.03498  0.98730  1.0000
  O   O1        1.0  0.09575  0.35038  0.33977  1.0000
  O   O2        1.0  0.90426  0.64962  0.66024  1.0000
  O   O3        1.0  0.09398  0.14145  0.46773  1.0000
  O   O4        1.0  0.90602  0.85855  0.53227  1.0000
  O   O5        1.0  0.54112  0.29521  0.38013  1.0000
  O   O6        1.0  0.45889  0.70478  0.61987  1.0000
  O   O7        1.0  0.52913  0.11965  0.54473  1.0000
  O   O8        1.0  0.47086  0.88035  0.45527  1.0000
  O   O9        1.0  0.41524  0.96784  0.14991  1.0000
  O   O10       1.0  0.58476  0.03216  0.85009  1.0000
  O   O11       1.0  0.08222  0.10475  0.19916  1.0000
  O   O12       1.0  0.91778  0.89525  0.80084  1.0000
  O   O13       1.0  0.42321  0.27003  0.12752  1.0000
  O   O14       1.0  0.57679  0.72997  0.87248  1.0000
  O   O15       1.0  0.75609  0.00857  0.30154  1.0000
  O   O16       1.0  0.24391  0.99143  0.69846  1.0000
