data_image0
_chemical_formula_structural       Cu2H38C44N10O6
_chemical_formula_sum              "Cu2 H38 C44 N10 O6"
_cell_length_a       9.55309
_cell_length_b       10.2307
_cell_length_c       10.8875
_cell_angle_alpha    107.98
_cell_angle_beta     90.0005
_cell_angle_gamma    89.9999

_space_group_name_H-M_alt    "P 1"
_space_group_IT_number       1

loop_
  _space_group_symop_operation_xyz
  'x, y, z'

loop_
  _atom_site_type_symbol
  _atom_site_label
  _atom_site_symmetry_multiplicity
  _atom_site_fract_x
  _atom_site_fract_y
  _atom_site_fract_z
  _atom_site_occupancy
  Cu  Cu1       1.0  0.84477  0.32025  0.31448  1.0000
  Cu  Cu2       1.0  0.34478  0.67976  0.68552  1.0000
  H   H1        1.0  0.11191  0.93505  0.46231  1.0000
  H   H2        1.0  0.61192  0.06494  0.53769  1.0000
  H   H3        1.0  0.13284  0.65524  0.47468  1.0000
  H   H4        1.0  0.63284  0.34476  0.52533  1.0000
  H   H5        1.0  0.01986  0.54640  0.35351  1.0000
  H   H6        1.0  0.51987  0.45361  0.64650  1.0000
  H   H7        1.0  0.70395  0.13026  0.96843  1.0000
  H   H8        1.0  0.20396  0.86975  0.03157  1.0000
  H   H9        1.0  0.73397  0.24265  0.81892  1.0000
  H   H10       1.0  0.23397  0.75736  0.18108  1.0000
  H   H11       1.0  0.82679  0.43260  0.74489  1.0000
  H   H12       1.0  0.32678  0.56740  0.25510  1.0000
  H   H13       1.0  0.97298  0.61608  0.89629  1.0000
  H   H14       1.0  0.47297  0.38392  0.10371  1.0000
  H   H15       1.0  0.01790  0.61237  0.11879  1.0000
  H   H16       1.0  0.51790  0.38763  0.88121  1.0000
  H   H17       1.0  0.60673  0.03989  0.12654  1.0000
  H   H18       1.0  0.10674  0.96012  0.87346  1.0000
  H   H19       1.0  0.75014  0.85509  0.13892  1.0000
  H   H20       1.0  0.25015  0.14492  0.86108  1.0000
  H   H21       1.0  0.83361  0.93307  0.03489  1.0000
  H   H22       1.0  0.33362  0.06694  0.96511  1.0000
  H   H23       1.0  0.89197  0.83361  0.34554  1.0000
  H   H24       1.0  0.39198  0.16640  0.65446  1.0000
  H   H25       1.0  0.34795  0.08501  0.41904  1.0000
  H   H26       1.0  0.84796  0.91498  0.58096  1.0000
  H   H27       1.0  0.40838  0.25162  0.30249  1.0000
  H   H28       1.0  0.90838  0.74836  0.69752  1.0000
  H   H29       1.0  0.25082  0.28368  0.13206  1.0000
  H   H30       1.0  0.75081  0.71632  0.86795  1.0000
  H   H31       1.0  0.03206  0.15131  0.07355  1.0000
  H   H32       1.0  0.53206  0.84869  0.92645  1.0000
  H   H33       1.0  0.93098  0.17946  0.48708  1.0000
  H   H34       1.0  0.43098  0.82055  0.51292  1.0000
  H   H35       1.0  0.09619  0.20037  0.67078  1.0000
  H   H36       1.0  0.59618  0.79963  0.32922  1.0000
  H   H37       1.0  0.24267  0.41892  0.74364  1.0000
  H   H38       1.0  0.74266  0.58108  0.25637  1.0000
  C   C1        1.0  0.75785  0.20928  0.04630  1.0000
  C   C2        1.0  0.25785  0.79073  0.95370  1.0000
  C   C3        1.0  0.81856  0.32112  0.01159  1.0000
  C   C4        1.0  0.31857  0.67888  0.98842  1.0000
  C   C5        1.0  0.79527  0.32534  0.88428  1.0000
  C   C6        1.0  0.29527  0.67467  0.11572  1.0000
  C   C7        1.0  0.84751  0.43026  0.84253  1.0000
  C   C8        1.0  0.34750  0.56974  0.15747  1.0000
  C   C9        1.0  0.92861  0.53364  0.92819  1.0000
  C   C10       1.0  0.42860  0.46636  0.07181  1.0000
  C   C11       1.0  0.95495  0.53220  0.05285  1.0000
  C   C12       1.0  0.45494  0.46780  0.94715  1.0000
  C   C13       1.0  0.90093  0.42702  0.09919  1.0000
  C   C14       1.0  0.40093  0.57299  0.90082  1.0000
  C   C15       1.0  0.70502  0.07038  0.18084  1.0000
  C   C16       1.0  0.20503  0.92963  0.81916  1.0000
  C   C17       1.0  0.80875  0.94688  0.13677  1.0000
  C   C18       1.0  0.30876  0.05313  0.86323  1.0000
  C   C19       1.0  0.93804  0.96132  0.21703  1.0000
  C   C20       1.0  0.43804  0.03868  0.78296  1.0000
  C   C21       1.0  0.96045  0.90107  0.31300  1.0000
  C   C22       1.0  0.46046  0.09892  0.68699  1.0000
  C   C23       1.0  0.15146  0.02903  0.31547  1.0000
  C   C24       1.0  0.65146  0.97094  0.68452  1.0000
  C   C25       1.0  0.27803  0.10045  0.34580  1.0000
  C   C26       1.0  0.77803  0.89952  0.65419  1.0000
  C   C27       1.0  0.31186  0.19204  0.27874  1.0000
  C   C28       1.0  0.81186  0.80795  0.72126  1.0000
  C   C29       1.0  0.22292  0.20973  0.18166  1.0000
  C   C30       1.0  0.72292  0.79027  0.81834  1.0000
  C   C31       1.0  0.09900  0.13583  0.14888  1.0000
  C   C32       1.0  0.59899  0.86416  0.85112  1.0000
  C   C33       1.0  0.05981  0.04484  0.21706  1.0000
  C   C34       1.0  0.55981  0.95514  0.78293  1.0000
  C   C35       1.0  0.67502  0.10074  0.32465  1.0000
  C   C36       1.0  0.17502  0.89927  0.67534  1.0000
  C   C37       1.0  0.00013  0.26758  0.52192  1.0000
  C   C38       1.0  0.50012  0.73242  0.47808  1.0000
  C   C39       1.0  0.09051  0.28024  0.62434  1.0000
  C   C40       1.0  0.59051  0.71977  0.37566  1.0000
  C   C41       1.0  0.17040  0.39932  0.66263  1.0000
  C   C42       1.0  0.67040  0.60068  0.33737  1.0000
  C   C43       1.0  0.07581  0.47549  0.50220  1.0000
  C   C44       1.0  0.57581  0.52452  0.49780  1.0000
  N   N1        1.0  0.76260  0.19389  0.16014  1.0000
  N   N2        1.0  0.26261  0.80611  0.83986  1.0000
  N   N3        1.0  0.08936  0.93849  0.37028  1.0000
  N   N4        1.0  0.58937  0.06150  0.62972  1.0000
  N   N5        1.0  0.98852  0.36391  0.46181  1.0000
  N   N6        1.0  0.48852  0.63610  0.53819  1.0000
  N   N7        1.0  0.16576  0.49564  0.60328  1.0000
  N   N8        1.0  0.66576  0.50437  0.39672  1.0000
  N   N9        1.0  0.07134  0.56997  0.44034  1.0000
  N   N10       1.0  0.57134  0.43004  0.55967  1.0000
  O   O1        1.0  0.92795  0.43346  0.21951  1.0000
  O   O2        1.0  0.42796  0.56654  0.78049  1.0000
  O   O3        1.0  0.60204  0.02035  0.36331  1.0000
  O   O4        1.0  0.10205  0.97966  0.63669  1.0000
  O   O5        1.0  0.73345  0.20958  0.40190  1.0000
  O   O6        1.0  0.23345  0.79042  0.59810  1.0000
