data_image0
_chemical_formula_structural       Ag4H6C16Br2N4O8F12
_chemical_formula_sum              "Ag4 H6 C16 Br2 N4 O8 F12"
_cell_length_a       7.75317
_cell_length_b       8.3733
_cell_length_c       11.6043
_cell_angle_alpha    70.6539
_cell_angle_beta     76.1797
_cell_angle_gamma    79.6004

_space_group_name_H-M_alt    "P 1"
_space_group_IT_number       1

loop_
  _space_group_symop_operation_xyz
  'x, y, z'

loop_
  _atom_site_type_symbol
  _atom_site_label
  _atom_site_symmetry_multiplicity
  _atom_site_fract_x
  _atom_site_fract_y
  _atom_site_fract_z
  _atom_site_occupancy
  Ag  Ag1       1.0  0.58242  0.83557  0.55534  1.0000
  Ag  Ag2       1.0  0.41759  0.16443  0.44466  1.0000
  Ag  Ag3       1.0  0.83277  0.05425  0.57970  1.0000
  Ag  Ag4       1.0  0.16723  0.94575  0.42030  1.0000
  H   H1        1.0  0.69869  0.45058  0.51302  1.0000
  H   H2        1.0  0.30131  0.54942  0.48698  1.0000
  H   H3        1.0  0.57181  0.07540  0.85003  1.0000
  H   H4        1.0  0.42819  0.92460  0.14997  1.0000
  H   H5        1.0  0.40970  0.61008  0.81477  1.0000
  H   H6        1.0  0.59030  0.38992  0.18523  1.0000
  C   C1        1.0  0.63346  0.41837  0.61088  1.0000
  C   C2        1.0  0.36654  0.58163  0.38912  1.0000
  C   C3        1.0  0.56454  0.21031  0.79731  1.0000
  C   C4        1.0  0.43546  0.78969  0.20270  1.0000
  C   C5        1.0  0.48075  0.33580  0.85293  1.0000
  C   C6        1.0  0.51925  0.66419  0.14707  1.0000
  C   C7        1.0  0.47461  0.50520  0.77832  1.0000
  C   C8        1.0  0.52539  0.49480  0.22168  1.0000
  C   C9        1.0  0.74453  0.00359  0.28956  1.0000
  C   C10       1.0  0.25547  0.99641  0.71043  1.0000
  C   C11       1.0  0.87823  0.02306  0.16371  1.0000
  C   C12       1.0  0.12177  0.97694  0.83629  1.0000
  C   C13       1.0  0.99825  0.68839  0.67910  1.0000
  C   C14       1.0  0.00175  0.31161  0.32090  1.0000
  C   C15       1.0  0.01104  0.50222  0.76792  1.0000
  C   C16       1.0  0.98896  0.49778  0.23208  1.0000
  Br  Br1       1.0  0.38228  0.28044  0.02444  1.0000
  Br  Br2       1.0  0.61771  0.71956  0.97556  1.0000
  N   N1        1.0  0.55229  0.54569  0.65717  1.0000
  N   N2        1.0  0.44772  0.45431  0.34283  1.0000
  N   N3        1.0  0.64099  0.25250  0.67588  1.0000
  N   N4        1.0  0.35901  0.74750  0.32412  1.0000
  O   O1        1.0  0.79453  0.89561  0.38427  1.0000
  O   O2        1.0  0.20547  0.10439  0.61573  1.0000
  O   O3        1.0  0.59913  0.09759  0.27987  1.0000
  O   O4        1.0  0.40088  0.90241  0.72013  1.0000
  O   O5        1.0  0.85267  0.77956  0.70022  1.0000
  O   O6        1.0  0.14733  0.22044  0.29978  1.0000
  O   O7        1.0  0.13754  0.72535  0.59878  1.0000
  O   O8        1.0  0.86246  0.27464  0.40122  1.0000
  F   F1        1.0  0.82091  0.94848  0.09331  1.0000
  F   F2        1.0  0.17909  0.05152  0.90669  1.0000
  F   F3        1.0  0.04575  0.94912  0.17811  1.0000
  F   F4        1.0  0.95425  0.05088  0.82189  1.0000
  F   F5        1.0  0.88940  0.18977  0.09792  1.0000
  F   F6        1.0  0.11060  0.81023  0.90208  1.0000
  F   F7        1.0  0.06490  0.49625  0.87261  1.0000
  F   F8        1.0  0.93509  0.50375  0.12740  1.0000
  F   F9        1.0  0.13131  0.39723  0.71194  1.0000
  F   F10       1.0  0.86868  0.60277  0.28806  1.0000
  F   F11       1.0  0.85246  0.43568  0.80428  1.0000
  F   F12       1.0  0.14753  0.56432  0.19572  1.0000
