data_image0
_chemical_formula_structural       Mn4H28C28N8Cl4O16
_chemical_formula_sum              "Mn4 H28 C28 N8 Cl4 O16"
_cell_length_a       7.72578
_cell_length_b       8.18253
_cell_length_c       16.3509
_cell_angle_alpha    90.0003
_cell_angle_beta     89.9997
_cell_angle_gamma    114.994

_space_group_name_H-M_alt    "P 1"
_space_group_IT_number       1

loop_
  _space_group_symop_operation_xyz
  'x, y, z'

loop_
  _atom_site_type_symbol
  _atom_site_label
  _atom_site_symmetry_multiplicity
  _atom_site_fract_x
  _atom_site_fract_y
  _atom_site_fract_z
  _atom_site_occupancy
  Mn  Mn1       1.0  0.24895  0.52318  0.74732  1.0000
  Mn  Mn2       1.0  0.75096  0.96833  0.24338  1.0000
  Mn  Mn3       1.0  0.75096  0.46834  0.25662  1.0000
  Mn  Mn4       1.0  0.24896  0.02318  0.75268  1.0000
  H   H1        1.0  0.83597  0.46163  0.64237  1.0000
  H   H2        1.0  0.16432  0.03872  0.14216  1.0000
  H   H3        1.0  0.16432  0.53872  0.35783  1.0000
  H   H4        1.0  0.83597  0.96163  0.85763  1.0000
  H   H5        1.0  0.68991  0.36798  0.55553  1.0000
  H   H6        1.0  0.31100  0.13248  0.05552  1.0000
  H   H7        1.0  0.31099  0.63248  0.44447  1.0000
  H   H8        1.0  0.68991  0.86798  0.94447  1.0000
  H   H9        1.0  0.74763  0.76833  0.69373  1.0000
  H   H10       1.0  0.25192  0.73174  0.19384  1.0000
  H   H11       1.0  0.25192  0.23174  0.30616  1.0000
  H   H12       1.0  0.74765  0.26833  0.80627  1.0000
  H   H13       1.0  0.73161  0.58788  0.44909  1.0000
  H   H14       1.0  0.26916  0.91220  0.94907  1.0000
  H   H15       1.0  0.26915  0.41220  0.55093  1.0000
  H   H16       1.0  0.73160  0.08788  0.05091  1.0000
  H   H17       1.0  0.76941  0.94449  0.44784  1.0000
  H   H18       1.0  0.23032  0.55550  0.94798  1.0000
  H   H19       1.0  0.23031  0.05550  0.55202  1.0000
  H   H20       1.0  0.76940  0.44449  0.05216  1.0000
  H   H21       1.0  0.66333  0.07497  0.64015  1.0000
  H   H22       1.0  0.33625  0.42469  0.13992  1.0000
  H   H23       1.0  0.33624  0.92468  0.36008  1.0000
  H   H24       1.0  0.66333  0.57498  0.85986  1.0000
  H   H25       1.0  0.81032  0.16644  0.55311  1.0000
  H   H26       1.0  0.18812  0.33329  0.05319  1.0000
  H   H27       1.0  0.18811  0.83329  0.44681  1.0000
  H   H28       1.0  0.81032  0.66645  0.94690  1.0000
  C   C1        1.0  0.53123  0.36860  0.66380  1.0000
  C   C2        1.0  0.46883  0.13205  0.16412  1.0000
  C   C3        1.0  0.46883  0.63206  0.33588  1.0000
  C   C4        1.0  0.53123  0.86859  0.83620  1.0000
  C   C5        1.0  0.70897  0.45434  0.60921  1.0000
  C   C6        1.0  0.29162  0.04611  0.10923  1.0000
  C   C7        1.0  0.29162  0.54611  0.39077  1.0000
  C   C8        1.0  0.70897  0.95435  0.89078  1.0000
  C   C9        1.0  0.74875  0.76786  0.62750  1.0000
  C   C10       1.0  0.25121  0.73232  0.12760  1.0000
  C   C11       1.0  0.25122  0.23232  0.37240  1.0000
  C   C12       1.0  0.74876  0.26786  0.87250  1.0000
  C   C13       1.0  0.74245  0.68018  0.49843  1.0000
  C   C14       1.0  0.25807  0.82010  0.99851  1.0000
  C   C15       1.0  0.25806  0.32009  0.50149  1.0000
  C   C16       1.0  0.74245  0.18018  0.00157  1.0000
  C   C17       1.0  0.75827  0.85327  0.49778  1.0000
  C   C18       1.0  0.24156  0.64677  0.99790  1.0000
  C   C19       1.0  0.24156  0.14679  0.50209  1.0000
  C   C20       1.0  0.75826  0.35326  0.00222  1.0000
  C   C21       1.0  0.79040  0.08132  0.60733  1.0000
  C   C22       1.0  0.20889  0.41858  0.10740  1.0000
  C   C23       1.0  0.20888  0.91859  0.39260  1.0000
  C   C24       1.0  0.79040  0.58133  0.89268  1.0000
  C   C25       1.0  0.96732  0.16704  0.66256  1.0000
  C   C26       1.0  0.03262  0.33313  0.16300  1.0000
  C   C27       1.0  0.03262  0.83314  0.33700  1.0000
  C   C28       1.0  0.96732  0.66703  0.83744  1.0000
  N   N1        1.0  0.73739  0.63083  0.57964  1.0000
  N   N2        1.0  0.26337  0.86959  0.07973  1.0000
  N   N3        1.0  0.26337  0.36959  0.42027  1.0000
  N   N4        1.0  0.73739  0.13083  0.92036  1.0000
  N   N5        1.0  0.76119  0.90391  0.57870  1.0000
  N   N6        1.0  0.23822  0.59605  0.07882  1.0000
  N   N7        1.0  0.23822  0.09605  0.42118  1.0000
  N   N8        1.0  0.76119  0.40392  0.92130  1.0000
  Cl  Cl1       1.0  0.24842  0.26917  0.85558  1.0000
  Cl  Cl2       1.0  0.75178  0.23471  0.35872  1.0000
  Cl  Cl3       1.0  0.75178  0.73471  0.14128  1.0000
  Cl  Cl4       1.0  0.24842  0.76917  0.64442  1.0000
  O   O1        1.0  0.42944  0.45390  0.67246  1.0000
  O   O2        1.0  0.57011  0.04658  0.17354  1.0000
  O   O3        1.0  0.57012  0.54658  0.32646  1.0000
  O   O4        1.0  0.42943  0.95390  0.82755  1.0000
  O   O5        1.0  0.50386  0.21700  0.69421  1.0000
  O   O6        1.0  0.49644  0.28405  0.19416  1.0000
  O   O7        1.0  0.49644  0.78405  0.30585  1.0000
  O   O8        1.0  0.50387  0.71701  0.80579  1.0000
  O   O9        1.0  0.99691  0.32081  0.69095  1.0000
  O   O10       1.0  0.00329  0.17947  0.19141  1.0000
  O   O11       1.0  0.00330  0.67947  0.30859  1.0000
  O   O12       1.0  0.99692  0.82082  0.80905  1.0000
  O   O13       1.0  0.06535  0.07897  0.67398  1.0000
  O   O14       1.0  0.93487  0.42141  0.17472  1.0000
  O   O15       1.0  0.93488  0.92141  0.32528  1.0000
  O   O16       1.0  0.06535  0.57898  0.82602  1.0000
