data_image0
_chemical_formula_structural       Ni2H40C56N4O10
_chemical_formula_sum              "Ni2 H40 C56 N4 O10"
_cell_length_a       10.0815
_cell_length_b       11.2333
_cell_length_c       11.5205
_cell_angle_alpha    102.13
_cell_angle_beta     105.272
_cell_angle_gamma    107.419

_space_group_name_H-M_alt    "P 1"
_space_group_IT_number       1

loop_
  _space_group_symop_operation_xyz
  'x, y, z'

loop_
  _atom_site_type_symbol
  _atom_site_label
  _atom_site_symmetry_multiplicity
  _atom_site_fract_x
  _atom_site_fract_y
  _atom_site_fract_z
  _atom_site_occupancy
  Ni  Ni1       1.0  0.70505  0.66009  0.68768  1.0000
  Ni  Ni2       1.0  0.29511  0.34003  0.31233  1.0000
  H   H1        1.0  0.60042  0.67884  0.45160  1.0000
  H   H2        1.0  0.39960  0.32173  0.54878  1.0000
  H   H3        1.0  0.64904  0.56264  0.44793  1.0000
  H   H4        1.0  0.35065  0.43769  0.55214  1.0000
  H   H5        1.0  0.21970  0.45819  0.67685  1.0000
  H   H6        1.0  0.78073  0.54179  0.32320  1.0000
  H   H7        1.0  0.02959  0.41874  0.77646  1.0000
  H   H8        1.0  0.97052  0.58116  0.22319  1.0000
  H   H9        1.0  0.36895  0.63443  0.14504  1.0000
  H   H10       1.0  0.63063  0.36518  0.85489  1.0000
  H   H11       1.0  0.55959  0.66876  0.04324  1.0000
  H   H12       1.0  0.44038  0.33111  0.95710  1.0000
  H   H13       1.0  0.11794  0.53819  0.13207  1.0000
  H   H14       1.0  0.88177  0.46142  0.86761  1.0000
  H   H15       1.0  0.91589  0.44249  0.54235  1.0000
  H   H16       1.0  0.08405  0.55767  0.45735  1.0000
  H   H17       1.0  0.05958  0.30384  0.49191  1.0000
  H   H18       1.0  0.94030  0.69623  0.50788  1.0000
  H   H19       1.0  0.73196  0.97202  0.51944  1.0000
  H   H20       1.0  0.26809  0.02831  0.48095  1.0000
  H   H21       1.0  0.59345  0.11227  0.57160  1.0000
  H   H22       1.0  0.40676  0.88824  0.42883  1.0000
  H   H23       1.0  0.10677  0.11526  0.47585  1.0000
  H   H24       1.0  0.89294  0.88480  0.52387  1.0000
  H   H25       1.0  0.00415  0.61505  0.73624  1.0000
  H   H26       1.0  0.99615  0.38497  0.26370  1.0000
  H   H27       1.0  0.27161  0.76552  0.83748  1.0000
  H   H28       1.0  0.72869  0.23457  0.16254  1.0000
  H   H29       1.0  0.33575  0.00966  0.91991  1.0000
  H   H30       1.0  0.66434  0.99040  0.08031  1.0000
  H   H31       1.0  0.23820  0.19721  0.96286  1.0000
  H   H32       1.0  0.76173  0.80273  0.03740  1.0000
  H   H33       1.0  0.02754  0.26552  0.94388  1.0000
  H   H34       1.0  0.97228  0.73435  0.05616  1.0000
  H   H35       1.0  0.74379  0.20297  0.86805  1.0000
  H   H36       1.0  0.25609  0.79690  0.13160  1.0000
  H   H37       1.0  0.49177  0.02388  0.75639  1.0000
  H   H38       1.0  0.50802  0.97583  0.24342  1.0000
  H   H39       1.0  0.47126  0.79120  0.67505  1.0000
  H   H40       1.0  0.52884  0.20852  0.32510  1.0000
  C   C1        1.0  0.51882  0.59598  0.79512  1.0000
  C   C2        1.0  0.48128  0.40400  0.20494  1.0000
  C   C3        1.0  0.40204  0.57061  0.85313  1.0000
  C   C4        1.0  0.59818  0.42931  0.14707  1.0000
  C   C5        1.0  0.25181  0.49907  0.77900  1.0000
  C   C6        1.0  0.74844  0.50085  0.22104  1.0000
  C   C7        1.0  0.14489  0.47805  0.83554  1.0000
  C   C8        1.0  0.85517  0.52176  0.16426  1.0000
  C   C9        1.0  0.18382  0.53089  0.96762  1.0000
  C   C10       1.0  0.81607  0.46884  0.03218  1.0000
  C   C11       1.0  0.33540  0.59894  0.04193  1.0000
  C   C12       1.0  0.66441  0.40073  0.95803  1.0000
  C   C13       1.0  0.44249  0.61823  0.98529  1.0000
  C   C14       1.0  0.55752  0.38158  0.01488  1.0000
  C   C15       1.0  0.07380  0.51722  0.02933  1.0000
  C   C16       1.0  0.92602  0.48246  0.97036  1.0000
  C   C17       1.0  0.67318  0.37239  0.61514  1.0000
  C   C18       1.0  0.32692  0.62789  0.38481  1.0000
  C   C19       1.0  0.74945  0.28738  0.56620  1.0000
  C   C20       1.0  0.25060  0.71289  0.43377  1.0000
  C   C21       1.0  0.87763  0.33953  0.53803  1.0000
  C   C22       1.0  0.12233  0.66067  0.46182  1.0000
  C   C23       1.0  0.95691  0.26237  0.50943  1.0000
  C   C24       1.0  0.04297  0.73777  0.49038  1.0000
  C   C25       1.0  0.91118  0.13044  0.50845  1.0000
  C   C26       1.0  0.08871  0.86975  0.49146  1.0000
  C   C27       1.0  0.77501  0.07549  0.52578  1.0000
  C   C28       1.0  0.22503  0.92478  0.47439  1.0000
  C   C29       1.0  0.69624  0.15297  0.55429  1.0000
  C   C30       1.0  0.30386  0.84736  0.44592  1.0000
  C   C31       1.0  0.00890  0.06036  0.49391  1.0000
  C   C32       1.0  0.99088  0.93973  0.50589  1.0000
  C   C33       1.0  0.95777  0.89459  0.80585  1.0000
  C   C34       1.0  0.04225  0.10527  0.19419  1.0000
  C   C35       1.0  0.03605  0.72082  0.77319  1.0000
  C   C36       1.0  0.96407  0.27914  0.22677  1.0000
  C   C37       1.0  0.18582  0.80682  0.82987  1.0000
  C   C38       1.0  0.81436  0.19320  0.17017  1.0000
  C   C39       1.0  0.22067  0.94073  0.87499  1.0000
  C   C40       1.0  0.77945  0.05931  0.12516  1.0000
  C   C41       1.0  0.10475  0.98861  0.86458  1.0000
  C   C42       1.0  0.89525  0.01131  0.13553  1.0000
  C   C43       1.0  0.12619  0.12381  0.91281  1.0000
  C   C44       1.0  0.87377  0.87611  0.08734  1.0000
  C   C45       1.0  0.00826  0.16239  0.90348  1.0000
  C   C46       1.0  0.99163  0.83748  0.09660  1.0000
  C   C47       1.0  0.85867  0.06919  0.84329  1.0000
  C   C48       1.0  0.14125  0.93062  0.15665  1.0000
  C   C49       1.0  0.73145  0.10115  0.83090  1.0000
  C   C50       1.0  0.26842  0.89868  0.16896  1.0000
  C   C51       1.0  0.59222  0.00217  0.77050  1.0000
  C   C52       1.0  0.40768  0.99760  0.22940  1.0000
  C   C53       1.0  0.57901  0.87138  0.72345  1.0000
  C   C54       1.0  0.42106  0.12837  0.27659  1.0000
  C   C55       1.0  0.83492  0.93507  0.79386  1.0000
  C   C56       1.0  0.16507  0.06475  0.20614  1.0000
  N   N1        1.0  0.92467  0.76324  0.76096  1.0000
  N   N2        1.0  0.07540  0.23664  0.23901  1.0000
  N   N3        1.0  0.69749  0.83831  0.73558  1.0000
  N   N4        1.0  0.30257  0.16148  0.26445  1.0000
  O   O1        1.0  0.48243  0.58215  0.67505  1.0000
  O   O2        1.0  0.51741  0.41808  0.32508  1.0000
  O   O3        1.0  0.65403  0.63634  0.86384  1.0000
  O   O4        1.0  0.34611  0.36342  0.13607  1.0000
  O   O5        1.0  0.74261  0.49660  0.63937  1.0000
  O   O6        1.0  0.25746  0.50366  0.36035  1.0000
  O   O7        1.0  0.55459  0.31769  0.63302  1.0000
  O   O8        1.0  0.44560  0.68271  0.36713  1.0000
  O   O9        1.0  0.68575  0.65723  0.49630  1.0000
  O   O10       1.0  0.31421  0.34316  0.50388  1.0000
