data_image0
_chemical_formula_structural       U2H20C22N4O18
_chemical_formula_sum              "U2 H20 C22 N4 O18"
_cell_length_a       6.50161
_cell_length_b       11.0149
_cell_length_c       10.8571
_cell_angle_alpha    94.1019
_cell_angle_beta     103.633
_cell_angle_gamma    106.176

_space_group_name_H-M_alt    "P 1"
_space_group_IT_number       1

loop_
  _space_group_symop_operation_xyz
  'x, y, z'

loop_
  _atom_site_type_symbol
  _atom_site_label
  _atom_site_symmetry_multiplicity
  _atom_site_fract_x
  _atom_site_fract_y
  _atom_site_fract_z
  _atom_site_occupancy
  U   U1        1.0  0.78920  0.11678  0.35941  1.0000
  U   U2        1.0  0.21084  0.88321  0.64062  1.0000
  H   H1        1.0  0.79929  0.40966  0.55860  1.0000
  H   H2        1.0  0.20073  0.59034  0.44141  1.0000
  H   H3        1.0  0.22538  0.99207  0.25865  1.0000
  H   H4        1.0  0.77464  0.00793  0.74134  1.0000
  H   H5        1.0  0.24599  0.24839  0.71367  1.0000
  H   H6        1.0  0.75403  0.75160  0.28634  1.0000
  H   H7        1.0  0.55285  0.65701  0.77147  1.0000
  H   H8        1.0  0.44715  0.34299  0.22852  1.0000
  H   H9        1.0  0.23693  0.86843  0.96991  1.0000
  H   H10       1.0  0.76304  0.13158  0.03007  1.0000
  H   H11       1.0  0.36711  0.88603  0.13770  1.0000
  H   H12       1.0  0.63289  0.11398  0.86228  1.0000
  H   H13       1.0  0.17982  0.73513  0.05418  1.0000
  H   H14       1.0  0.82018  0.26488  0.94580  1.0000
  H   H15       1.0  0.83032  0.81271  0.90398  1.0000
  H   H16       1.0  0.16966  0.18731  0.09602  1.0000
  H   H17       1.0  0.73447  0.72132  0.01975  1.0000
  H   H18       1.0  0.26552  0.27868  0.98024  1.0000
  H   H19       1.0  0.70333  0.87665  0.01193  1.0000
  H   H20       1.0  0.29666  0.12336  0.98807  1.0000
  C   C1        1.0  0.50561  0.18441  0.57440  1.0000
  C   C2        1.0  0.49439  0.81559  0.42559  1.0000
  C   C3        1.0  0.52075  0.31549  0.63056  1.0000
  C   C4        1.0  0.47924  0.68451  0.36943  1.0000
  C   C5        1.0  0.68357  0.42181  0.61311  1.0000
  C   C6        1.0  0.31643  0.57819  0.38689  1.0000
  C   C7        1.0  0.05490  0.95075  0.19747  1.0000
  C   C8        1.0  0.94511  0.04925  0.80252  1.0000
  C   C9        1.0  0.88229  0.65803  0.65946  1.0000
  C   C10       1.0  0.11768  0.34198  0.34053  1.0000
  C   C11       1.0  0.37185  0.33097  0.70007  1.0000
  C   C12       1.0  0.62816  0.66902  0.29993  1.0000
  C   C13       1.0  0.70021  0.54433  0.66756  1.0000
  C   C14       1.0  0.29980  0.45566  0.33245  1.0000
  C   C15       1.0  0.54756  0.56177  0.73353  1.0000
  C   C16       1.0  0.45243  0.43823  0.26646  1.0000
  C   C17       1.0  0.38651  0.45464  0.74836  1.0000
  C   C18       1.0  0.61347  0.54535  0.25163  1.0000
  C   C19       1.0  0.21498  0.83922  0.06172  1.0000
  C   C20       1.0  0.78501  0.16079  0.93826  1.0000
  C   C21       1.0  0.81093  0.81821  0.00155  1.0000
  C   C22       1.0  0.18907  0.18180  0.99845  1.0000
  N   N1        1.0  0.02980  0.87470  0.09122  1.0000
  N   N2        1.0  0.97019  0.12530  0.90878  1.0000
  N   N3        1.0  0.22884  0.47304  0.81969  1.0000
  N   N4        1.0  0.77114  0.52695  0.18031  1.0000
  O   O1        1.0  0.43778  0.09053  0.63106  1.0000
  O   O2        1.0  0.56219  0.90946  0.36893  1.0000
  O   O3        1.0  0.89250  0.97585  0.22710  1.0000
  O   O4        1.0  0.10752  0.02416  0.77291  1.0000
  O   O5        1.0  0.03496  0.64747  0.60744  1.0000
  O   O6        1.0  0.96503  0.35254  0.39257  1.0000
  O   O7        1.0  0.59263  0.12550  0.21341  1.0000
  O   O8        1.0  0.40738  0.87449  0.78663  1.0000
  O   O9        1.0  0.88656  0.76858  0.70773  1.0000
  O   O10       1.0  0.11343  0.23142  0.29229  1.0000
  O   O11       1.0  0.56406  0.17499  0.47098  1.0000
  O   O12       1.0  0.43596  0.82501  0.52902  1.0000
  O   O13       1.0  0.97806  0.12115  0.51210  1.0000
  O   O14       1.0  0.02202  0.87888  0.48792  1.0000
  O   O15       1.0  0.05785  0.38240  0.80761  1.0000
  O   O16       1.0  0.94212  0.61759  0.19237  1.0000
  O   O17       1.0  0.27582  0.57711  0.88848  1.0000
  O   O18       1.0  0.72417  0.42287  0.11152  1.0000
