data_image0
_chemical_formula_structural       Ag4H24C24N20O16
_chemical_formula_sum              "Ag4 H24 C24 N20 O16"
_cell_length_a       8.08602
_cell_length_b       9.87011
_cell_length_c       12.2226
_cell_angle_alpha    109.839
_cell_angle_beta     90.0001
_cell_angle_gamma    90.0003

_space_group_name_H-M_alt    "P 1"
_space_group_IT_number       1

loop_
  _space_group_symop_operation_xyz
  'x, y, z'

loop_
  _atom_site_type_symbol
  _atom_site_label
  _atom_site_symmetry_multiplicity
  _atom_site_fract_x
  _atom_site_fract_y
  _atom_site_fract_z
  _atom_site_occupancy
  Ag  Ag1       1.0  0.20259  0.18897  0.18957  1.0000
  Ag  Ag2       1.0  0.70259  0.31103  0.31043  1.0000
  Ag  Ag3       1.0  0.79741  0.81103  0.81043  1.0000
  Ag  Ag4       1.0  0.29741  0.68897  0.68957  1.0000
  H   H1        1.0  0.75128  0.17332  0.70382  1.0000
  H   H2        1.0  0.25128  0.32668  0.79618  1.0000
  H   H3        1.0  0.24872  0.82668  0.29618  1.0000
  H   H4        1.0  0.74872  0.67332  0.20382  1.0000
  H   H5        1.0  0.75455  0.36628  0.76347  1.0000
  H   H6        1.0  0.25455  0.13372  0.73653  1.0000
  H   H7        1.0  0.24545  0.63372  0.23653  1.0000
  H   H8        1.0  0.74545  0.86628  0.26347  1.0000
  H   H9        1.0  0.91274  0.26583  0.80037  1.0000
  H   H10       1.0  0.41274  0.23417  0.69963  1.0000
  H   H11       1.0  0.08726  0.73417  0.19963  1.0000
  H   H12       1.0  0.58726  0.76583  0.30037  1.0000
  H   H13       1.0  0.36243  0.51542  0.40140  1.0000
  H   H14       1.0  0.86243  0.98458  0.09860  1.0000
  H   H15       1.0  0.63757  0.48458  0.59860  1.0000
  H   H16       1.0  0.13757  0.01542  0.90140  1.0000
  H   H17       1.0  0.02685  0.47418  0.72452  1.0000
  H   H18       1.0  0.52685  0.02582  0.77548  1.0000
  H   H19       1.0  0.97315  0.52582  0.27548  1.0000
  H   H20       1.0  0.47315  0.97418  0.22452  1.0000
  H   H21       1.0  0.82992  0.07775  0.50547  1.0000
  H   H22       1.0  0.32992  0.42224  0.99453  1.0000
  H   H23       1.0  0.17008  0.92225  0.49453  1.0000
  H   H24       1.0  0.67008  0.57775  0.00547  1.0000
  C   C1        1.0  0.27557  0.45630  0.43593  1.0000
  C   C2        1.0  0.77556  0.04370  0.06407  1.0000
  C   C3        1.0  0.72443  0.54370  0.56407  1.0000
  C   C4        1.0  0.22444  0.95630  0.93593  1.0000
  C   C5        1.0  0.12071  0.39835  0.55479  1.0000
  C   C6        1.0  0.62071  0.10165  0.94521  1.0000
  C   C7        1.0  0.87929  0.60165  0.44521  1.0000
  C   C8        1.0  0.37929  0.89836  0.05479  1.0000
  C   C9        1.0  0.92786  0.27118  0.62657  1.0000
  C   C10       1.0  0.42785  0.22882  0.87343  1.0000
  C   C11       1.0  0.07214  0.72882  0.37343  1.0000
  C   C12       1.0  0.57214  0.77118  0.12657  1.0000
  C   C13       1.0  0.83078  0.26850  0.72919  1.0000
  C   C14       1.0  0.33078  0.23150  0.77081  1.0000
  C   C15       1.0  0.16922  0.73150  0.27081  1.0000
  C   C16       1.0  0.66922  0.76850  0.22919  1.0000
  C   C17       1.0  0.91518  0.16682  0.51835  1.0000
  C   C18       1.0  0.41518  0.33317  0.98165  1.0000
  C   C19       1.0  0.08482  0.83318  0.48165  1.0000
  C   C20       1.0  0.58482  0.66683  0.01835  1.0000
  C   C21       1.0  0.00350  0.17193  0.41862  1.0000
  C   C22       1.0  0.50350  0.32807  0.08138  1.0000
  C   C23       1.0  0.99650  0.82807  0.58137  1.0000
  C   C24       1.0  0.49650  0.67194  0.91863  1.0000
  N   N1        1.0  0.20831  0.33222  0.37171  1.0000
  N   N2        1.0  0.70830  0.16778  0.12829  1.0000
  N   N3        1.0  0.79170  0.66778  0.62829  1.0000
  N   N4        1.0  0.29169  0.83222  0.87171  1.0000
  N   N5        1.0  0.27553  0.00228  0.04907  1.0000
  N   N6        1.0  0.77553  0.49772  0.45093  1.0000
  N   N7        1.0  0.72447  0.99773  0.95093  1.0000
  N   N8        1.0  0.22447  0.50227  0.54907  1.0000
  N   N9        1.0  0.03208  0.38718  0.64435  1.0000
  N   N10       1.0  0.53208  0.11282  0.85564  1.0000
  N   N11       1.0  0.96792  0.61282  0.35565  1.0000
  N   N12       1.0  0.46792  0.88718  0.14436  1.0000
  N   N13       1.0  0.10940  0.29528  0.44776  1.0000
  N   N14       1.0  0.60940  0.20472  0.05224  1.0000
  N   N15       1.0  0.89060  0.70472  0.55224  1.0000
  N   N16       1.0  0.39060  0.79528  0.94776  1.0000
  N   N17       1.0  0.96174  0.36037  0.06488  1.0000
  N   N18       1.0  0.46174  0.13963  0.43512  1.0000
  N   N19       1.0  0.03826  0.63963  0.93512  1.0000
  N   N20       1.0  0.53826  0.86037  0.56488  1.0000
  O   O1        1.0  0.99563  0.08845  0.31682  1.0000
  O   O2        1.0  0.49563  0.41155  0.18317  1.0000
  O   O3        1.0  0.00437  0.91155  0.68318  1.0000
  O   O4        1.0  0.50437  0.58845  0.81682  1.0000
  O   O5        1.0  0.03619  0.38573  0.16448  1.0000
  O   O6        1.0  0.53620  0.11427  0.33552  1.0000
  O   O7        1.0  0.96381  0.61427  0.83552  1.0000
  O   O8        1.0  0.46381  0.88573  0.66448  1.0000
  O   O9        1.0  0.85374  0.44727  0.05679  1.0000
  O   O10       1.0  0.35374  0.05273  0.44321  1.0000
  O   O11       1.0  0.14626  0.55273  0.94321  1.0000
  O   O12       1.0  0.64626  0.94727  0.55679  1.0000
  O   O13       1.0  0.99971  0.24910  0.98197  1.0000
  O   O14       1.0  0.49971  0.25090  0.51803  1.0000
  O   O15       1.0  0.00029  0.75090  0.01803  1.0000
  O   O16       1.0  0.50029  0.74910  0.48197  1.0000
