data_image0
_chemical_formula_structural       Ag4H16C24S24O12F12
_chemical_formula_sum              "Ag4 H16 C24 S24 O12 F12"
_cell_length_a       7.6287
_cell_length_b       9.43455
_cell_length_c       18.4045
_cell_angle_alpha    99.5404
_cell_angle_beta     91.2854
_cell_angle_gamma    100.938

_space_group_name_H-M_alt    "P 1"
_space_group_IT_number       1

loop_
  _space_group_symop_operation_xyz
  'x, y, z'

loop_
  _atom_site_type_symbol
  _atom_site_label
  _atom_site_symmetry_multiplicity
  _atom_site_fract_x
  _atom_site_fract_y
  _atom_site_fract_z
  _atom_site_occupancy
  Ag  Ag1       1.0  0.73973  0.50014  0.51384  1.0000
  Ag  Ag2       1.0  0.26028  0.49986  0.48616  1.0000
  Ag  Ag3       1.0  0.01466  0.86759  0.83912  1.0000
  Ag  Ag4       1.0  0.98534  0.13240  0.16088  1.0000
  H   H1        1.0  0.40398  0.00247  0.05372  1.0000
  H   H2        1.0  0.59602  0.99754  0.94628  1.0000
  H   H3        1.0  0.62690  0.98712  0.08113  1.0000
  H   H4        1.0  0.37310  0.01288  0.91886  1.0000
  H   H5        1.0  0.62306  0.23945  0.05879  1.0000
  H   H6        1.0  0.37694  0.76055  0.94121  1.0000
  H   H7        1.0  0.45189  0.25767  0.12314  1.0000
  H   H8        1.0  0.54811  0.74232  0.87686  1.0000
  H   H9        1.0  0.30490  0.18225  0.79356  1.0000
  H   H10       1.0  0.69510  0.81775  0.20644  1.0000
  H   H11       1.0  0.12392  0.27268  0.81620  1.0000
  H   H12       1.0  0.87608  0.72732  0.18380  1.0000
  H   H13       1.0  0.10675  0.32471  0.68480  1.0000
  H   H14       1.0  0.89325  0.67529  0.31520  1.0000
  H   H15       1.0  0.31603  0.40525  0.73267  1.0000
  H   H16       1.0  0.68397  0.59476  0.26733  1.0000
  C   C1        1.0  0.51888  0.23357  0.38587  1.0000
  C   C2        1.0  0.48110  0.76643  0.61413  1.0000
  C   C3        1.0  0.50334  0.09582  0.25057  1.0000
  C   C4        1.0  0.49666  0.90418  0.74943  1.0000
  C   C5        1.0  0.51311  0.03931  0.09670  1.0000
  C   C6        1.0  0.48689  0.96068  0.90330  1.0000
  C   C7        1.0  0.56544  0.20468  0.10867  1.0000
  C   C8        1.0  0.43456  0.79532  0.89133  1.0000
  C   C9        1.0  0.63450  0.21923  0.25461  1.0000
  C   C10       1.0  0.36550  0.78077  0.74539  1.0000
  C   C11       1.0  0.05144  0.80623  0.52836  1.0000
  C   C12       1.0  0.94856  0.19377  0.47164  1.0000
  C   C13       1.0  0.07361  0.98554  0.65284  1.0000
  C   C14       1.0  0.92640  0.01446  0.34716  1.0000
  C   C15       1.0  0.18514  0.21168  0.77107  1.0000
  C   C16       1.0  0.81487  0.78832  0.22893  1.0000
  C   C17       1.0  0.22694  0.30074  0.71006  1.0000
  C   C18       1.0  0.77306  0.69926  0.28994  1.0000
  C   C19       1.0  0.20401  0.05107  0.61198  1.0000
  C   C20       1.0  0.79599  0.94893  0.38802  1.0000
  C   C21       1.0  0.77100  0.61964  0.01740  1.0000
  C   C22       1.0  0.22900  0.38036  0.98259  1.0000
  C   C23       1.0  0.75319  0.40665  0.76973  1.0000
  C   C24       1.0  0.24681  0.59334  0.23027  1.0000
  S   S1        1.0  0.47999  0.28619  0.47528  1.0000
  S   S2        1.0  0.52001  0.71381  0.52472  1.0000
  S   S3        1.0  0.40317  0.07463  0.33328  1.0000
  S   S4        1.0  0.59682  0.92536  0.66672  1.0000
  S   S5        1.0  0.41344  0.96437  0.17478  1.0000
  S   S6        1.0  0.58656  0.03563  0.82522  1.0000
  S   S7        1.0  0.74370  0.28092  0.17964  1.0000
  S   S8        1.0  0.25630  0.71908  0.82036  1.0000
  S   S9        1.0  0.67454  0.33261  0.34028  1.0000
  S   S10       1.0  0.32546  0.66739  0.65972  1.0000
  S   S11       1.0  0.99685  0.65850  0.46140  1.0000
  S   S12       1.0  0.00316  0.34150  0.53860  1.0000
  S   S13       1.0  0.94272  0.82155  0.60850  1.0000
  S   S14       1.0  0.05728  0.17845  0.39151  1.0000
  S   S15       1.0  0.98390  0.95346  0.25762  1.0000
  S   S16       1.0  0.01610  0.04654  0.74238  1.0000
  S   S17       1.0  0.35257  0.21699  0.63834  1.0000
  S   S18       1.0  0.64743  0.78301  0.36166  1.0000
  S   S19       1.0  0.21824  0.95430  0.52346  1.0000
  S   S20       1.0  0.78176  0.04570  0.47654  1.0000
  S   S21       1.0  0.92328  0.79763  0.01194  1.0000
  S   S22       1.0  0.07673  0.20236  0.98805  1.0000
  S   S23       1.0  0.79415  0.55399  0.71262  1.0000
  S   S24       1.0  0.20584  0.44601  0.28737  1.0000
  O   O1        1.0  0.76265  0.68478  0.76166  1.0000
  O   O2        1.0  0.23735  0.31521  0.23833  1.0000
  O   O3        1.0  0.97934  0.55623  0.69410  1.0000
  O   O4        1.0  0.02068  0.44376  0.30589  1.0000
  O   O5        1.0  0.66206  0.50062  0.65047  1.0000
  O   O6        1.0  0.33795  0.49938  0.34953  1.0000
  O   O7        1.0  0.89527  0.88471  0.08288  1.0000
  O   O8        1.0  0.10472  0.11530  0.91712  1.0000
  O   O9        1.0  0.10109  0.76592  0.00265  1.0000
  O   O10       1.0  0.89889  0.23409  0.99735  1.0000
  O   O11       1.0  0.15684  0.15802  0.05213  1.0000
  O   O12       1.0  0.84316  0.84199  0.94787  1.0000
  F   F1        1.0  0.59464  0.40156  0.80222  1.0000
  F   F2        1.0  0.40536  0.59844  0.19778  1.0000
  F   F3        1.0  0.88485  0.42773  0.82301  1.0000
  F   F4        1.0  0.11515  0.57226  0.17699  1.0000
  F   F5        1.0  0.75069  0.27456  0.72630  1.0000
  F   F6        1.0  0.24931  0.72543  0.27370  1.0000
  F   F7        1.0  0.60528  0.64493  0.03426  1.0000
  F   F8        1.0  0.39472  0.35506  0.96574  1.0000
  F   F9        1.0  0.83044  0.55482  0.07130  1.0000
  F   F10       1.0  0.16956  0.44519  0.92870  1.0000
  F   F11       1.0  0.75573  0.52526  0.95305  1.0000
  F   F12       1.0  0.24428  0.47474  0.04695  1.0000
