data_image0
_chemical_formula_structural       Cd2H12C8S4N16
_chemical_formula_sum              "Cd2 H12 C8 S4 N16"
_cell_length_a       5.3096
_cell_length_b       7.82169
_cell_length_c       11.4858
_cell_angle_alpha    90.7812
_cell_angle_beta     89.9996
_cell_angle_gamma    89.9995

_space_group_name_H-M_alt    "P 1"
_space_group_IT_number       1

loop_
  _space_group_symop_operation_xyz
  'x, y, z'

loop_
  _atom_site_type_symbol
  _atom_site_label
  _atom_site_symmetry_multiplicity
  _atom_site_fract_x
  _atom_site_fract_y
  _atom_site_fract_z
  _atom_site_occupancy
  Cd  Cd1       1.0  0.50000  0.50000  0.50000  1.0000
  Cd  Cd2       1.0  0.00000  1.00000  0.50000  1.0000
  H   H1        1.0  0.88804  0.20154  0.85145  1.0000
  H   H2        1.0  0.38805  0.29845  0.14854  1.0000
  H   H3        1.0  0.11196  0.79847  0.14855  1.0000
  H   H4        1.0  0.61195  0.70155  0.85146  1.0000
  H   H5        1.0  0.69409  0.14128  0.97265  1.0000
  H   H6        1.0  0.19410  0.35871  0.02734  1.0000
  H   H7        1.0  0.30592  0.85873  0.02735  1.0000
  H   H8        1.0  0.80590  0.64128  0.97265  1.0000
  H   H9        1.0  0.64169  0.34103  0.90018  1.0000
  H   H10       1.0  0.14170  0.15897  0.09981  1.0000
  H   H11       1.0  0.35831  0.65898  0.09982  1.0000
  H   H12       1.0  0.85830  0.84103  0.90019  1.0000
  C   C1        1.0  0.50560  0.13284  0.69286  1.0000
  C   C2        1.0  0.00561  0.36716  0.30715  1.0000
  C   C3        1.0  0.49440  0.86716  0.30714  1.0000
  C   C4        1.0  0.99439  0.63284  0.69285  1.0000
  C   C5        1.0  0.69918  0.20718  0.88919  1.0000
  C   C6        1.0  0.19919  0.29282  0.11082  1.0000
  C   C7        1.0  0.30082  0.79282  0.11081  1.0000
  C   C8        1.0  0.80080  0.70719  0.88918  1.0000
  S   S1        1.0  0.72215  0.23817  0.60928  1.0000
  S   S2        1.0  0.22214  0.26185  0.39071  1.0000
  S   S3        1.0  0.27785  0.76183  0.39072  1.0000
  S   S4        1.0  0.77786  0.73815  0.60928  1.0000
  N   N1        1.0  0.29804  0.04296  0.66298  1.0000
  N   N2        1.0  0.79804  0.45705  0.33701  1.0000
  N   N3        1.0  0.70196  0.95704  0.33702  1.0000
  N   N4        1.0  0.20196  0.54295  0.66299  1.0000
  N   N5        1.0  0.19799  0.98109  0.76218  1.0000
  N   N6        1.0  0.69800  0.51892  0.23781  1.0000
  N   N7        1.0  0.80200  0.01891  0.23782  1.0000
  N   N8        1.0  0.30200  0.48108  0.76219  1.0000
  N   N9        1.0  0.33192  0.02785  0.85191  1.0000
  N   N10       1.0  0.83194  0.47215  0.14809  1.0000
  N   N11       1.0  0.66807  0.97216  0.14810  1.0000
  N   N12       1.0  0.16806  0.52785  0.85191  1.0000
  N   N13       1.0  0.52451  0.12196  0.81082  1.0000
  N   N14       1.0  0.02456  0.37803  0.18915  1.0000
  N   N15       1.0  0.47549  0.87804  0.18918  1.0000
  N   N16       1.0  0.97545  0.62197  0.81084  1.0000
