data_image0
_chemical_formula_structural       Cd4H40C64N24O8
_chemical_formula_sum              "Cd4 H40 C64 N24 O8"
_cell_length_a       9.36118
_cell_length_b       13.4809
_cell_length_c       14.7539
_cell_angle_alpha    112.38
_cell_angle_beta     96.9362
_cell_angle_gamma    101.879

_space_group_name_H-M_alt    "P 1"
_space_group_IT_number       1

loop_
  _space_group_symop_operation_xyz
  'x, y, z'

loop_
  _atom_site_type_symbol
  _atom_site_label
  _atom_site_symmetry_multiplicity
  _atom_site_fract_x
  _atom_site_fract_y
  _atom_site_fract_z
  _atom_site_occupancy
  Cd  Cd1       1.0  0.31299  0.66251  0.19826  1.0000
  Cd  Cd2       1.0  0.68701  0.33749  0.80174  1.0000
  Cd  Cd3       1.0  0.69693  0.83559  0.14978  1.0000
  Cd  Cd4       1.0  0.30308  0.16441  0.85022  1.0000
  H   H1        1.0  0.98469  0.72127  0.36368  1.0000
  H   H2        1.0  0.01531  0.27873  0.63632  1.0000
  H   H3        1.0  0.03168  0.65255  0.49792  1.0000
  H   H4        1.0  0.96832  0.34745  0.50208  1.0000
  H   H5        1.0  0.57902  0.55821  0.48919  1.0000
  H   H6        1.0  0.42098  0.44179  0.51081  1.0000
  H   H7        1.0  0.51354  0.61898  0.35332  1.0000
  H   H8        1.0  0.48646  0.38102  0.64668  1.0000
  H   H9        1.0  0.46517  0.82684  0.56797  1.0000
  H   H10       1.0  0.53483  0.17316  0.43203  1.0000
  H   H11       1.0  0.45248  0.96045  0.74041  1.0000
  H   H12       1.0  0.54751  0.03955  0.25959  1.0000
  H   H13       1.0  0.12072  0.06350  0.61950  1.0000
  H   H14       1.0  0.87928  0.93650  0.38050  1.0000
  H   H15       1.0  0.13224  0.94398  0.44253  1.0000
  H   H16       1.0  0.86776  0.05602  0.55747  1.0000
  H   H17       1.0  0.01891  0.66720  0.07425  1.0000
  H   H18       1.0  0.98109  0.33280  0.92575  1.0000
  H   H19       1.0  0.19149  0.51337  0.28273  1.0000
  H   H20       1.0  0.80851  0.48663  0.71727  1.0000
  H   H21       1.0  0.07580  0.38171  0.34867  1.0000
  H   H22       1.0  0.92420  0.61829  0.65133  1.0000
  H   H23       1.0  0.80024  0.28976  0.29468  1.0000
  H   H24       1.0  0.19976  0.71024  0.70532  1.0000
  H   H25       1.0  0.64005  0.33299  0.17441  1.0000
  H   H26       1.0  0.35995  0.66702  0.82559  1.0000
  H   H27       1.0  0.61956  0.43392  0.06594  1.0000
  H   H28       1.0  0.38044  0.56608  0.93406  1.0000
  H   H29       1.0  0.35984  0.03146  0.97892  1.0000
  H   H30       1.0  0.64016  0.96854  0.02108  1.0000
  H   H31       1.0  0.99751  0.09418  0.78028  1.0000
  H   H32       1.0  0.00249  0.90582  0.21972  1.0000
  H   H33       1.0  0.73413  0.00132  0.69677  1.0000
  H   H34       1.0  0.26587  0.99868  0.30323  1.0000
  H   H35       1.0  0.60041  0.82790  0.71273  1.0000
  H   H36       1.0  0.39959  0.17210  0.28727  1.0000
  H   H37       1.0  0.73163  0.75605  0.81929  1.0000
  H   H38       1.0  0.26837  0.24394  0.18071  1.0000
  H   H39       1.0  0.96674  0.76862  0.92864  1.0000
  H   H40       1.0  0.03326  0.23138  0.07136  1.0000
  C   C1        1.0  0.71648  0.72017  0.27131  1.0000
  C   C2        1.0  0.28352  0.27983  0.72869  1.0000
  C   C3        1.0  0.74538  0.67561  0.34849  1.0000
  C   C4        1.0  0.25462  0.32439  0.65151  1.0000
  C   C5        1.0  0.89275  0.68515  0.39019  1.0000
  C   C6        1.0  0.10725  0.31486  0.60981  1.0000
  C   C7        1.0  0.91790  0.64733  0.46479  1.0000
  C   C8        1.0  0.08211  0.35267  0.53521  1.0000
  C   C9        1.0  0.66690  0.59396  0.45911  1.0000
  C   C10       1.0  0.33310  0.40604  0.54089  1.0000
  C   C11       1.0  0.62950  0.62758  0.38307  1.0000
  C   C12       1.0  0.37050  0.37242  0.61693  1.0000
  C   C13       1.0  0.30706  0.80368  0.38836  1.0000
  C   C14       1.0  0.69294  0.19632  0.61163  1.0000
  C   C15       1.0  0.29989  0.87670  0.49293  1.0000
  C   C16       1.0  0.70011  0.12330  0.50707  1.0000
  C   C17       1.0  0.38913  0.87954  0.57746  1.0000
  C   C18       1.0  0.61087  0.12046  0.42254  1.0000
  C   C19       1.0  0.38071  0.95212  0.67239  1.0000
  C   C20       1.0  0.61929  0.04788  0.32761  1.0000
  C   C21       1.0  0.19638  0.01056  0.60457  1.0000
  C   C22       1.0  0.80362  0.98944  0.39543  1.0000
  C   C23       1.0  0.20215  0.94415  0.50722  1.0000
  C   C24       1.0  0.79785  0.05584  0.49278  1.0000
  C   C25       1.0  0.72345  0.58275  0.98821  1.0000
  C   C26       1.0  0.27655  0.41725  0.01179  1.0000
  C   C27       1.0  0.80681  0.55326  0.06059  1.0000
  C   C28       1.0  0.19319  0.44674  0.93941  1.0000
  C   C29       1.0  0.96274  0.60416  0.09739  1.0000
  C   C30       1.0  0.03726  0.39583  0.90261  1.0000
  C   C31       1.0  0.98330  0.50003  0.19092  1.0000
  C   C32       1.0  0.01670  0.49997  0.80908  1.0000
  C   C33       1.0  0.07176  0.47265  0.25769  1.0000
  C   C34       1.0  0.92824  0.52735  0.74231  1.0000
  C   C35       1.0  0.00609  0.39846  0.29423  1.0000
  C   C36       1.0  0.99391  0.60154  0.70577  1.0000
  C   C37       1.0  0.84987  0.34773  0.26448  1.0000
  C   C38       1.0  0.15013  0.65227  0.73552  1.0000
  C   C39       1.0  0.76068  0.37121  0.19820  1.0000
  C   C40       1.0  0.23933  0.62879  0.80180  1.0000
  C   C41       1.0  0.82533  0.44756  0.15989  1.0000
  C   C42       1.0  0.17467  0.55244  0.84011  1.0000
  C   C43       1.0  0.73913  0.47462  0.09188  1.0000
  C   C44       1.0  0.26087  0.52538  0.90812  1.0000
  C   C45       1.0  0.26306  0.85509  0.02144  1.0000
  C   C46       1.0  0.73694  0.14491  0.97856  1.0000
  C   C47       1.0  0.17269  0.89524  0.96284  1.0000
  C   C48       1.0  0.82731  0.10476  0.03716  1.0000
  C   C49       1.0  0.24106  0.98932  0.94653  1.0000
  C   C50       1.0  0.75894  0.01068  0.05347  1.0000
  C   C51       1.0  0.01952  0.97721  0.84615  1.0000
  C   C52       1.0  0.98047  0.02279  0.15385  1.0000
  C   C53       1.0  0.94102  0.01902  0.78742  1.0000
  C   C54       1.0  0.05898  0.98098  0.21257  1.0000
  C   C55       1.0  0.79240  0.96606  0.74030  1.0000
  C   C56       1.0  0.20760  0.03394  0.25970  1.0000
  C   C57       1.0  0.71741  0.86988  0.75069  1.0000
  C   C58       1.0  0.28259  0.13011  0.24931  1.0000
  C   C59       1.0  0.79015  0.82850  0.80915  1.0000
  C   C60       1.0  0.20985  0.17150  0.19085  1.0000
  C   C61       1.0  0.94264  0.88128  0.85863  1.0000
  C   C62       1.0  0.05736  0.11872  0.14137  1.0000
  C   C63       1.0  0.02280  0.84198  0.91877  1.0000
  C   C64       1.0  0.97720  0.15802  0.08123  1.0000
  N   N1        1.0  0.80764  0.60326  0.50015  1.0000
  N   N2        1.0  0.19236  0.39674  0.49985  1.0000
  N   N3        1.0  0.28586  0.01649  0.68616  1.0000
  N   N4        1.0  0.71414  0.98351  0.31384  1.0000
  N   N5        1.0  0.04795  0.57778  0.15819  1.0000
  N   N6        1.0  0.95205  0.42222  0.84181  1.0000
  N   N7        1.0  0.66520  0.51261  0.89110  1.0000
  N   N8        1.0  0.33480  0.48739  0.10890  1.0000
  N   N9        1.0  0.60274  0.57010  0.84771  1.0000
  N   N10       1.0  0.39726  0.42990  0.15229  1.0000
  N   N11       1.0  0.62097  0.67108  0.91584  1.0000
  N   N12       1.0  0.37903  0.32892  0.08416  1.0000
  N   N13       1.0  0.69692  0.68196  0.00507  1.0000
  N   N14       1.0  0.30308  0.31804  0.99493  1.0000
  N   N15       1.0  0.16838  0.02846  0.89087  1.0000
  N   N16       1.0  0.83162  0.97154  0.10913  1.0000
  N   N17       1.0  0.41396  0.89054  0.04899  1.0000
  N   N18       1.0  0.58604  0.10946  0.95101  1.0000
  N   N19       1.0  0.45128  0.83084  0.09722  1.0000
  N   N20       1.0  0.54872  0.16916  0.90278  1.0000
  N   N21       1.0  0.32822  0.76194  0.09912  1.0000
  N   N22       1.0  0.67178  0.23806  0.90088  1.0000
  N   N23       1.0  0.20830  0.77552  0.05224  1.0000
  N   N24       1.0  0.79169  0.22448  0.94776  1.0000
  O   O1        1.0  0.83003  0.76858  0.24874  1.0000
  O   O2        1.0  0.16997  0.23142  0.75126  1.0000
  O   O3        1.0  0.58340  0.71315  0.23228  1.0000
  O   O4        1.0  0.41660  0.28685  0.76772  1.0000
  O   O5        1.0  0.27932  0.83643  0.31981  1.0000
  O   O6        1.0  0.72068  0.16357  0.68019  1.0000
  O   O7        1.0  0.33844  0.71183  0.37364  1.0000
  O   O8        1.0  0.66156  0.28817  0.62636  1.0000
