data_image0
_chemical_formula_structural       Zn4H24C40N20Cl4
_chemical_formula_sum              "Zn4 H24 C40 N20 Cl4"
_cell_length_a       7.76837
_cell_length_b       8.75693
_cell_length_c       15.7892
_cell_angle_alpha    90
_cell_angle_beta     100.181
_cell_angle_gamma    89.9999

_space_group_name_H-M_alt    "P 1"
_space_group_IT_number       1

loop_
  _space_group_symop_operation_xyz
  'x, y, z'

loop_
  _atom_site_type_symbol
  _atom_site_label
  _atom_site_symmetry_multiplicity
  _atom_site_fract_x
  _atom_site_fract_y
  _atom_site_fract_z
  _atom_site_occupancy
  Zn  Zn1       1.0  0.27061  0.82596  0.17870  1.0000
  Zn  Zn2       1.0  0.72939  0.32596  0.32130  1.0000
  Zn  Zn3       1.0  0.72939  0.17404  0.82130  1.0000
  Zn  Zn4       1.0  0.27061  0.67404  0.67870  1.0000
  H   H1        1.0  0.21177  0.26446  0.90549  1.0000
  H   H2        1.0  0.78823  0.76446  0.59451  1.0000
  H   H3        1.0  0.78823  0.73554  0.09451  1.0000
  H   H4        1.0  0.21177  0.23554  0.40549  1.0000
  H   H5        1.0  0.36324  0.90114  0.01572  1.0000
  H   H6        1.0  0.63675  0.40114  0.48428  1.0000
  H   H7        1.0  0.63675  0.09886  0.98428  1.0000
  H   H8        1.0  0.36325  0.59886  0.51572  1.0000
  H   H9        1.0  0.08102  0.25396  0.15963  1.0000
  H   H10       1.0  0.91897  0.75397  0.34037  1.0000
  H   H11       1.0  0.91897  0.74603  0.84037  1.0000
  H   H12       1.0  0.08103  0.24603  0.65963  1.0000
  H   H13       1.0  0.15308  0.52630  0.17992  1.0000
  H   H14       1.0  0.84692  0.02630  0.32008  1.0000
  H   H15       1.0  0.84692  0.47370  0.82008  1.0000
  H   H16       1.0  0.15308  0.97370  0.67992  1.0000
  H   H17       1.0  0.32294  0.50400  0.85155  1.0000
  H   H18       1.0  0.67707  0.00400  0.64845  1.0000
  H   H19       1.0  0.67707  0.49601  0.14845  1.0000
  H   H20       1.0  0.32293  0.99600  0.35155  1.0000
  H   H21       1.0  0.10813  0.12242  0.02258  1.0000
  H   H22       1.0  0.89188  0.62242  0.47742  1.0000
  H   H23       1.0  0.89187  0.87758  0.97742  1.0000
  H   H24       1.0  0.10813  0.37758  0.52258  1.0000
  C   C1        1.0  0.20349  0.32075  0.96619  1.0000
  C   C2        1.0  0.79652  0.82074  0.53381  1.0000
  C   C3        1.0  0.79651  0.67925  0.03381  1.0000
  C   C4        1.0  0.20349  0.17925  0.46619  1.0000
  C   C5        1.0  0.32702  0.78168  0.00366  1.0000
  C   C6        1.0  0.67297  0.28169  0.49634  1.0000
  C   C7        1.0  0.67297  0.21832  0.99634  1.0000
  C   C8        1.0  0.32703  0.71832  0.50366  1.0000
  C   C9        1.0  0.12886  0.31678  0.10882  1.0000
  C   C10       1.0  0.87114  0.81678  0.39117  1.0000
  C   C11       1.0  0.87114  0.68322  0.89118  1.0000
  C   C12       1.0  0.12886  0.18322  0.60882  1.0000
  C   C13       1.0  0.34344  0.71558  0.92350  1.0000
  C   C14       1.0  0.65656  0.21558  0.57650  1.0000
  C   C15       1.0  0.65656  0.28442  0.07650  1.0000
  C   C16       1.0  0.34344  0.78442  0.42350  1.0000
  C   C17       1.0  0.24796  0.47744  0.97645  1.0000
  C   C18       1.0  0.75204  0.97744  0.52355  1.0000
  C   C19       1.0  0.75204  0.52256  0.02355  1.0000
  C   C20       1.0  0.24796  0.02256  0.47645  1.0000
  C   C21       1.0  0.17110  0.46951  0.12071  1.0000
  C   C22       1.0  0.82890  0.96952  0.37929  1.0000
  C   C23       1.0  0.82891  0.53049  0.87929  1.0000
  C   C24       1.0  0.17110  0.03050  0.62071  1.0000
  C   C25       1.0  0.23218  0.55252  0.05551  1.0000
  C   C26       1.0  0.76783  0.05252  0.44449  1.0000
  C   C27       1.0  0.76783  0.44748  0.94449  1.0000
  C   C28       1.0  0.23217  0.94748  0.55551  1.0000
  C   C29       1.0  0.30546  0.56214  0.91055  1.0000
  C   C30       1.0  0.69455  0.06215  0.58945  1.0000
  C   C31       1.0  0.69455  0.43786  0.08945  1.0000
  C   C32       1.0  0.30545  0.93785  0.41055  1.0000
  C   C33       1.0  0.14475  0.24229  0.03121  1.0000
  C   C34       1.0  0.85524  0.74229  0.46879  1.0000
  C   C35       1.0  0.85524  0.75771  0.96879  1.0000
  C   C36       1.0  0.14476  0.25771  0.53121  1.0000
  C   C37       1.0  0.41399  0.81402  0.86346  1.0000
  C   C38       1.0  0.58602  0.31402  0.63654  1.0000
  C   C39       1.0  0.58602  0.18598  0.13654  1.0000
  C   C40       1.0  0.41398  0.68598  0.36346  1.0000
  N   N1        1.0  0.27585  0.70478  0.06728  1.0000
  N   N2        1.0  0.72415  0.20479  0.43272  1.0000
  N   N3        1.0  0.72415  0.29521  0.93272  1.0000
  N   N4        1.0  0.27585  0.79522  0.56728  1.0000
  N   N5        1.0  0.51028  0.93704  0.89120  1.0000
  N   N6        1.0  0.48973  0.43704  0.60880  1.0000
  N   N7        1.0  0.48973  0.06296  0.10880  1.0000
  N   N8        1.0  0.51027  0.56296  0.39120  1.0000
  N   N9        1.0  0.40587  0.79822  0.77730  1.0000
  N   N10       1.0  0.59413  0.29822  0.72270  1.0000
  N   N11       1.0  0.59413  0.20178  0.22270  1.0000
  N   N12       1.0  0.40587  0.70178  0.27730  1.0000
  N   N13       1.0  0.50103  0.91205  0.75215  1.0000
  N   N14       1.0  0.49897  0.41206  0.74785  1.0000
  N   N15       1.0  0.49897  0.08794  0.24784  1.0000
  N   N16       1.0  0.50103  0.58795  0.25215  1.0000
  N   N17       1.0  0.56106  0.99340  0.82111  1.0000
  N   N18       1.0  0.43894  0.49341  0.67889  1.0000
  N   N19       1.0  0.43894  0.00659  0.17889  1.0000
  N   N20       1.0  0.56106  0.50659  0.32111  1.0000
  Cl  Cl1       1.0  0.01531  0.92598  0.19186  1.0000
  Cl  Cl2       1.0  0.98469  0.42597  0.30814  1.0000
  Cl  Cl3       1.0  0.98469  0.07402  0.80814  1.0000
  Cl  Cl4       1.0  0.01531  0.57402  0.69186  1.0000
