data_image0
_chemical_formula_structural       Cd4H32C40N32O4
_chemical_formula_sum              "Cd4 H32 C40 N32 O4"
_cell_length_a       7.44115
_cell_length_b       10.4633
_cell_length_c       16.609
_cell_angle_alpha    90
_cell_angle_beta     90.0001
_cell_angle_gamma    110.352

_space_group_name_H-M_alt    "P 1"
_space_group_IT_number       1

loop_
  _space_group_symop_operation_xyz
  'x, y, z'

loop_
  _atom_site_type_symbol
  _atom_site_label
  _atom_site_symmetry_multiplicity
  _atom_site_fract_x
  _atom_site_fract_y
  _atom_site_fract_z
  _atom_site_occupancy
  Cd  Cd1       1.0  0.90969  0.10268  0.20771  1.0000
  Cd  Cd2       1.0  0.59031  0.89732  0.70771  1.0000
  Cd  Cd3       1.0  0.09032  0.89732  0.79229  1.0000
  Cd  Cd4       1.0  0.40968  0.10268  0.29228  1.0000
  H   H1        1.0  0.79586  0.08937  0.02773  1.0000
  H   H2        1.0  0.70414  0.91063  0.52773  1.0000
  H   H3        1.0  0.20414  0.91063  0.97227  1.0000
  H   H4        1.0  0.29586  0.08937  0.47227  1.0000
  H   H5        1.0  0.63482  0.43270  0.95822  1.0000
  H   H6        1.0  0.86518  0.56730  0.45822  1.0000
  H   H7        1.0  0.36519  0.56730  0.04178  1.0000
  H   H8        1.0  0.13482  0.43270  0.54178  1.0000
  H   H9        1.0  0.06683  0.40340  0.22682  1.0000
  H   H10       1.0  0.43317  0.59660  0.72681  1.0000
  H   H11       1.0  0.93317  0.59660  0.77318  1.0000
  H   H12       1.0  0.56682  0.40339  0.27318  1.0000
  H   H13       1.0  0.06179  0.63201  0.26248  1.0000
  H   H14       1.0  0.43821  0.36799  0.76248  1.0000
  H   H15       1.0  0.93820  0.36799  0.73752  1.0000
  H   H16       1.0  0.56179  0.63201  0.23752  1.0000
  H   H17       1.0  0.88956  0.74520  0.17633  1.0000
  H   H18       1.0  0.61044  0.25480  0.67633  1.0000
  H   H19       1.0  0.11044  0.25480  0.82367  1.0000
  H   H20       1.0  0.38956  0.74520  0.32367  1.0000
  H   H21       1.0  0.72996  0.63419  0.04953  1.0000
  H   H22       1.0  0.77004  0.36581  0.54953  1.0000
  H   H23       1.0  0.27004  0.36581  0.95047  1.0000
  H   H24       1.0  0.22996  0.63419  0.45047  1.0000
  H   H25       1.0  0.87312  0.89621  0.08731  1.0000
  H   H26       1.0  0.62688  0.10379  0.58731  1.0000
  H   H27       1.0  0.12688  0.10379  0.91270  1.0000
  H   H28       1.0  0.37312  0.89621  0.41269  1.0000
  H   H29       1.0  0.09695  0.94345  0.11212  1.0000
  H   H30       1.0  0.40305  0.05655  0.61212  1.0000
  H   H31       1.0  0.90305  0.05655  0.88788  1.0000
  H   H32       1.0  0.59695  0.94345  0.38788  1.0000
  C   C1        1.0  0.79701  0.19266  0.03820  1.0000
  C   C2        1.0  0.70299  0.80734  0.53820  1.0000
  C   C3        1.0  0.20299  0.80734  0.96180  1.0000
  C   C4        1.0  0.29701  0.19266  0.46180  1.0000
  C   C5        1.0  0.70441  0.25253  0.98298  1.0000
  C   C6        1.0  0.79559  0.74747  0.48298  1.0000
  C   C7        1.0  0.29558  0.74747  0.01702  1.0000
  C   C8        1.0  0.20441  0.25253  0.51702  1.0000
  C   C9        1.0  0.70489  0.38245  0.99860  1.0000
  C   C10       1.0  0.79511  0.61755  0.49860  1.0000
  C   C11       1.0  0.29511  0.61755  0.00140  1.0000
  C   C12       1.0  0.20489  0.38245  0.50140  1.0000
  C   C13       1.0  0.80031  0.45219  0.06791  1.0000
  C   C14       1.0  0.69968  0.54782  0.56790  1.0000
  C   C15       1.0  0.19968  0.54782  0.93209  1.0000
  C   C16       1.0  0.30032  0.45218  0.43209  1.0000
  C   C17       1.0  0.89243  0.38479  0.11997  1.0000
  C   C18       1.0  0.60757  0.61521  0.61997  1.0000
  C   C19       1.0  0.10757  0.61521  0.88003  1.0000
  C   C20       1.0  0.39243  0.38479  0.38003  1.0000
  C   C21       1.0  0.99083  0.45311  0.18911  1.0000
  C   C22       1.0  0.50917  0.54689  0.68911  1.0000
  C   C23       1.0  0.00917  0.54689  0.81089  1.0000
  C   C24       1.0  0.49083  0.45311  0.31089  1.0000
  C   C25       1.0  0.98871  0.58073  0.20841  1.0000
  C   C26       1.0  0.51130  0.41927  0.70841  1.0000
  C   C27       1.0  0.01129  0.41927  0.79159  1.0000
  C   C28       1.0  0.48870  0.58073  0.29159  1.0000
  C   C29       1.0  0.89146  0.64539  0.15882  1.0000
  C   C30       1.0  0.60854  0.35460  0.65882  1.0000
  C   C31       1.0  0.10854  0.35460  0.84118  1.0000
  C   C32       1.0  0.39146  0.64540  0.34118  1.0000
  C   C33       1.0  0.80205  0.58408  0.08906  1.0000
  C   C34       1.0  0.69795  0.41592  0.58906  1.0000
  C   C35       1.0  0.19795  0.41592  0.91094  1.0000
  C   C36       1.0  0.30205  0.58408  0.41094  1.0000
  C   C37       1.0  0.60793  0.17012  0.91416  1.0000
  C   C38       1.0  0.89207  0.82988  0.41416  1.0000
  C   C39       1.0  0.39207  0.82988  0.08584  1.0000
  C   C40       1.0  0.10793  0.17012  0.58584  1.0000
  N   N1        1.0  0.88415  0.25408  0.10427  1.0000
  N   N2        1.0  0.61585  0.74592  0.60426  1.0000
  N   N3        1.0  0.11585  0.74592  0.89574  1.0000
  N   N4        1.0  0.38415  0.25408  0.39573  1.0000
  N   N5        1.0  0.42947  0.15286  0.88754  1.0000
  N   N6        1.0  0.07053  0.84714  0.38754  1.0000
  N   N7        1.0  0.57053  0.84714  0.11246  1.0000
  N   N8        1.0  0.92947  0.15286  0.61246  1.0000
  N   N9        1.0  0.40065  0.06378  0.82669  1.0000
  N   N10       1.0  0.09935  0.93622  0.32669  1.0000
  N   N11       1.0  0.59935  0.93622  0.17331  1.0000
  N   N12       1.0  0.90065  0.06378  0.67331  1.0000
  N   N13       1.0  0.55397  0.02863  0.81727  1.0000
  N   N14       1.0  0.94603  0.97137  0.31727  1.0000
  N   N15       1.0  0.44603  0.97137  0.18273  1.0000
  N   N16       1.0  0.05398  0.02863  0.68273  1.0000
  N   N17       1.0  0.68679  0.09323  0.87124  1.0000
  N   N18       1.0  0.81321  0.90677  0.37124  1.0000
  N   N19       1.0  0.31321  0.90677  0.12876  1.0000
  N   N20       1.0  0.18679  0.09323  0.62876  1.0000
  N   N21       1.0  0.24038  0.20335  0.21097  1.0000
  N   N22       1.0  0.25962  0.79664  0.71097  1.0000
  N   N23       1.0  0.75962  0.79664  0.78903  1.0000
  N   N24       1.0  0.74038  0.20336  0.28903  1.0000
  N   N25       1.0  0.30237  0.27597  0.15317  1.0000
  N   N26       1.0  0.19763  0.72403  0.65317  1.0000
  N   N27       1.0  0.69763  0.72403  0.84683  1.0000
  N   N28       1.0  0.80237  0.27597  0.34682  1.0000
  N   N29       1.0  0.35734  0.34773  0.09826  1.0000
  N   N30       1.0  0.14266  0.65228  0.59826  1.0000
  N   N31       1.0  0.64266  0.65227  0.90174  1.0000
  N   N32       1.0  0.85734  0.34773  0.40174  1.0000
  O   O1        1.0  0.98611  0.97460  0.10186  1.0000
  O   O2        1.0  0.51389  0.02541  0.60186  1.0000
  O   O3        1.0  0.01389  0.02540  0.89814  1.0000
  O   O4        1.0  0.48611  0.97460  0.39814  1.0000
