data_image0
_chemical_formula_structural       Ba2H28C52N16O8F24
_chemical_formula_sum              "Ba2 H28 C52 N16 O8 F24"
_cell_length_a       11.9555
_cell_length_b       12.0331
_cell_length_c       12.1613
_cell_angle_alpha    66.4931
_cell_angle_beta     86.3317
_cell_angle_gamma    77.7584

_space_group_name_H-M_alt    "P 1"
_space_group_IT_number       1

loop_
  _space_group_symop_operation_xyz
  'x, y, z'

loop_
  _atom_site_type_symbol
  _atom_site_label
  _atom_site_symmetry_multiplicity
  _atom_site_fract_x
  _atom_site_fract_y
  _atom_site_fract_z
  _atom_site_occupancy
  Ba  Ba1       1.0  0.31025  0.06156  0.24262  1.0000
  Ba  Ba2       1.0  0.68975  0.93844  0.75738  1.0000
  H   H1        1.0  0.76292  0.98250  0.33787  1.0000
  H   H2        1.0  0.23708  0.01750  0.66213  1.0000
  H   H3        1.0  0.73800  0.18153  0.47643  1.0000
  H   H4        1.0  0.26201  0.81846  0.52357  1.0000
  H   H5        1.0  0.44042  0.32271  0.23997  1.0000
  H   H6        1.0  0.55958  0.67730  0.76003  1.0000
  H   H7        1.0  0.62294  0.35854  0.30488  1.0000
  H   H8        1.0  0.37706  0.64146  0.69512  1.0000
  H   H9        1.0  0.12379  0.46382  0.87909  1.0000
  H   H10       1.0  0.87621  0.53618  0.12092  1.0000
  H   H11       1.0  0.54028  0.59786  0.32586  1.0000
  H   H12       1.0  0.45972  0.40214  0.67414  1.0000
  H   H13       1.0  0.19397  0.93726  0.06097  1.0000
  H   H14       1.0  0.80603  0.06273  0.93903  1.0000
  H   H15       1.0  0.24677  0.78839  0.95689  1.0000
  H   H16       1.0  0.75323  0.21160  0.04311  1.0000
  H   H17       1.0  0.45024  0.75825  0.88532  1.0000
  H   H18       1.0  0.54976  0.24175  0.11468  1.0000
  H   H19       1.0  0.89359  0.43529  0.41641  1.0000
  H   H20       1.0  0.10641  0.56471  0.58359  1.0000
  H   H21       1.0  0.09563  0.47468  0.38595  1.0000
  H   H22       1.0  0.90437  0.52532  0.61405  1.0000
  H   H23       1.0  0.91615  0.81630  0.30784  1.0000
  H   H24       1.0  0.08386  0.18370  0.69216  1.0000
  H   H25       1.0  0.12179  0.84074  0.30554  1.0000
  H   H26       1.0  0.87821  0.15926  0.69446  1.0000
  H   H27       1.0  0.24430  0.32140  0.33292  1.0000
  H   H28       1.0  0.75570  0.67860  0.66708  1.0000
  C   C1        1.0  0.85360  0.98666  0.33466  1.0000
  C   C2        1.0  0.14640  0.01334  0.66534  1.0000
  C   C3        1.0  0.52129  0.05855  0.46605  1.0000
  C   C4        1.0  0.47871  0.94145  0.53395  1.0000
  C   C5        1.0  0.65680  0.17459  0.44626  1.0000
  C   C6        1.0  0.34320  0.82540  0.55374  1.0000
  C   C7        1.0  0.00376  0.29531  0.91273  1.0000
  C   C8        1.0  0.99624  0.70469  0.08727  1.0000
  C   C9        1.0  0.49375  0.25251  0.31584  1.0000
  C   C10       1.0  0.50626  0.74749  0.68416  1.0000
  C   C11       1.0  0.59377  0.27217  0.35101  1.0000
  C   C12       1.0  0.40624  0.72782  0.64899  1.0000
  C   C13       1.0  0.25337  0.38657  0.01794  1.0000
  C   C14       1.0  0.74663  0.61343  0.98206  1.0000
  C   C15       1.0  0.10851  0.27792  0.99191  1.0000
  C   C16       1.0  0.89149  0.72208  0.00809  1.0000
  C   C17       1.0  0.15879  0.38249  0.95803  1.0000
  C   C18       1.0  0.84121  0.61751  0.04197  1.0000
  C   C19       1.0  0.37469  0.71349  0.31634  1.0000
  C   C20       1.0  0.62531  0.28652  0.68366  1.0000
  C   C21       1.0  0.45860  0.96404  0.99382  1.0000
  C   C22       1.0  0.54139  0.03596  0.00618  1.0000
  C   C23       1.0  0.49459  0.68954  0.31603  1.0000
  C   C24       1.0  0.50541  0.31046  0.68397  1.0000
  C   C25       1.0  0.55893  0.77866  0.30570  1.0000
  C   C26       1.0  0.44107  0.22134  0.69430  1.0000
  C   C27       1.0  0.02022  0.19865  0.35635  1.0000
  C   C28       1.0  0.97978  0.80135  0.64365  1.0000
  C   C29       1.0  0.99079  0.08931  0.34360  1.0000
  C   C30       1.0  0.00921  0.91069  0.65640  1.0000
  C   C31       1.0  0.27903  0.92049  0.02502  1.0000
  C   C32       1.0  0.72097  0.07951  0.97498  1.0000
  C   C33       1.0  0.30764  0.83906  0.96761  1.0000
  C   C34       1.0  0.69236  0.16094  0.03239  1.0000
  C   C35       1.0  0.41924  0.82380  0.92709  1.0000
  C   C36       1.0  0.58076  0.17620  0.07291  1.0000
  C   C37       1.0  0.31576  0.60419  0.33740  1.0000
  C   C38       1.0  0.68424  0.39582  0.66260  1.0000
  C   C39       1.0  0.96301  0.37281  0.39455  1.0000
  C   C40       1.0  0.03699  0.62719  0.60545  1.0000
  C   C41       1.0  0.07390  0.39487  0.37799  1.0000
  C   C42       1.0  0.92610  0.60513  0.62201  1.0000
  C   C43       1.0  0.93727  0.89477  0.31867  1.0000
  C   C44       1.0  0.06272  0.10523  0.68133  1.0000
  C   C45       1.0  0.05020  0.90830  0.31691  1.0000
  C   C46       1.0  0.94980  0.09170  0.68309  1.0000
  C   C47       1.0  0.69078  0.73597  0.30894  1.0000
  C   C48       1.0  0.30922  0.26403  0.69106  1.0000
  C   C49       1.0  0.15569  0.31033  0.34887  1.0000
  C   C50       1.0  0.84431  0.68967  0.65112  1.0000
  C   C51       1.0  0.30753  0.50202  0.95795  1.0000
  C   C52       1.0  0.69247  0.49798  0.04205  1.0000
  N   N1        1.0  0.45744  0.14546  0.37177  1.0000
  N   N2        1.0  0.54256  0.85454  0.62823  1.0000
  N   N3        1.0  0.62023  0.06832  0.50445  1.0000
  N   N4        1.0  0.37977  0.93168  0.49555  1.0000
  N   N5        1.0  0.35469  0.98110  0.04056  1.0000
  N   N6        1.0  0.64530  0.01890  0.95944  1.0000
  N   N7        1.0  0.07807  0.00507  0.32930  1.0000
  N   N8        1.0  0.92193  0.99493  0.67070  1.0000
  N   N9        1.0  0.12995  0.21191  0.33824  1.0000
  N   N10       1.0  0.87005  0.78809  0.66175  1.0000
  N   N11       1.0  0.49443  0.88755  0.93718  1.0000
  N   N12       1.0  0.50557  0.11245  0.06282  1.0000
  N   N13       1.0  0.93520  0.27518  0.38414  1.0000
  N   N14       1.0  0.06480  0.72482  0.61586  1.0000
  N   N15       1.0  0.87959  0.08403  0.34705  1.0000
  N   N16       1.0  0.12041  0.91597  0.65295  1.0000
  O   O1        1.0  0.30571  0.81285  0.30342  1.0000
  O   O2        1.0  0.69429  0.18715  0.69658  1.0000
  O   O3        1.0  0.30527  0.30700  0.11263  1.0000
  O   O4        1.0  0.69473  0.69300  0.88737  1.0000
  O   O5        1.0  0.13591  0.17386  0.07586  1.0000
  O   O6        1.0  0.86409  0.82614  0.92414  1.0000
  O   O7        1.0  0.52562  0.88847  0.29543  1.0000
  O   O8        1.0  0.47438  0.11153  0.70457  1.0000
  F   F1        1.0  0.73748  0.81739  0.21338  1.0000
  F   F2        1.0  0.26252  0.18261  0.78661  1.0000
  F   F3        1.0  0.02963  0.33088  0.79344  1.0000
  F   F4        1.0  0.97037  0.66912  0.20656  1.0000
  F   F5        1.0  0.91532  0.38472  0.92059  1.0000
  F   F6        1.0  0.08468  0.61527  0.07941  1.0000
  F   F7        1.0  0.34151  0.53891  0.04047  1.0000
  F   F8        1.0  0.65849  0.46109  0.95953  1.0000
  F   F9        1.0  0.96365  0.18937  0.94559  1.0000
  F   F10       1.0  0.03636  0.81063  0.05441  1.0000
  F   F11       1.0  0.73698  0.73347  0.41055  1.0000
  F   F12       1.0  0.26302  0.26653  0.58945  1.0000
  F   F13       1.0  0.72848  0.62147  0.30738  1.0000
  F   F14       1.0  0.27152  0.37853  0.69262  1.0000
  F   F15       1.0  0.23837  0.60254  0.87556  1.0000
  F   F16       1.0  0.76163  0.39746  0.12444  1.0000
  F   F17       1.0  0.25976  0.57468  0.44430  1.0000
  F   F18       1.0  0.74024  0.42533  0.55570  1.0000
  F   F19       1.0  0.40427  0.47358  0.89861  1.0000
  F   F20       1.0  0.59573  0.52642  0.10139  1.0000
  F   F21       1.0  0.23502  0.63518  0.25013  1.0000
  F   F22       1.0  0.76498  0.36482  0.74987  1.0000
  F   F23       1.0  0.38775  0.49797  0.34182  1.0000
  F   F24       1.0  0.61225  0.50204  0.65818  1.0000
