data_image0
_chemical_formula_structural       Cu4H20C20Br4N4
_chemical_formula_sum              "Cu4 H20 C20 Br4 N4"
_cell_length_a       8.00384
_cell_length_b       8.88655
_cell_length_c       9.24466
_cell_angle_alpha    117.808
_cell_angle_beta     90.5589
_cell_angle_gamma    104.081

_space_group_name_H-M_alt    "P 1"
_space_group_IT_number       1

loop_
  _space_group_symop_operation_xyz
  'x, y, z'

loop_
  _atom_site_type_symbol
  _atom_site_label
  _atom_site_symmetry_multiplicity
  _atom_site_fract_x
  _atom_site_fract_y
  _atom_site_fract_z
  _atom_site_occupancy
  Cu  Cu1       1.0  0.17849  0.60022  0.67701  1.0000
  Cu  Cu2       1.0  0.82152  0.39979  0.32299  1.0000
  Cu  Cu3       1.0  0.75880  0.44314  0.61527  1.0000
  Cu  Cu4       1.0  0.24121  0.55687  0.38473  1.0000
  H   H1        1.0  0.29629  0.33636  0.63390  1.0000
  H   H2        1.0  0.70370  0.66364  0.36610  1.0000
  H   H3        1.0  0.39328  0.09469  0.64269  1.0000
  H   H4        1.0  0.60672  0.90532  0.35731  1.0000
  H   H5        1.0  0.41374  0.07926  0.90261  1.0000
  H   H6        1.0  0.58627  0.92074  0.09739  1.0000
  H   H7        1.0  0.34249  0.31068  0.16020  1.0000
  H   H8        1.0  0.65751  0.68931  0.83979  1.0000
  H   H9        1.0  0.18127  0.83175  0.43759  1.0000
  H   H10       1.0  0.81872  0.16825  0.56242  1.0000
  H   H11       1.0  0.02917  0.86647  0.32286  1.0000
  H   H12       1.0  0.97082  0.13353  0.67714  1.0000
  H   H13       1.0  0.25100  0.98475  0.36042  1.0000
  H   H14       1.0  0.74899  0.01525  0.63958  1.0000
  H   H15       1.0  0.13860  0.86699  0.90982  1.0000
  H   H16       1.0  0.86142  0.13302  0.09019  1.0000
  H   H17       1.0  0.23513  0.99897  0.12221  1.0000
  H   H18       1.0  0.76488  0.00102  0.87779  1.0000
  H   H19       1.0  0.01163  0.88594  0.07146  1.0000
  H   H20       1.0  0.98838  0.11407  0.92854  1.0000
  C   C1        1.0  0.19382  0.71124  0.17850  1.0000
  C   C2        1.0  0.80617  0.28875  0.82149  1.0000
  C   C3        1.0  0.18096  0.71960  0.02825  1.0000
  C   C4        1.0  0.81904  0.28039  0.97175  1.0000
  C   C5        1.0  0.25826  0.45686  0.89023  1.0000
  C   C6        1.0  0.74173  0.54313  0.10977  1.0000
  C   C7        1.0  0.30256  0.32684  0.74710  1.0000
  C   C8        1.0  0.69744  0.67316  0.25290  1.0000
  C   C9        1.0  0.35700  0.19345  0.75271  1.0000
  C   C10       1.0  0.64300  0.80655  0.24729  1.0000
  C   C11       1.0  0.36972  0.18535  0.90108  1.0000
  C   C12       1.0  0.63029  0.81465  0.09892  1.0000
  C   C13       1.0  0.32892  0.31198  0.04311  1.0000
  C   C14       1.0  0.67107  0.68802  0.95689  1.0000
  C   C15       1.0  0.27252  0.44931  0.04040  1.0000
  C   C16       1.0  0.72747  0.55068  0.95960  1.0000
  C   C17       1.0  0.16226  0.85595  0.33350  1.0000
  C   C18       1.0  0.83773  0.14404  0.66650  1.0000
  C   C19       1.0  0.13932  0.87567  0.03196  1.0000
  C   C20       1.0  0.86069  0.12433  0.96804  1.0000
  Br  Br1       1.0  0.93704  0.70492  0.60900  1.0000
  Br  Br2       1.0  0.06297  0.29508  0.39100  1.0000
  Br  Br3       1.0  0.45634  0.74924  0.62457  1.0000
  Br  Br4       1.0  0.54366  0.25079  0.37541  1.0000
  N   N1        1.0  0.23443  0.57629  0.18365  1.0000
  N   N2        1.0  0.76556  0.42370  0.81635  1.0000
  N   N3        1.0  0.20633  0.59188  0.88525  1.0000
  N   N4        1.0  0.79366  0.40812  0.11475  1.0000
