data_image0
_chemical_formula_structural       Cu2H16C24N8Cl4
_chemical_formula_sum              "Cu2 H16 C24 N8 Cl4"
_cell_length_a       3.77144
_cell_length_b       6.88045
_cell_length_c       25.8239
_cell_angle_alpha    90.0002
_cell_angle_beta     90.0012
_cell_angle_gamma    97.7497

_space_group_name_H-M_alt    "P 1"
_space_group_IT_number       1

loop_
  _space_group_symop_operation_xyz
  'x, y, z'

loop_
  _atom_site_type_symbol
  _atom_site_label
  _atom_site_symmetry_multiplicity
  _atom_site_fract_x
  _atom_site_fract_y
  _atom_site_fract_z
  _atom_site_occupancy
  Cu  Cu1       1.0  0.00002  0.50000  0.00000  1.0000
  Cu  Cu2       1.0  0.50002  0.00000  0.50000  1.0000
  H   H1        1.0  0.28729  0.60842  0.19093  1.0000
  H   H2        1.0  0.21267  0.89155  0.69093  1.0000
  H   H3        1.0  0.71268  0.39158  0.80907  1.0000
  H   H4        1.0  0.78730  0.10844  0.30907  1.0000
  H   H5        1.0  0.22166  0.42534  0.10619  1.0000
  H   H6        1.0  0.27836  0.07464  0.60619  1.0000
  H   H7        1.0  0.77836  0.57467  0.89381  1.0000
  H   H8        1.0  0.72164  0.92536  0.39381  1.0000
  H   H9        1.0  0.86087  0.89416  0.03132  1.0000
  H   H10       1.0  0.63920  0.60583  0.53132  1.0000
  H   H11       1.0  0.13914  0.10583  0.96867  1.0000
  H   H12       1.0  0.36086  0.39418  0.46868  1.0000
  H   H13       1.0  0.90726  0.09600  0.11097  1.0000
  H   H14       1.0  0.59280  0.40399  0.61097  1.0000
  H   H15       1.0  0.09268  0.90399  0.88903  1.0000
  H   H16       1.0  0.40725  0.59602  0.38903  1.0000
  C   C1        1.0  0.13894  0.98081  0.20398  1.0000
  C   C2        1.0  0.36105  0.51917  0.70397  1.0000
  C   C3        1.0  0.86099  0.01920  0.79603  1.0000
  C   C4        1.0  0.63893  0.48082  0.29603  1.0000
  C   C5        1.0  0.10228  0.86703  0.15762  1.0000
  C   C6        1.0  0.39774  0.63297  0.65762  1.0000
  C   C7        1.0  0.89769  0.13298  0.84238  1.0000
  C   C8        1.0  0.60228  0.36703  0.34238  1.0000
  C   C9        1.0  0.18918  0.67496  0.15645  1.0000
  C   C10       1.0  0.31081  0.82501  0.65645  1.0000
  C   C11       1.0  0.81082  0.32504  0.84355  1.0000
  C   C12       1.0  0.68918  0.17499  0.34355  1.0000
  C   C13       1.0  0.15233  0.57340  0.10993  1.0000
  C   C14       1.0  0.34768  0.92659  0.60993  1.0000
  C   C15       1.0  0.84771  0.42661  0.89007  1.0000
  C   C16       1.0  0.65233  0.07341  0.39007  1.0000
  C   C17       1.0  0.95644  0.83692  0.06727  1.0000
  C   C18       1.0  0.54360  0.66308  0.56727  1.0000
  C   C19       1.0  0.04358  0.16308  0.93272  1.0000
  C   C20       1.0  0.45645  0.33693  0.43273  1.0000
  C   C21       1.0  0.98210  0.94869  0.11227  1.0000
  C   C22       1.0  0.51794  0.55130  0.61227  1.0000
  C   C23       1.0  0.01788  0.05130  0.88773  1.0000
  C   C24       1.0  0.48210  0.44872  0.38773  1.0000
  N   N1        1.0  0.17093  0.07911  0.24094  1.0000
  N   N2        1.0  0.32903  0.42086  0.74093  1.0000
  N   N3        1.0  0.82893  0.92088  0.75906  1.0000
  N   N4        1.0  0.67093  0.57912  0.25907  1.0000
  N   N5        1.0  0.04025  0.65325  0.06623  1.0000
  N   N6        1.0  0.45978  0.84674  0.56623  1.0000
  N   N7        1.0  0.95978  0.34675  0.93377  1.0000
  N   N8        1.0  0.54025  0.15327  0.43378  1.0000
  Cl  Cl1       1.0  0.42593  0.72839  0.96243  1.0000
  Cl  Cl2       1.0  0.07407  0.77162  0.46244  1.0000
  Cl  Cl3       1.0  0.57407  0.27161  0.03756  1.0000
  Cl  Cl4       1.0  0.92596  0.22838  0.53757  1.0000
