data_image0
_chemical_formula_structural       Cd2H44C74Br8N4O8
_chemical_formula_sum              "Cd2 H44 C74 Br8 N4 O8"
_cell_length_a       8.97449
_cell_length_b       16.0481
_cell_length_c       17.2997
_cell_angle_alpha    115.872
_cell_angle_beta     90.6442
_cell_angle_gamma    92.107

_space_group_name_H-M_alt    "P 1"
_space_group_IT_number       1

loop_
  _space_group_symop_operation_xyz
  'x, y, z'

loop_
  _atom_site_type_symbol
  _atom_site_label
  _atom_site_symmetry_multiplicity
  _atom_site_fract_x
  _atom_site_fract_y
  _atom_site_fract_z
  _atom_site_occupancy
  Cd  Cd1       1.0  0.53960  0.73558  0.98051  1.0000
  Cd  Cd2       1.0  0.46040  0.26443  0.01949  1.0000
  H   H1        1.0  0.63412  0.53449  0.95303  1.0000
  H   H2        1.0  0.36588  0.46552  0.04697  1.0000
  H   H3        1.0  0.78385  0.40320  0.85708  1.0000
  H   H4        1.0  0.21616  0.59681  0.14293  1.0000
  H   H5        1.0  0.93287  0.42096  0.74108  1.0000
  H   H6        1.0  0.06713  0.57903  0.25893  1.0000
  H   H7        1.0  0.76771  0.69565  0.83052  1.0000
  H   H8        1.0  0.23230  0.30436  0.16948  1.0000
  H   H9        1.0  0.90131  0.60484  0.55772  1.0000
  H   H10       1.0  0.09869  0.39516  0.44228  1.0000
  H   H11       1.0  0.04544  0.65453  0.46272  1.0000
  H   H12       1.0  0.95456  0.34546  0.53728  1.0000
  H   H13       1.0  0.34880  0.81972  0.67396  1.0000
  H   H14       1.0  0.65121  0.18028  0.32604  1.0000
  H   H15       1.0  0.20854  0.76515  0.76793  1.0000
  H   H16       1.0  0.79147  0.23485  0.23206  1.0000
  H   H17       1.0  0.27883  0.56532  0.41095  1.0000
  H   H18       1.0  0.72117  0.43468  0.58906  1.0000
  H   H19       1.0  0.75648  0.53813  0.39199  1.0000
  H   H20       1.0  0.24352  0.46187  0.60801  1.0000
  H   H21       1.0  0.79734  0.70973  0.46716  1.0000
  H   H22       1.0  0.20266  0.29027  0.53284  1.0000
  H   H23       1.0  0.77963  0.89227  0.55330  1.0000
  H   H24       1.0  0.22037  0.10772  0.44669  1.0000
  H   H25       1.0  0.70480  0.05417  0.63085  1.0000
  H   H26       1.0  0.29521  0.94583  0.36914  1.0000
  H   H27       1.0  0.23955  0.96194  0.59863  1.0000
  H   H28       1.0  0.76045  0.03806  0.40136  1.0000
  H   H29       1.0  0.35500  0.71230  0.32938  1.0000
  H   H30       1.0  0.64499  0.28769  0.67062  1.0000
  H   H31       1.0  0.21667  0.75173  0.22521  1.0000
  H   H32       1.0  0.78331  0.24827  0.77479  1.0000
  H   H33       1.0  0.89139  0.88714  0.41575  1.0000
  H   H34       1.0  0.10860  0.11286  0.58426  1.0000
  H   H35       1.0  0.03362  0.85204  0.52115  1.0000
  H   H36       1.0  0.96638  0.14796  0.47885  1.0000
  H   H37       1.0  0.77406  0.78859  0.13885  1.0000
  H   H38       1.0  0.22594  0.21141  0.86115  1.0000
  H   H39       1.0  0.63540  0.93927  0.01059  1.0000
  H   H40       1.0  0.36461  0.06074  0.98941  1.0000
  H   H41       1.0  0.77790  0.08263  0.11382  1.0000
  H   H42       1.0  0.22210  0.91737  0.88618  1.0000
  H   H43       1.0  0.92741  0.07510  0.23580  1.0000
  H   H44       1.0  0.07258  0.92490  0.76420  1.0000
  C   C1        1.0  0.70125  0.53976  0.90292  1.0000
  C   C2        1.0  0.29876  0.46025  0.09708  1.0000
  C   C3        1.0  0.78538  0.46678  0.84902  1.0000
  C   C4        1.0  0.21463  0.53322  0.15098  1.0000
  C   C5        1.0  0.86717  0.47673  0.78556  1.0000
  C   C6        1.0  0.13284  0.52328  0.21444  1.0000
  C   C7        1.0  0.86399  0.56044  0.77890  1.0000
  C   C8        1.0  0.13602  0.43956  0.22110  1.0000
  C   C9        1.0  0.77634  0.63040  0.83512  1.0000
  C   C10       1.0  0.22366  0.36960  0.16488  1.0000
  C   C11       1.0  0.95162  0.57150  0.71147  1.0000
  C   C12       1.0  0.04838  0.42850  0.28853  1.0000
  C   C13       1.0  0.04582  0.68495  0.66844  1.0000
  C   C14       1.0  0.95419  0.31505  0.33156  1.0000
  C   C15       1.0  0.99867  0.65229  0.58292  1.0000
  C   C16       1.0  0.00134  0.34771  0.41708  1.0000
  C   C17       1.0  0.07973  0.68142  0.53022  1.0000
  C   C18       1.0  0.92027  0.31858  0.46979  1.0000
  C   C19       1.0  0.20488  0.74291  0.56217  1.0000
  C   C20       1.0  0.79513  0.25709  0.43783  1.0000
  C   C21       1.0  0.24991  0.77358  0.64827  1.0000
  C   C22       1.0  0.75010  0.22642  0.35173  1.0000
  C   C23       1.0  0.17099  0.74429  0.70167  1.0000
  C   C24       1.0  0.82902  0.25571  0.29833  1.0000
  C   C25       1.0  0.29858  0.76677  0.50075  1.0000
  C   C26       1.0  0.70142  0.23322  0.49924  1.0000
  C   C27       1.0  0.41532  0.69310  0.46382  1.0000
  C   C28       1.0  0.58468  0.30690  0.53617  1.0000
  C   C29       1.0  0.39102  0.59742  0.42231  1.0000
  C   C30       1.0  0.60897  0.40258  0.57769  1.0000
  C   C31       1.0  0.51602  0.54322  0.39762  1.0000
  C   C32       1.0  0.48398  0.45678  0.60237  1.0000
  C   C33       1.0  0.66158  0.58243  0.41253  1.0000
  C   C34       1.0  0.33842  0.41756  0.58747  1.0000
  C   C35       1.0  0.68410  0.67881  0.45468  1.0000
  C   C36       1.0  0.31590  0.32119  0.54532  1.0000
  C   C37       1.0  0.56089  0.73429  0.48154  1.0000
  C   C38       1.0  0.43911  0.26571  0.51846  1.0000
  C   C39       1.0  0.55113  0.83467  0.53025  1.0000
  C   C40       1.0  0.44887  0.16533  0.46974  1.0000
  C   C41       1.0  0.66154  0.90622  0.56195  1.0000
  C   C42       1.0  0.33846  0.09377  0.43805  1.0000
  C   C43       1.0  0.62005  0.99780  0.60640  1.0000
  C   C44       1.0  0.37996  0.00219  0.39359  1.0000
  C   C45       1.0  0.46888  0.01616  0.61895  1.0000
  C   C46       1.0  0.53112  0.98384  0.38105  1.0000
  C   C47       1.0  0.35659  0.94581  0.58838  1.0000
  C   C48       1.0  0.64342  0.05419  0.41162  1.0000
  C   C49       1.0  0.39959  0.85512  0.54418  1.0000
  C   C50       1.0  0.60040  0.14488  0.45581  1.0000
  C   C51       1.0  0.20368  0.77860  0.43237  1.0000
  C   C52       1.0  0.79631  0.22140  0.56763  1.0000
  C   C53       1.0  0.25282  0.74972  0.34858  1.0000
  C   C54       1.0  0.74717  0.25028  0.65142  1.0000
  C   C55       1.0  0.17522  0.77085  0.28952  1.0000
  C   C56       1.0  0.82477  0.22914  0.71048  1.0000
  C   C57       1.0  0.04625  0.81994  0.31468  1.0000
  C   C58       1.0  0.95375  0.18006  0.68532  1.0000
  C   C59       1.0  0.99291  0.84886  0.39739  1.0000
  C   C60       1.0  0.00708  0.15114  0.60262  1.0000
  C   C61       1.0  0.07287  0.82825  0.45584  1.0000
  C   C62       1.0  0.92712  0.17175  0.54416  1.0000
  C   C63       1.0  0.95125  0.92621  0.26644  1.0000
  C   C64       1.0  0.04874  0.07378  0.73356  1.0000
  C   C65       1.0  0.86505  0.93065  0.19465  1.0000
  C   C66       1.0  0.13495  0.06934  0.80535  1.0000
  C   C67       1.0  0.78058  0.85438  0.13457  1.0000
  C   C68       1.0  0.21942  0.14562  0.86543  1.0000
  C   C69       1.0  0.70264  0.93971  0.06382  1.0000
  C   C70       1.0  0.29737  0.06030  0.93618  1.0000
  C   C71       1.0  0.78321  0.01881  0.12128  1.0000
  C   C72       1.0  0.21679  0.98119  0.87873  1.0000
  C   C73       1.0  0.86494  0.01457  0.18817  1.0000
  C   C74       1.0  0.13506  0.98543  0.81183  1.0000
  Br  Br1       1.0  0.44224  0.67163  0.08216  1.0000
  Br  Br2       1.0  0.55772  0.32840  0.91785  1.0000
  Br  Br3       1.0  0.45276  0.80328  0.88002  1.0000
  Br  Br4       1.0  0.54724  0.19672  0.11998  1.0000
  Br  Br5       1.0  0.48805  0.41145  0.34256  1.0000
  Br  Br6       1.0  0.51196  0.58855  0.65746  1.0000
  Br  Br7       1.0  0.41296  0.14135  0.68043  1.0000
  Br  Br8       1.0  0.58705  0.85865  0.31957  1.0000
  N   N1        1.0  0.69669  0.61996  0.89574  1.0000
  N   N2        1.0  0.30332  0.38005  0.10426  1.0000
  N   N3        1.0  0.70102  0.85918  0.07066  1.0000
  N   N4        1.0  0.29898  0.14082  0.92934  1.0000
  O   O1        1.0  0.00656  0.50760  0.65148  1.0000
  O   O2        1.0  0.99344  0.49240  0.34852  1.0000
  O   O3        1.0  0.96429  0.66209  0.72619  1.0000
  O   O4        1.0  0.03572  0.33791  0.27381  1.0000
  O   O5        1.0  0.96873  0.83645  0.25196  1.0000
  O   O6        1.0  0.03126  0.16355  0.74804  1.0000
  O   O7        1.0  0.00121  0.99386  0.32957  1.0000
  O   O8        1.0  0.99878  0.00614  0.67043  1.0000
