data_image0
_chemical_formula_structural       Hg2H44C74Br4N4Cl4O8
_chemical_formula_sum              "Hg2 H44 C74 Br4 N4 Cl4 O8"
_cell_length_a       8.92761
_cell_length_b       15.9182
_cell_length_c       17.0911
_cell_angle_alpha    114.956
_cell_angle_beta     91.2967
_cell_angle_gamma    91.8086

_space_group_name_H-M_alt    "P 1"
_space_group_IT_number       1

loop_
  _space_group_symop_operation_xyz
  'x, y, z'

loop_
  _atom_site_type_symbol
  _atom_site_label
  _atom_site_symmetry_multiplicity
  _atom_site_fract_x
  _atom_site_fract_y
  _atom_site_fract_z
  _atom_site_occupancy
  Hg  Hg1       1.0  0.00340  0.23373  0.47857  1.0000
  Hg  Hg2       1.0  0.99660  0.76627  0.52143  1.0000
  H   H1        1.0  0.12183  0.44227  0.50574  1.0000
  H   H2        1.0  0.87818  0.55773  0.49426  1.0000
  H   H3        1.0  0.27000  0.58523  0.60628  1.0000
  H   H4        1.0  0.73002  0.41477  0.39372  1.0000
  H   H5        1.0  0.42461  0.57749  0.72931  1.0000
  H   H6        1.0  0.57541  0.42251  0.27069  1.0000
  H   H7        1.0  0.26314  0.29245  0.63898  1.0000
  H   H8        1.0  0.73686  0.70756  0.36102  1.0000
  H   H9        1.0  0.38962  0.39057  0.91642  1.0000
  H   H10       1.0  0.61038  0.60943  0.08358  1.0000
  H   H11       1.0  0.53502  0.35512  0.02357  1.0000
  H   H12       1.0  0.46498  0.64487  0.97643  1.0000
  H   H13       1.0  0.85118  0.21133  0.83043  1.0000
  H   H14       1.0  0.14881  0.78867  0.16956  1.0000
  H   H15       1.0  0.71122  0.25293  0.72497  1.0000
  H   H16       1.0  0.28877  0.74707  0.27503  1.0000
  H   H17       1.0  0.74161  0.46204  0.10108  1.0000
  H   H18       1.0  0.25840  0.53796  0.89893  1.0000
  H   H19       1.0  0.20957  0.55280  0.13117  1.0000
  H   H20       1.0  0.79042  0.44720  0.86883  1.0000
  H   H21       1.0  0.28348  0.39066  0.05393  1.0000
  H   H22       1.0  0.71652  0.60933  0.94607  1.0000
  H   H23       1.0  0.29961  0.20838  0.96848  1.0000
  H   H24       1.0  0.70039  0.79162  0.03153  1.0000
  H   H25       1.0  0.25736  0.03695  0.89303  1.0000
  H   H26       1.0  0.74265  0.96305  0.10698  1.0000
  H   H27       1.0  0.77777  0.06540  0.91361  1.0000
  H   H28       1.0  0.22223  0.93460  0.08638  1.0000
  H   H29       1.0  0.85107  0.31866  0.17780  1.0000
  H   H30       1.0  0.14893  0.68133  0.82220  1.0000
  H   H31       1.0  0.71173  0.26269  0.27245  1.0000
  H   H32       1.0  0.28826  0.73731  0.72755  1.0000
  H   H33       1.0  0.40033  0.10464  0.06109  1.0000
  H   H34       1.0  0.59967  0.89537  0.93891  1.0000
  H   H35       1.0  0.54389  0.15557  0.96533  1.0000
  H   H36       1.0  0.45610  0.84443  0.03467  1.0000
  H   H37       1.0  0.42919  0.91787  0.24701  1.0000
  H   H38       1.0  0.57082  0.08213  0.75299  1.0000
  H   H39       1.0  0.25976  0.19188  0.33023  1.0000
  H   H40       1.0  0.74023  0.80812  0.66977  1.0000
  H   H41       1.0  0.11970  0.02950  0.45339  1.0000
  H   H42       1.0  0.88031  0.97050  0.54661  1.0000
  H   H43       1.0  0.27422  0.89887  0.36163  1.0000
  H   H44       1.0  0.72579  0.10113  0.63837  1.0000
  C   C1        1.0  0.19067  0.44286  0.55967  1.0000
  C   C2        1.0  0.80934  0.55714  0.44032  1.0000
  C   C3        1.0  0.27462  0.52165  0.61536  1.0000
  C   C4        1.0  0.72540  0.47835  0.38464  1.0000
  C   C5        1.0  0.35913  0.51740  0.68293  1.0000
  C   C6        1.0  0.64088  0.48259  0.31707  1.0000
  C   C7        1.0  0.35839  0.43390  0.69172  1.0000
  C   C8        1.0  0.64161  0.56610  0.30828  1.0000
  C   C9        1.0  0.27033  0.35805  0.63314  1.0000
  C   C10       1.0  0.72966  0.64195  0.36686  1.0000
  C   C11       1.0  0.44698  0.42944  0.76425  1.0000
  C   C12       1.0  0.55303  0.57057  0.23576  1.0000
  C   C13       1.0  0.54298  0.32277  0.81492  1.0000
  C   C14       1.0  0.45702  0.67723  0.18508  1.0000
  C   C15       1.0  0.49146  0.35206  0.89833  1.0000
  C   C16       1.0  0.50854  0.64794  0.10167  1.0000
  C   C17       1.0  0.57270  0.33075  0.95762  1.0000
  C   C18       1.0  0.42730  0.66924  0.04238  1.0000
  C   C19       1.0  0.70280  0.27977  0.93419  1.0000
  C   C20       1.0  0.29720  0.72023  0.06581  1.0000
  C   C21       1.0  0.75012  0.25041  0.84969  1.0000
  C   C22       1.0  0.24987  0.74959  0.15031  1.0000
  C   C23       1.0  0.67129  0.27242  0.78988  1.0000
  C   C24       1.0  0.32870  0.72757  0.21012  1.0000
  C   C25       1.0  0.79916  0.26684  0.00327  1.0000
  C   C26       1.0  0.20083  0.73317  0.99672  1.0000
  C   C27       1.0  0.90142  0.35481  0.04640  1.0000
  C   C28       1.0  0.09857  0.64519  0.95359  1.0000
  C   C29       1.0  0.85898  0.44562  0.09047  1.0000
  C   C30       1.0  0.14102  0.55438  0.90953  1.0000
  C   C31       1.0  0.97257  0.51548  0.12045  1.0000
  C   C32       1.0  0.02743  0.48452  0.87955  1.0000
  C   C33       1.0  0.12411  0.49669  0.10722  1.0000
  C   C34       1.0  0.87589  0.50331  0.89278  1.0000
  C   C35       1.0  0.16505  0.40504  0.06297  1.0000
  C   C36       1.0  0.83494  0.59495  0.93702  1.0000
  C   C37       1.0  0.05345  0.33388  0.03211  1.0000
  C   C38       1.0  0.94654  0.66612  0.96789  1.0000
  C   C39       1.0  0.06240  0.23353  0.98362  1.0000
  C   C40       1.0  0.93759  0.76648  0.01638  1.0000
  C   C41       1.0  0.18573  0.17779  0.95633  1.0000
  C   C42       1.0  0.81426  0.82221  0.04368  1.0000
  C   C43       1.0  0.16245  0.08153  0.91395  1.0000
  C   C44       1.0  0.83756  0.91847  0.08606  1.0000
  C   C45       1.0  0.01593  0.04281  0.89959  1.0000
  C   C46       1.0  0.98407  0.95720  0.10041  1.0000
  C   C47       1.0  0.89067  0.09721  0.92482  1.0000
  C   C48       1.0  0.10932  0.90279  0.07518  1.0000
  C   C49       1.0  0.91581  0.19281  0.96632  1.0000
  C   C50       1.0  0.08418  0.80719  0.03367  1.0000
  C   C51       1.0  0.70575  0.24247  0.06520  1.0000
  C   C52       1.0  0.29425  0.75753  0.93479  1.0000
  C   C53       1.0  0.75196  0.27228  0.15189  1.0000
  C   C54       1.0  0.24805  0.72771  0.84810  1.0000
  C   C55       1.0  0.67365  0.24201  0.20561  1.0000
  C   C56       1.0  0.32635  0.75799  0.79439  1.0000
  C   C57       1.0  0.54778  0.18265  0.17221  1.0000
  C   C58       1.0  0.45221  0.81735  0.82779  1.0000
  C   C59       1.0  0.49910  0.15129  0.08623  1.0000
  C   C60       1.0  0.50090  0.84872  0.91377  1.0000
  C   C61       1.0  0.57962  0.18125  0.03313  1.0000
  C   C62       1.0  0.42038  0.81874  0.96687  1.0000
  C   C63       1.0  0.44952  0.06820  0.21502  1.0000
  C   C64       1.0  0.55047  0.93181  0.78499  1.0000
  C   C65       1.0  0.35897  0.05697  0.28189  1.0000
  C   C66       1.0  0.64103  0.94303  0.71811  1.0000
  C   C67       1.0  0.36139  0.97315  0.28993  1.0000
  C   C68       1.0  0.63862  0.02685  0.71007  1.0000
  C   C69       1.0  0.26815  0.12643  0.33585  1.0000
  C   C70       1.0  0.73185  0.87357  0.66416  1.0000
  C   C71       1.0  0.18914  0.03510  0.40388  1.0000
  C   C72       1.0  0.81087  0.96490  0.59612  1.0000
  C   C73       1.0  0.27607  0.96248  0.35246  1.0000
  C   C74       1.0  0.72395  0.03752  0.64754  1.0000
  Br  Br1       1.0  0.91753  0.64080  0.18205  1.0000
  Br  Br2       1.0  0.08246  0.35919  0.81796  1.0000
  Br  Br3       1.0  0.98679  0.91111  0.84529  1.0000
  Br  Br4       1.0  0.01321  0.08890  0.15472  1.0000
  N   N1        1.0  0.18822  0.36302  0.56888  1.0000
  N   N2        1.0  0.81178  0.63699  0.43112  1.0000
  N   N3        1.0  0.18500  0.11512  0.39519  1.0000
  N   N4        1.0  0.81501  0.88487  0.60481  1.0000
  Cl  Cl1       1.0  0.95379  0.17271  0.58128  1.0000
  Cl  Cl2       1.0  0.04621  0.82730  0.41872  1.0000
  Cl  Cl3       1.0  0.95837  0.29808  0.37742  1.0000
  Cl  Cl4       1.0  0.04163  0.70192  0.62258  1.0000
  O   O1        1.0  0.49927  0.49693  0.82675  1.0000
  O   O2        1.0  0.50073  0.50307  0.17324  1.0000
  O   O3        1.0  0.46390  0.33952  0.75127  1.0000
  O   O4        1.0  0.53609  0.66048  0.24873  1.0000
  O   O5        1.0  0.46662  0.15932  0.23041  1.0000
  O   O6        1.0  0.53337  0.84068  0.76959  1.0000
  O   O7        1.0  0.50292  0.00418  0.15481  1.0000
  O   O8        1.0  0.49709  0.99582  0.84520  1.0000
