data_image0
_chemical_formula_structural       Zn2H44C74Br8N4O8
_chemical_formula_sum              "Zn2 H44 C74 Br8 N4 O8"
_cell_length_a       8.95085
_cell_length_b       15.8489
_cell_length_c       17.0675
_cell_angle_alpha    115.269
_cell_angle_beta     90.9028
_cell_angle_gamma    91.734

_space_group_name_H-M_alt    "P 1"
_space_group_IT_number       1

loop_
  _space_group_symop_operation_xyz
  'x, y, z'

loop_
  _atom_site_type_symbol
  _atom_site_label
  _atom_site_symmetry_multiplicity
  _atom_site_fract_x
  _atom_site_fract_y
  _atom_site_fract_z
  _atom_site_occupancy
  Zn  Zn1       1.0  0.94819  0.26885  0.02117  1.0000
  Zn  Zn2       1.0  0.05182  0.73115  0.97884  1.0000
  H   H1        1.0  0.73591  0.29807  0.16403  1.0000
  H   H2        1.0  0.26407  0.70193  0.83596  1.0000
  H   H3        1.0  0.57950  0.57766  0.25378  1.0000
  H   H4        1.0  0.42050  0.42234  0.74622  1.0000
  H   H5        1.0  0.73058  0.59436  0.13608  1.0000
  H   H6        1.0  0.26942  0.40565  0.86392  1.0000
  H   H7        1.0  0.87642  0.45969  0.03937  1.0000
  H   H8        1.0  0.12358  0.54032  0.96063  1.0000
  H   H9        1.0  0.30017  0.22898  0.22708  1.0000
  H   H10       1.0  0.69981  0.77102  0.77291  1.0000
  H   H11       1.0  0.15575  0.17522  0.32237  1.0000
  H   H12       1.0  0.84424  0.82478  0.67763  1.0000
  H   H13       1.0  0.45070  0.34597  0.53791  1.0000
  H   H14       1.0  0.54930  0.65403  0.46209  1.0000
  H   H15       1.0  0.59758  0.39533  0.44190  1.0000
  H   H16       1.0  0.40241  0.60467  0.55810  1.0000
  H   H17       1.0  0.25926  0.03501  0.39978  1.0000
  H   H18       1.0  0.74074  0.96498  0.60023  1.0000
  H   H19       1.0  0.79298  0.94346  0.36656  1.0000
  H   H20       1.0  0.20702  0.05654  0.63343  1.0000
  H   H21       1.0  0.71788  0.10678  0.44526  1.0000
  H   H22       1.0  0.28213  0.89321  0.55473  1.0000
  H   H23       1.0  0.70032  0.29079  0.53243  1.0000
  H   H24       1.0  0.29968  0.70921  0.46757  1.0000
  H   H25       1.0  0.74167  0.46357  0.60701  1.0000
  H   H26       1.0  0.25834  0.53643  0.39298  1.0000
  H   H27       1.0  0.22006  0.43417  0.58713  1.0000
  H   H28       1.0  0.77995  0.56583  0.41287  1.0000
  H   H29       1.0  0.14443  0.28842  0.67209  1.0000
  H   H30       1.0  0.85558  0.71159  0.32791  1.0000
  H   H31       1.0  0.28596  0.25167  0.77979  1.0000
  H   H32       1.0  0.71404  0.74833  0.22021  1.0000
  H   H33       1.0  0.61075  0.11231  0.58862  1.0000
  H   H34       1.0  0.38925  0.88768  0.41138  1.0000
  H   H35       1.0  0.46522  0.14420  0.47966  1.0000
  H   H36       1.0  0.53478  0.85579  0.52034  1.0000
  H   H37       1.0  0.72597  0.22308  0.87265  1.0000
  H   H38       1.0  0.27402  0.77692  0.12736  1.0000
  H   H39       1.0  0.88278  0.07701  0.00630  1.0000
  H   H40       1.0  0.11723  0.92300  0.99370  1.0000
  H   H41       1.0  0.74994  0.92815  0.90288  1.0000
  H   H42       1.0  0.25007  0.07185  0.09713  1.0000
  H   H43       1.0  0.59553  0.93136  0.77789  1.0000
  H   H44       1.0  0.40447  0.06864  0.22212  1.0000
  C   C1        1.0  0.72940  0.36423  0.15918  1.0000
  C   C2        1.0  0.27058  0.63577  0.84081  1.0000
  C   C3        1.0  0.64394  0.43602  0.21585  1.0000
  C   C4        1.0  0.35605  0.56398  0.78415  1.0000
  C   C5        1.0  0.64375  0.52076  0.20880  1.0000
  C   C6        1.0  0.35625  0.47924  0.79120  1.0000
  C   C7        1.0  0.72656  0.53012  0.14458  1.0000
  C   C8        1.0  0.27343  0.46988  0.85542  1.0000
  C   C9        1.0  0.80835  0.45547  0.09017  1.0000
  C   C10       1.0  0.19165  0.54453  0.90984  1.0000
  C   C11       1.0  0.55524  0.42613  0.28448  1.0000
  C   C12       1.0  0.44475  0.57387  0.71552  1.0000
  C   C13       1.0  0.45727  0.31265  0.32909  1.0000
  C   C14       1.0  0.54272  0.68735  0.67091  1.0000
  C   C15       1.0  0.33416  0.25147  0.29484  1.0000
  C   C16       1.0  0.66584  0.74853  0.70515  1.0000
  C   C17       1.0  0.25325  0.22265  0.34892  1.0000
  C   C18       1.0  0.74675  0.77735  0.65108  1.0000
  C   C19       1.0  0.29489  0.25518  0.43657  1.0000
  C   C20       1.0  0.70511  0.74482  0.56343  1.0000
  C   C21       1.0  0.41856  0.31808  0.46936  1.0000
  C   C22       1.0  0.58144  0.68192  0.53064  1.0000
  C   C23       1.0  0.50112  0.34706  0.41612  1.0000
  C   C24       1.0  0.49888  0.65294  0.58388  1.0000
  C   C25       1.0  0.20009  0.23141  0.49864  1.0000
  C   C26       1.0  0.79991  0.76859  0.50136  1.0000
  C   C27       1.0  0.09888  0.14280  0.45510  1.0000
  C   C28       1.0  0.90113  0.85719  0.54490  1.0000
  C   C29       1.0  0.14193  0.05145  0.41032  1.0000
  C   C30       1.0  0.85807  0.94855  0.58968  1.0000
  C   C31       1.0  0.02937  0.98102  0.37905  1.0000
  C   C32       1.0  0.97064  0.01898  0.62095  1.0000
  C   C33       1.0  0.87785  0.99995  0.39167  1.0000
  C   C34       1.0  0.12215  0.00004  0.60832  1.0000
  C   C35       1.0  0.83624  0.09223  0.43670  1.0000
  C   C36       1.0  0.16377  0.90776  0.56329  1.0000
  C   C37       1.0  0.94692  0.16393  0.46891  1.0000
  C   C38       1.0  0.05309  0.83607  0.53109  1.0000
  C   C39       1.0  0.93715  0.26508  0.51763  1.0000
  C   C40       1.0  0.06286  0.73492  0.48237  1.0000
  C   C41       1.0  0.81382  0.32151  0.54460  1.0000
  C   C42       1.0  0.18618  0.67849  0.45540  1.0000
  C   C43       1.0  0.83663  0.41852  0.58641  1.0000
  C   C44       1.0  0.16338  0.58148  0.41359  1.0000
  C   C45       1.0  0.98258  0.45744  0.60074  1.0000
  C   C46       1.0  0.01743  0.54255  0.39926  1.0000
  C   C47       1.0  0.10763  0.40228  0.57621  1.0000
  C   C48       1.0  0.89239  0.59772  0.42379  1.0000
  C   C49       1.0  0.08309  0.30602  0.53514  1.0000
  C   C50       1.0  0.91692  0.69398  0.46486  1.0000
  C   C51       1.0  0.29513  0.21959  0.56847  1.0000
  C   C52       1.0  0.70487  0.78040  0.43153  1.0000
  C   C53       1.0  0.24691  0.25044  0.65340  1.0000
  C   C54       1.0  0.75310  0.74957  0.34660  1.0000
  C   C55       1.0  0.32622  0.23093  0.71442  1.0000
  C   C56       1.0  0.67379  0.76907  0.28558  1.0000
  C   C57       1.0  0.45611  0.18169  0.69010  1.0000
  C   C58       1.0  0.54389  0.81831  0.30990  1.0000
  C   C59       1.0  0.50822  0.15044  0.60617  1.0000
  C   C60       1.0  0.49178  0.84956  0.39383  1.0000
  C   C61       1.0  0.42635  0.16917  0.54574  1.0000
  C   C62       1.0  0.57365  0.83082  0.45426  1.0000
  C   C63       1.0  0.55712  0.07885  0.74402  1.0000
  C   C64       1.0  0.44287  0.92115  0.25599  1.0000
  C   C65       1.0  0.64590  0.07782  0.81791  1.0000
  C   C66       1.0  0.35409  0.92218  0.18210  1.0000
  C   C67       1.0  0.72518  0.15698  0.87800  1.0000
  C   C68       1.0  0.27482  0.84302  0.12200  1.0000
  C   C69       1.0  0.81328  0.07384  0.95186  1.0000
  C   C70       1.0  0.18673  0.92616  0.04815  1.0000
  C   C71       1.0  0.73833  0.99203  0.89435  1.0000
  C   C72       1.0  0.26168  0.00797  0.10566  1.0000
  C   C73       1.0  0.65405  0.99380  0.82589  1.0000
  C   C74       1.0  0.34595  0.00621  0.17412  1.0000
  Br  Br1       1.0  0.07038  0.21756  0.11591  1.0000
  Br  Br2       1.0  0.92962  0.78242  0.88408  1.0000
  Br  Br3       1.0  0.05868  0.32190  0.92473  1.0000
  Br  Br4       1.0  0.94132  0.67810  0.07527  1.0000
  Br  Br5       1.0  0.08589  0.85520  0.31591  1.0000
  Br  Br6       1.0  0.91412  0.14479  0.68408  1.0000
  Br  Br7       1.0  0.01152  0.58991  0.65417  1.0000
  Br  Br8       1.0  0.98849  0.41009  0.34583  1.0000
  N   N1        1.0  0.80991  0.37410  0.09761  1.0000
  N   N2        1.0  0.19008  0.62590  0.90239  1.0000
  N   N3        1.0  0.80751  0.15455  0.94343  1.0000
  N   N4        1.0  0.19249  0.84545  0.05657  1.0000
  O   O1        1.0  0.50138  0.49136  0.34447  1.0000
  O   O2        1.0  0.49861  0.50864  0.65553  1.0000
  O   O3        1.0  0.54034  0.33502  0.27062  1.0000
  O   O4        1.0  0.45965  0.66498  0.72938  1.0000
  O   O5        1.0  0.53628  0.16817  0.75510  1.0000
  O   O6        1.0  0.46372  0.83183  0.24491  1.0000
  O   O7        1.0  0.50817  0.00898  0.68219  1.0000
  O   O8        1.0  0.49183  0.99102  0.31782  1.0000
