data_image0
_chemical_formula_structural       Ag4P4H28C20S4N8O16
_chemical_formula_sum              "Ag4 P4 H28 C20 S4 N8 O16"
_cell_length_a       9.52102
_cell_length_b       10.691
_cell_length_c       11.1443
_cell_angle_alpha    110.927
_cell_angle_beta     115.294
_cell_angle_gamma    89.9771

_space_group_name_H-M_alt    "P 1"
_space_group_IT_number       1

loop_
  _space_group_symop_operation_xyz
  'x, y, z'

loop_
  _atom_site_type_symbol
  _atom_site_label
  _atom_site_symmetry_multiplicity
  _atom_site_fract_x
  _atom_site_fract_y
  _atom_site_fract_z
  _atom_site_occupancy
  Ag  Ag1       1.0  0.58904  0.45695  0.89621  1.0000
  Ag  Ag2       1.0  0.69305  0.04315  0.10441  1.0000
  Ag  Ag3       1.0  0.41097  0.54304  0.10380  1.0000
  Ag  Ag4       1.0  0.30695  0.95685  0.89558  1.0000
  P   P1        1.0  0.77283  0.41283  0.21268  1.0000
  P   P2        1.0  0.56003  0.08705  0.78749  1.0000
  P   P3        1.0  0.22718  0.58716  0.78731  1.0000
  P   P4        1.0  0.43996  0.91295  0.21251  1.0000
  H   H1        1.0  0.60784  0.26814  0.38316  1.0000
  H   H2        1.0  0.22501  0.23200  0.61727  1.0000
  H   H3        1.0  0.39216  0.73185  0.61685  1.0000
  H   H4        1.0  0.77499  0.76800  0.38273  1.0000
  H   H5        1.0  0.53395  0.22888  0.57876  1.0000
  H   H6        1.0  0.95556  0.27114  0.42134  1.0000
  H   H7        1.0  0.46606  0.77112  0.42124  1.0000
  H   H8        1.0  0.04444  0.72886  0.57866  1.0000
  H   H9        1.0  0.73773  0.87401  0.82202  1.0000
  H   H10       1.0  0.91636  0.62575  0.17816  1.0000
  H   H11       1.0  0.26227  0.12599  0.17798  1.0000
  H   H12       1.0  0.08365  0.37426  0.82185  1.0000
  H   H13       1.0  0.80935  0.77122  0.70223  1.0000
  H   H14       1.0  0.10774  0.72845  0.29804  1.0000
  H   H15       1.0  0.19066  0.22878  0.29777  1.0000
  H   H16       1.0  0.89227  0.27156  0.70196  1.0000
  H   H17       1.0  0.93443  0.84767  0.89250  1.0000
  H   H18       1.0  0.04238  0.65229  0.10766  1.0000
  H   H19       1.0  0.06557  0.15233  0.10750  1.0000
  H   H20       1.0  0.95762  0.34771  0.89235  1.0000
  H   H21       1.0  0.00721  0.49777  0.39707  1.0000
  H   H22       1.0  0.61068  0.00248  0.60329  1.0000
  H   H23       1.0  0.99279  0.50223  0.60293  1.0000
  H   H24       1.0  0.38933  0.99752  0.39671  1.0000
  H   H25       1.0  0.86301  0.24907  0.10145  1.0000
  H   H26       1.0  0.75985  0.25139  0.89564  1.0000
  H   H27       1.0  0.13699  0.75094  0.89854  1.0000
  H   H28       1.0  0.24014  0.74861  0.10435  1.0000
  C   C1        1.0  0.62702  0.34002  0.48881  1.0000
  C   C2        1.0  0.13863  0.16008  0.51161  1.0000
  C   C3        1.0  0.37299  0.65998  0.51119  1.0000
  C   C4        1.0  0.86138  0.83992  0.48839  1.0000
  C   C5        1.0  0.59173  0.32251  0.58970  1.0000
  C   C6        1.0  0.00251  0.17752  0.41057  1.0000
  C   C7        1.0  0.40827  0.67749  0.41030  1.0000
  C   C8        1.0  0.99748  0.82248  0.58942  1.0000
  C   C9        1.0  0.69784  0.54436  0.70904  1.0000
  C   C10       1.0  0.98938  0.95559  0.29159  1.0000
  C   C11       1.0  0.30216  0.45563  0.29096  1.0000
  C   C12       1.0  0.01062  0.04442  0.70841  1.0000
  C   C13       1.0  0.75621  0.67881  0.82595  1.0000
  C   C14       1.0  0.93080  0.82115  0.17469  1.0000
  C   C15       1.0  0.24379  0.32118  0.17405  1.0000
  C   C16       1.0  0.06920  0.17886  0.82531  1.0000
  C   C17       1.0  0.81377  0.79814  0.80840  1.0000
  C   C18       1.0  0.00597  0.70171  0.19192  1.0000
  C   C19       1.0  0.18623  0.20186  0.19160  1.0000
  C   C20       1.0  0.99403  0.29829  0.80808  1.0000
  S   S1        1.0  0.71126  0.50611  0.54976  1.0000
  S   S2        1.0  0.16200  0.99392  0.45095  1.0000
  S   S3        1.0  0.28875  0.49388  0.45024  1.0000
  S   S4        1.0  0.83800  0.00608  0.54905  1.0000
  N   N1        1.0  0.63336  0.43659  0.71302  1.0000
  N   N2        1.0  0.92088  0.06335  0.28738  1.0000
  N   N3        1.0  0.36664  0.56341  0.28698  1.0000
  N   N4        1.0  0.07912  0.93665  0.71262  1.0000
  N   N5        1.0  0.75512  0.68853  0.94562  1.0000
  N   N6        1.0  0.80988  0.81148  0.05512  1.0000
  N   N7        1.0  0.24488  0.31147  0.05438  1.0000
  N   N8        1.0  0.19012  0.18852  0.94488  1.0000
  O   O1        1.0  0.67099  0.49367  0.13211  1.0000
  O   O2        1.0  0.53897  0.00609  0.86794  1.0000
  O   O3        1.0  0.32901  0.50633  0.86789  1.0000
  O   O4        1.0  0.46102  0.99391  0.13206  1.0000
  O   O5        1.0  0.69761  0.30621  0.23550  1.0000
  O   O6        1.0  0.46180  0.19347  0.76421  1.0000
  O   O7        1.0  0.30238  0.69379  0.76450  1.0000
  O   O8        1.0  0.53819  0.80653  0.23578  1.0000
  O   O9        1.0  0.90489  0.52734  0.36440  1.0000
  O   O10       1.0  0.54122  0.97271  0.63599  1.0000
  O   O11       1.0  0.09511  0.47266  0.63560  1.0000
  O   O12       1.0  0.45878  0.02730  0.36401  1.0000
  O   O13       1.0  0.88593  0.34866  0.13850  1.0000
  O   O14       1.0  0.74737  0.15207  0.86295  1.0000
  O   O15       1.0  0.11408  0.65134  0.86151  1.0000
  O   O16       1.0  0.25262  0.84794  0.13705  1.0000
