data_image0
_chemical_formula_structural       Zn4H36C48S4N4O16
_chemical_formula_sum              "Zn4 H36 C48 S4 N4 O16"
_cell_length_a       8.43866
_cell_length_b       9.66386
_cell_length_c       15.3668
_cell_angle_alpha    89.9999
_cell_angle_beta     90.0001
_cell_angle_gamma    96.0124

_space_group_name_H-M_alt    "P 1"
_space_group_IT_number       1

loop_
  _space_group_symop_operation_xyz
  'x, y, z'

loop_
  _atom_site_type_symbol
  _atom_site_label
  _atom_site_symmetry_multiplicity
  _atom_site_fract_x
  _atom_site_fract_y
  _atom_site_fract_z
  _atom_site_occupancy
  Zn  Zn1       1.0  0.03138  0.57919  0.07801  1.0000
  Zn  Zn2       1.0  0.46862  0.42081  0.57800  1.0000
  Zn  Zn3       1.0  0.96862  0.42081  0.92200  1.0000
  Zn  Zn4       1.0  0.53138  0.57919  0.42199  1.0000
  H   H1        1.0  0.76159  0.73059  0.76042  1.0000
  H   H2        1.0  0.73841  0.26941  0.26042  1.0000
  H   H3        1.0  0.23842  0.26941  0.23958  1.0000
  H   H4        1.0  0.26159  0.73059  0.73958  1.0000
  H   H5        1.0  0.60722  0.91574  0.70292  1.0000
  H   H6        1.0  0.89279  0.08426  0.20292  1.0000
  H   H7        1.0  0.39279  0.08426  0.29708  1.0000
  H   H8        1.0  0.10722  0.91574  0.79708  1.0000
  H   H9        1.0  0.67351  0.13652  0.94662  1.0000
  H   H10       1.0  0.82649  0.86348  0.44662  1.0000
  H   H11       1.0  0.32648  0.86348  0.05338  1.0000
  H   H12       1.0  0.17351  0.13652  0.55338  1.0000
  H   H13       1.0  0.82262  0.94729  0.00402  1.0000
  H   H14       1.0  0.67737  0.05271  0.50402  1.0000
  H   H15       1.0  0.17737  0.05271  0.99598  1.0000
  H   H16       1.0  0.32262  0.94729  0.49598  1.0000
  H   H17       1.0  0.58129  0.14384  0.64519  1.0000
  H   H18       1.0  0.91871  0.85615  0.14519  1.0000
  H   H19       1.0  0.41871  0.85615  0.35481  1.0000
  H   H20       1.0  0.08129  0.14385  0.85481  1.0000
  H   H21       1.0  0.32811  0.44107  0.76926  1.0000
  H   H22       1.0  0.17189  0.55893  0.26926  1.0000
  H   H23       1.0  0.67189  0.55893  0.23074  1.0000
  H   H24       1.0  0.82810  0.44107  0.73074  1.0000
  H   H25       1.0  0.47726  0.75689  0.93034  1.0000
  H   H26       1.0  0.02274  0.24311  0.43034  1.0000
  H   H27       1.0  0.52274  0.24311  0.06966  1.0000
  H   H28       1.0  0.97726  0.75689  0.56966  1.0000
  H   H29       1.0  0.45762  0.64086  0.83920  1.0000
  H   H30       1.0  0.04237  0.35914  0.33920  1.0000
  H   H31       1.0  0.54237  0.35914  0.16080  1.0000
  H   H32       1.0  0.95762  0.64086  0.66080  1.0000
  H   H33       1.0  0.54069  0.58838  0.93826  1.0000
  H   H34       1.0  0.95932  0.41162  0.43826  1.0000
  H   H35       1.0  0.45932  0.41162  0.06174  1.0000
  H   H36       1.0  0.04069  0.58838  0.56174  1.0000
  C   C1        1.0  0.88223  0.70966  0.92334  1.0000
  C   C2        1.0  0.61777  0.29034  0.42333  1.0000
  C   C3        1.0  0.11777  0.29035  0.07667  1.0000
  C   C4        1.0  0.38223  0.70965  0.57666  1.0000
  C   C5        1.0  0.80157  0.82719  0.88595  1.0000
  C   C6        1.0  0.69842  0.17282  0.38595  1.0000
  C   C7        1.0  0.19843  0.17282  0.11405  1.0000
  C   C8        1.0  0.30157  0.82718  0.61405  1.0000
  C   C9        1.0  0.74297  0.82055  0.80044  1.0000
  C   C10       1.0  0.75704  0.17945  0.30043  1.0000
  C   C11       1.0  0.25704  0.17945  0.19957  1.0000
  C   C12       1.0  0.24296  0.82055  0.69956  1.0000
  C   C13       1.0  0.65655  0.92431  0.76848  1.0000
  C   C14       1.0  0.84345  0.07569  0.26848  1.0000
  C   C15       1.0  0.34345  0.07568  0.23152  1.0000
  C   C16       1.0  0.15655  0.92431  0.73152  1.0000
  C   C17       1.0  0.62724  0.03804  0.82132  1.0000
  C   C18       1.0  0.87276  0.96196  0.32132  1.0000
  C   C19       1.0  0.37276  0.96196  0.17868  1.0000
  C   C20       1.0  0.12724  0.03804  0.67868  1.0000
  C   C21       1.0  0.68830  0.04546  0.90662  1.0000
  C   C22       1.0  0.81170  0.95454  0.40662  1.0000
  C   C23       1.0  0.31170  0.95454  0.09338  1.0000
  C   C24       1.0  0.18830  0.04546  0.59338  1.0000
  C   C25       1.0  0.77464  0.94142  0.93817  1.0000
  C   C26       1.0  0.72536  0.05859  0.43817  1.0000
  C   C27       1.0  0.22536  0.05859  0.06183  1.0000
  C   C28       1.0  0.27464  0.94141  0.56183  1.0000
  C   C29       1.0  0.54096  0.14915  0.78670  1.0000
  C   C30       1.0  0.95904  0.85085  0.28670  1.0000
  C   C31       1.0  0.45904  0.85085  0.21330  1.0000
  C   C32       1.0  0.04096  0.14915  0.71329  1.0000
  C   C33       1.0  0.52980  0.19064  0.70133  1.0000
  C   C34       1.0  0.97020  0.80936  0.20133  1.0000
  C   C35       1.0  0.47020  0.80936  0.29867  1.0000
  C   C36       1.0  0.02980  0.19065  0.79867  1.0000
  C   C37       1.0  0.39570  0.35184  0.76340  1.0000
  C   C38       1.0  0.10430  0.64816  0.26340  1.0000
  C   C39       1.0  0.60430  0.64816  0.23660  1.0000
  C   C40       1.0  0.89570  0.35184  0.73660  1.0000
  C   C41       1.0  0.28713  0.59120  0.94311  1.0000
  C   C42       1.0  0.21287  0.40880  0.44310  1.0000
  C   C43       1.0  0.71287  0.40880  0.05690  1.0000
  C   C44       1.0  0.78713  0.59120  0.55689  1.0000
  C   C45       1.0  0.44944  0.64840  0.91008  1.0000
  C   C46       1.0  0.05056  0.35161  0.41008  1.0000
  C   C47       1.0  0.55056  0.35161  0.08992  1.0000
  C   C48       1.0  0.94944  0.64839  0.58992  1.0000
  S   S1        1.0  0.44299  0.25928  0.85214  1.0000
  S   S2        1.0  0.05700  0.74072  0.35214  1.0000
  S   S3        1.0  0.55701  0.74072  0.14786  1.0000
  S   S4        1.0  0.94300  0.25928  0.64785  1.0000
  N   N1        1.0  0.44978  0.30548  0.68928  1.0000
  N   N2        1.0  0.05022  0.69453  0.18928  1.0000
  N   N3        1.0  0.55022  0.69452  0.31072  1.0000
  N   N4        1.0  0.94978  0.30548  0.81072  1.0000
  O   O1        1.0  0.93390  0.72452  0.00110  1.0000
  O   O2        1.0  0.56609  0.27548  0.50109  1.0000
  O   O3        1.0  0.06609  0.27548  0.99891  1.0000
  O   O4        1.0  0.43390  0.72452  0.49890  1.0000
  O   O5        1.0  0.89006  0.60279  0.87552  1.0000
  O   O6        1.0  0.60993  0.39720  0.37551  1.0000
  O   O7        1.0  0.10993  0.39720  0.12449  1.0000
  O   O8        1.0  0.39006  0.60280  0.62448  1.0000
  O   O9        1.0  0.24810  0.62970  0.01880  1.0000
  O   O10       1.0  0.25190  0.37030  0.51879  1.0000
  O   O11       1.0  0.75190  0.37030  0.98121  1.0000
  O   O12       1.0  0.74810  0.62970  0.48120  1.0000
  O   O13       1.0  0.20147  0.50760  0.89404  1.0000
  O   O14       1.0  0.29853  0.49241  0.39404  1.0000
  O   O15       1.0  0.79853  0.49241  0.10596  1.0000
  O   O16       1.0  0.70147  0.50760  0.60596  1.0000
