data_image0
_chemical_formula_structural       Er2H60C60S6O18
_chemical_formula_sum              "Er2 H60 C60 S6 O18"
_cell_length_a       11.7732
_cell_length_b       11.773
_cell_length_c       11.773
_cell_angle_alpha    79.767
_cell_angle_beta     79.7673
_cell_angle_gamma    79.7667

_space_group_name_H-M_alt    "P 1"
_space_group_IT_number       1

loop_
  _space_group_symop_operation_xyz
  'x, y, z'

loop_
  _atom_site_type_symbol
  _atom_site_label
  _atom_site_symmetry_multiplicity
  _atom_site_fract_x
  _atom_site_fract_y
  _atom_site_fract_z
  _atom_site_occupancy
  Er  Er1       1.0  0.17373  0.17374  0.17374  1.0000
  Er  Er2       1.0  0.82627  0.82626  0.82625  1.0000
  H   H1        1.0  0.23682  0.27641  0.44275  1.0000
  H   H2        1.0  0.44275  0.23683  0.27640  1.0000
  H   H3        1.0  0.27640  0.44275  0.23682  1.0000
  H   H4        1.0  0.76318  0.72359  0.55725  1.0000
  H   H5        1.0  0.55725  0.76318  0.72359  1.0000
  H   H6        1.0  0.72359  0.55725  0.76318  1.0000
  H   H7        1.0  0.37462  0.29284  0.57141  1.0000
  H   H8        1.0  0.57141  0.37463  0.29283  1.0000
  H   H9        1.0  0.29283  0.57141  0.37463  1.0000
  H   H10       1.0  0.62538  0.70716  0.42859  1.0000
  H   H11       1.0  0.42860  0.62538  0.70717  1.0000
  H   H12       1.0  0.70717  0.42859  0.62538  1.0000
  H   H13       1.0  0.32445  0.44097  0.70810  1.0000
  H   H14       1.0  0.70810  0.32446  0.44096  1.0000
  H   H15       1.0  0.44096  0.70810  0.32446  1.0000
  H   H16       1.0  0.67555  0.55903  0.29190  1.0000
  H   H17       1.0  0.29191  0.67555  0.55903  1.0000
  H   H18       1.0  0.55904  0.29189  0.67555  1.0000
  H   H19       1.0  0.13888  0.57744  0.70904  1.0000
  H   H20       1.0  0.70903  0.13889  0.57744  1.0000
  H   H21       1.0  0.57743  0.70904  0.13889  1.0000
  H   H22       1.0  0.86112  0.42256  0.29096  1.0000
  H   H23       1.0  0.29097  0.86111  0.42256  1.0000
  H   H24       1.0  0.42256  0.29096  0.86111  1.0000
  H   H25       1.0  0.06383  0.38169  0.86928  1.0000
  H   H26       1.0  0.86927  0.06383  0.38170  1.0000
  H   H27       1.0  0.38170  0.86928  0.06383  1.0000
  H   H28       1.0  0.93617  0.61831  0.13073  1.0000
  H   H29       1.0  0.13073  0.93617  0.61830  1.0000
  H   H30       1.0  0.61830  0.13072  0.93617  1.0000
  H   H31       1.0  0.91820  0.45985  0.86534  1.0000
  H   H32       1.0  0.86534  0.91819  0.45986  1.0000
  H   H33       1.0  0.45986  0.86535  0.91819  1.0000
  H   H34       1.0  0.08181  0.54015  0.13466  1.0000
  H   H35       1.0  0.13466  0.08181  0.54014  1.0000
  H   H36       1.0  0.54015  0.13465  0.08181  1.0000
  H   H37       1.0  0.94522  0.30178  0.87196  1.0000
  H   H38       1.0  0.87196  0.94522  0.30178  1.0000
  H   H39       1.0  0.30179  0.87196  0.94522  1.0000
  H   H40       1.0  0.05478  0.69822  0.12804  1.0000
  H   H41       1.0  0.12804  0.05478  0.69822  1.0000
  H   H42       1.0  0.69821  0.12804  0.05478  1.0000
  H   H43       1.0  0.78158  0.28288  0.02896  1.0000
  H   H44       1.0  0.02897  0.78157  0.28289  1.0000
  H   H45       1.0  0.28288  0.02897  0.78158  1.0000
  H   H46       1.0  0.21842  0.71711  0.97104  1.0000
  H   H47       1.0  0.97103  0.21842  0.71712  1.0000
  H   H48       1.0  0.71712  0.97103  0.21843  1.0000
  H   H49       1.0  0.74836  0.43192  0.06002  1.0000
  H   H50       1.0  0.06002  0.74836  0.43192  1.0000
  H   H51       1.0  0.43191  0.06003  0.74836  1.0000
  H   H52       1.0  0.25164  0.56808  0.93997  1.0000
  H   H53       1.0  0.93998  0.25164  0.56808  1.0000
  H   H54       1.0  0.56809  0.93997  0.25164  1.0000
  H   H55       1.0  0.77700  0.31185  0.17516  1.0000
  H   H56       1.0  0.17516  0.77699  0.31186  1.0000
  H   H57       1.0  0.31185  0.17517  0.77700  1.0000
  H   H58       1.0  0.22300  0.68815  0.82484  1.0000
  H   H59       1.0  0.82484  0.22300  0.68815  1.0000
  H   H60       1.0  0.68816  0.82483  0.22300  1.0000
  C   C1        1.0  0.05348  0.32443  0.34339  1.0000
  C   C2        1.0  0.34340  0.05348  0.32443  1.0000
  C   C3        1.0  0.32440  0.34341  0.05347  1.0000
  C   C4        1.0  0.94652  0.67556  0.65661  1.0000
  C   C5        1.0  0.65661  0.94652  0.67557  1.0000
  C   C6        1.0  0.67558  0.65659  0.94653  1.0000
  C   C7        1.0  0.02658  0.41420  0.42485  1.0000
  C   C8        1.0  0.42485  0.02658  0.41419  1.0000
  C   C9        1.0  0.41418  0.42486  0.02657  1.0000
  C   C10       1.0  0.97342  0.58580  0.57515  1.0000
  C   C11       1.0  0.57515  0.97342  0.58580  1.0000
  C   C12       1.0  0.58580  0.57515  0.97342  1.0000
  C   C13       1.0  0.10687  0.42030  0.49854  1.0000
  C   C14       1.0  0.49854  0.10688  0.42030  1.0000
  C   C15       1.0  0.42030  0.49854  0.10687  1.0000
  C   C16       1.0  0.89313  0.57970  0.50146  1.0000
  C   C17       1.0  0.50146  0.89313  0.57970  1.0000
  C   C18       1.0  0.57969  0.50146  0.89313  1.0000
  C   C19       1.0  0.21499  0.34264  0.50048  1.0000
  C   C20       1.0  0.50048  0.21499  0.34263  1.0000
  C   C21       1.0  0.34264  0.50048  0.21498  1.0000
  C   C22       1.0  0.78501  0.65736  0.49952  1.0000
  C   C23       1.0  0.49953  0.78502  0.65736  1.0000
  C   C24       1.0  0.65736  0.49952  0.78502  1.0000
  C   C25       1.0  0.29135  0.35105  0.57337  1.0000
  C   C26       1.0  0.57336  0.29135  0.35104  1.0000
  C   C27       1.0  0.35105  0.57337  0.29135  1.0000
  C   C28       1.0  0.70865  0.64895  0.42664  1.0000
  C   C29       1.0  0.42664  0.70865  0.64895  1.0000
  C   C30       1.0  0.64895  0.42663  0.70865  1.0000
  C   C31       1.0  0.26352  0.43607  0.64999  1.0000
  C   C32       1.0  0.64999  0.26353  0.43606  1.0000
  C   C33       1.0  0.43606  0.64999  0.26353  1.0000
  C   C34       1.0  0.73647  0.56393  0.35001  1.0000
  C   C35       1.0  0.35001  0.73647  0.56393  1.0000
  C   C36       1.0  0.56393  0.35001  0.73647  1.0000
  C   C37       1.0  0.16041  0.51194  0.65067  1.0000
  C   C38       1.0  0.65066  0.16042  0.51194  1.0000
  C   C39       1.0  0.51194  0.65066  0.16041  1.0000
  C   C40       1.0  0.83959  0.48806  0.34933  1.0000
  C   C41       1.0  0.34934  0.83959  0.48806  1.0000
  C   C42       1.0  0.48806  0.34934  0.83959  1.0000
  C   C43       1.0  0.07915  0.50786  0.57523  1.0000
  C   C44       1.0  0.57523  0.07915  0.50786  1.0000
  C   C45       1.0  0.50786  0.57523  0.07915  1.0000
  C   C46       1.0  0.92085  0.49214  0.42477  1.0000
  C   C47       1.0  0.42478  0.92085  0.49213  1.0000
  C   C48       1.0  0.49213  0.42477  0.92085  1.0000
  C   C49       1.0  0.97064  0.37751  0.89802  1.0000
  C   C50       1.0  0.89802  0.97064  0.37751  1.0000
  C   C51       1.0  0.37751  0.89802  0.97064  1.0000
  C   C52       1.0  0.02937  0.62249  0.10198  1.0000
  C   C53       1.0  0.10198  0.02936  0.62249  1.0000
  C   C54       1.0  0.62249  0.10197  0.02937  1.0000
  C   C55       1.0  0.79748  0.34464  0.08183  1.0000
  C   C56       1.0  0.08184  0.79747  0.34465  1.0000
  C   C57       1.0  0.34464  0.08184  0.79748  1.0000
  C   C58       1.0  0.20252  0.65536  0.91816  1.0000
  C   C59       1.0  0.91816  0.20252  0.65536  1.0000
  C   C60       1.0  0.65536  0.91815  0.20252  1.0000
  S   S1        1.0  0.94924  0.35888  0.05435  1.0000
  S   S2        1.0  0.05435  0.94925  0.35888  1.0000
  S   S3        1.0  0.35887  0.05436  0.94925  1.0000
  S   S4        1.0  0.05076  0.64111  0.94565  1.0000
  S   S5        1.0  0.94565  0.05076  0.64112  1.0000
  S   S6        1.0  0.64113  0.94564  0.05075  1.0000
  O   O1        1.0  0.12374  0.34820  0.24858  1.0000
  O   O2        1.0  0.24858  0.12374  0.34819  1.0000
  O   O3        1.0  0.34818  0.24858  0.12373  1.0000
  O   O4        1.0  0.87626  0.65180  0.75142  1.0000
  O   O5        1.0  0.75142  0.87626  0.65180  1.0000
  O   O6        1.0  0.65182  0.75141  0.87627  1.0000
  O   O7        1.0  0.00798  0.23213  0.36881  1.0000
  O   O8        1.0  0.36882  0.00797  0.23212  1.0000
  O   O9        1.0  0.23212  0.36883  0.00798  1.0000
  O   O10       1.0  0.99202  0.76787  0.63119  1.0000
  O   O11       1.0  0.63118  0.99203  0.76787  1.0000
  O   O12       1.0  0.76787  0.63116  0.99204  1.0000
  O   O13       1.0  0.01007  0.23527  0.09204  1.0000
  O   O14       1.0  0.09204  0.01007  0.23527  1.0000
  O   O15       1.0  0.23526  0.09204  0.01007  1.0000
  O   O16       1.0  0.98993  0.76473  0.90796  1.0000
  O   O17       1.0  0.90796  0.98993  0.76473  1.0000
  O   O18       1.0  0.76474  0.90796  0.98993  1.0000
