data_image0
_chemical_formula_structural       Ho2H60C60S6O18
_chemical_formula_sum              "Ho2 H60 C60 S6 O18"
_cell_length_a       11.7779
_cell_length_b       11.7778
_cell_length_c       11.7779
_cell_angle_alpha    79.7951
_cell_angle_beta     79.7943
_cell_angle_gamma    79.7947

_space_group_name_H-M_alt    "P 1"
_space_group_IT_number       1

loop_
  _space_group_symop_operation_xyz
  'x, y, z'

loop_
  _atom_site_type_symbol
  _atom_site_label
  _atom_site_symmetry_multiplicity
  _atom_site_fract_x
  _atom_site_fract_y
  _atom_site_fract_z
  _atom_site_occupancy
  Ho  Ho1       1.0  0.17348  0.17348  0.17348  1.0000
  Ho  Ho2       1.0  0.82652  0.82652  0.82652  1.0000
  H   H1        1.0  0.23571  0.27582  0.44321  1.0000
  H   H2        1.0  0.44321  0.23570  0.27582  1.0000
  H   H3        1.0  0.27582  0.44321  0.23571  1.0000
  H   H4        1.0  0.76429  0.72418  0.55679  1.0000
  H   H5        1.0  0.55678  0.76430  0.72418  1.0000
  H   H6        1.0  0.72418  0.55679  0.76429  1.0000
  H   H7        1.0  0.37397  0.29226  0.57116  1.0000
  H   H8        1.0  0.57116  0.37397  0.29225  1.0000
  H   H9        1.0  0.29226  0.57116  0.37397  1.0000
  H   H10       1.0  0.62603  0.70774  0.42884  1.0000
  H   H11       1.0  0.42884  0.62603  0.70775  1.0000
  H   H12       1.0  0.70774  0.42884  0.62602  1.0000
  H   H13       1.0  0.32477  0.44095  0.70708  1.0000
  H   H14       1.0  0.70708  0.32477  0.44093  1.0000
  H   H15       1.0  0.44095  0.70708  0.32477  1.0000
  H   H16       1.0  0.67523  0.55905  0.29292  1.0000
  H   H17       1.0  0.29292  0.67522  0.55906  1.0000
  H   H18       1.0  0.55905  0.29292  0.67523  1.0000
  H   H19       1.0  0.13968  0.57774  0.70810  1.0000
  H   H20       1.0  0.70811  0.13969  0.57772  1.0000
  H   H21       1.0  0.57773  0.70811  0.13968  1.0000
  H   H22       1.0  0.86032  0.42227  0.29190  1.0000
  H   H23       1.0  0.29190  0.86031  0.42228  1.0000
  H   H24       1.0  0.42227  0.29189  0.86031  1.0000
  H   H25       1.0  0.06376  0.37832  0.87013  1.0000
  H   H26       1.0  0.87013  0.06376  0.37832  1.0000
  H   H27       1.0  0.37831  0.87013  0.06376  1.0000
  H   H28       1.0  0.93624  0.62169  0.12987  1.0000
  H   H29       1.0  0.12987  0.93624  0.62168  1.0000
  H   H30       1.0  0.62168  0.12988  0.93624  1.0000
  H   H31       1.0  0.91910  0.45796  0.86414  1.0000
  H   H32       1.0  0.86414  0.91910  0.45796  1.0000
  H   H33       1.0  0.45797  0.86414  0.91909  1.0000
  H   H34       1.0  0.08090  0.54204  0.13585  1.0000
  H   H35       1.0  0.13586  0.08090  0.54204  1.0000
  H   H36       1.0  0.54204  0.13586  0.08091  1.0000
  H   H37       1.0  0.94429  0.29989  0.87264  1.0000
  H   H38       1.0  0.87264  0.94428  0.29989  1.0000
  H   H39       1.0  0.29989  0.87264  0.94428  1.0000
  H   H40       1.0  0.05571  0.70012  0.12736  1.0000
  H   H41       1.0  0.12736  0.05571  0.70011  1.0000
  H   H42       1.0  0.70011  0.12737  0.05572  1.0000
  H   H43       1.0  0.78102  0.28134  0.02855  1.0000
  H   H44       1.0  0.02856  0.78102  0.28134  1.0000
  H   H45       1.0  0.28133  0.02855  0.78103  1.0000
  H   H46       1.0  0.21898  0.71866  0.97144  1.0000
  H   H47       1.0  0.97145  0.21898  0.71866  1.0000
  H   H48       1.0  0.71867  0.97145  0.21897  1.0000
  H   H49       1.0  0.74707  0.43081  0.05778  1.0000
  H   H50       1.0  0.05778  0.74707  0.43080  1.0000
  H   H51       1.0  0.43079  0.05778  0.74708  1.0000
  H   H52       1.0  0.25292  0.56920  0.94222  1.0000
  H   H53       1.0  0.94222  0.25292  0.56919  1.0000
  H   H54       1.0  0.56920  0.94222  0.25293  1.0000
  H   H55       1.0  0.77504  0.31220  0.17413  1.0000
  H   H56       1.0  0.17414  0.77504  0.31220  1.0000
  H   H57       1.0  0.31219  0.17414  0.77505  1.0000
  H   H58       1.0  0.22496  0.68780  0.82586  1.0000
  H   H59       1.0  0.82586  0.22496  0.68780  1.0000
  H   H60       1.0  0.68781  0.82586  0.22495  1.0000
  C   C1        1.0  0.05307  0.32435  0.34376  1.0000
  C   C2        1.0  0.34377  0.05305  0.32435  1.0000
  C   C3        1.0  0.32434  0.34376  0.05307  1.0000
  C   C4        1.0  0.94693  0.67565  0.65624  1.0000
  C   C5        1.0  0.65624  0.94694  0.67565  1.0000
  C   C6        1.0  0.67565  0.65624  0.94693  1.0000
  C   C7        1.0  0.02622  0.41400  0.42511  1.0000
  C   C8        1.0  0.42510  0.02621  0.41401  1.0000
  C   C9        1.0  0.41401  0.42510  0.02622  1.0000
  C   C10       1.0  0.97378  0.58599  0.57489  1.0000
  C   C11       1.0  0.57490  0.97378  0.58600  1.0000
  C   C12       1.0  0.58599  0.57490  0.97378  1.0000
  C   C13       1.0  0.10655  0.42022  0.49859  1.0000
  C   C14       1.0  0.49860  0.10655  0.42022  1.0000
  C   C15       1.0  0.42022  0.49859  0.10655  1.0000
  C   C16       1.0  0.89345  0.57978  0.50140  1.0000
  C   C17       1.0  0.50141  0.89345  0.57978  1.0000
  C   C18       1.0  0.57978  0.50141  0.89345  1.0000
  C   C19       1.0  0.21433  0.34230  0.50061  1.0000
  C   C20       1.0  0.50061  0.21432  0.34229  1.0000
  C   C21       1.0  0.34230  0.50061  0.21433  1.0000
  C   C22       1.0  0.78567  0.65770  0.49939  1.0000
  C   C23       1.0  0.49939  0.78568  0.65771  1.0000
  C   C24       1.0  0.65770  0.49939  0.78567  1.0000
  C   C25       1.0  0.29092  0.35069  0.57322  1.0000
  C   C26       1.0  0.57321  0.29091  0.35068  1.0000
  C   C27       1.0  0.35069  0.57322  0.29092  1.0000
  C   C28       1.0  0.70908  0.64931  0.42678  1.0000
  C   C29       1.0  0.42679  0.70908  0.64932  1.0000
  C   C30       1.0  0.64931  0.42678  0.70908  1.0000
  C   C31       1.0  0.26361  0.43605  0.64933  1.0000
  C   C32       1.0  0.64933  0.26360  0.43604  1.0000
  C   C33       1.0  0.43605  0.64933  0.26361  1.0000
  C   C34       1.0  0.73639  0.56395  0.35067  1.0000
  C   C35       1.0  0.35067  0.73640  0.56396  1.0000
  C   C36       1.0  0.56395  0.35067  0.73639  1.0000
  C   C37       1.0  0.16071  0.51206  0.65004  1.0000
  C   C38       1.0  0.65005  0.16071  0.51205  1.0000
  C   C39       1.0  0.51205  0.65005  0.16070  1.0000
  C   C40       1.0  0.83930  0.48795  0.34995  1.0000
  C   C41       1.0  0.34996  0.83929  0.48795  1.0000
  C   C42       1.0  0.48795  0.34996  0.83929  1.0000
  C   C43       1.0  0.07920  0.50789  0.57503  1.0000
  C   C44       1.0  0.57504  0.07920  0.50789  1.0000
  C   C45       1.0  0.50789  0.57504  0.07920  1.0000
  C   C46       1.0  0.92081  0.49211  0.42496  1.0000
  C   C47       1.0  0.42496  0.92080  0.49211  1.0000
  C   C48       1.0  0.49211  0.42497  0.92080  1.0000
  C   C49       1.0  0.97032  0.37553  0.89819  1.0000
  C   C50       1.0  0.89819  0.97032  0.37553  1.0000
  C   C51       1.0  0.37553  0.89818  0.97032  1.0000
  C   C52       1.0  0.02968  0.62447  0.10181  1.0000
  C   C53       1.0  0.10181  0.02968  0.62447  1.0000
  C   C54       1.0  0.62447  0.10182  0.02968  1.0000
  C   C55       1.0  0.79628  0.34396  0.08076  1.0000
  C   C56       1.0  0.08077  0.79628  0.34396  1.0000
  C   C57       1.0  0.34395  0.08076  0.79629  1.0000
  C   C58       1.0  0.20371  0.65604  0.91924  1.0000
  C   C59       1.0  0.91924  0.20371  0.65604  1.0000
  C   C60       1.0  0.65605  0.91924  0.20371  1.0000
  S   S1        1.0  0.94774  0.35848  0.05424  1.0000
  S   S2        1.0  0.05425  0.94774  0.35847  1.0000
  S   S3        1.0  0.35847  0.05424  0.94775  1.0000
  S   S4        1.0  0.05226  0.64152  0.94575  1.0000
  S   S5        1.0  0.94575  0.05226  0.64152  1.0000
  S   S6        1.0  0.64152  0.94576  0.05226  1.0000
  O   O1        1.0  0.12286  0.34871  0.24886  1.0000
  O   O2        1.0  0.24887  0.12285  0.34870  1.0000
  O   O3        1.0  0.34871  0.24886  0.12286  1.0000
  O   O4        1.0  0.87714  0.65129  0.75114  1.0000
  O   O5        1.0  0.75113  0.87715  0.65130  1.0000
  O   O6        1.0  0.65129  0.75114  0.87714  1.0000
  O   O7        1.0  0.00813  0.23176  0.36924  1.0000
  O   O8        1.0  0.36925  0.00809  0.23177  1.0000
  O   O9        1.0  0.23175  0.36925  0.00812  1.0000
  O   O10       1.0  0.99188  0.76824  0.63075  1.0000
  O   O11       1.0  0.63075  0.99190  0.76824  1.0000
  O   O12       1.0  0.76823  0.63076  0.99189  1.0000
  O   O13       1.0  0.00828  0.23509  0.09290  1.0000
  O   O14       1.0  0.09290  0.00829  0.23508  1.0000
  O   O15       1.0  0.23508  0.09290  0.00830  1.0000
  O   O16       1.0  0.99171  0.76492  0.90710  1.0000
  O   O17       1.0  0.90710  0.99171  0.76491  1.0000
  O   O18       1.0  0.76491  0.90710  0.99171  1.0000
