data_image0
_chemical_formula_structural       Zn2H22C26N8O10
_chemical_formula_sum              "Zn2 H22 C26 N8 O10"
_cell_length_a       7.36249
_cell_length_b       9.93816
_cell_length_c       10.673
_cell_angle_alpha    113.505
_cell_angle_beta     101.866
_cell_angle_gamma    92.9769

_space_group_name_H-M_alt    "P 1"
_space_group_IT_number       1

loop_
  _space_group_symop_operation_xyz
  'x, y, z'

loop_
  _atom_site_type_symbol
  _atom_site_label
  _atom_site_symmetry_multiplicity
  _atom_site_fract_x
  _atom_site_fract_y
  _atom_site_fract_z
  _atom_site_occupancy
  Zn  Zn1       1.0  0.93292  0.28438  0.62989  1.0000
  Zn  Zn2       1.0  0.06708  0.71563  0.37012  1.0000
  H   H1        1.0  0.19602  0.12165  0.64074  1.0000
  H   H2        1.0  0.80398  0.87835  0.35926  1.0000
  H   H3        1.0  0.01630  0.03958  0.66415  1.0000
  H   H4        1.0  0.98369  0.96042  0.33585  1.0000
  H   H5        1.0  0.18096  0.89015  0.15149  1.0000
  H   H6        1.0  0.81904  0.10985  0.84851  1.0000
  H   H7        1.0  0.04066  0.89154  0.99466  1.0000
  H   H8        1.0  0.95934  0.10846  0.00534  1.0000
  H   H9        1.0  0.90397  0.64801  0.79728  1.0000
  H   H10       1.0  0.09602  0.35199  0.20272  1.0000
  H   H11       1.0  0.38513  0.65712  0.09845  1.0000
  H   H12       1.0  0.61487  0.34288  0.90155  1.0000
  H   H13       1.0  0.25925  0.36468  0.89584  1.0000
  H   H14       1.0  0.74074  0.63532  0.10416  1.0000
  H   H15       1.0  0.55568  0.41822  0.23107  1.0000
  H   H16       1.0  0.44431  0.58179  0.76893  1.0000
  H   H17       1.0  0.19024  0.94986  0.83084  1.0000
  H   H18       1.0  0.80976  0.05014  0.16916  1.0000
  H   H19       1.0  0.52866  0.93614  0.20563  1.0000
  H   H20       1.0  0.47134  0.06386  0.79437  1.0000
  H   H21       1.0  0.85359  0.39286  0.38255  1.0000
  H   H22       1.0  0.14641  0.60714  0.61745  1.0000
  C   C1        1.0  0.17072  0.86044  0.03956  1.0000
  C   C2        1.0  0.82928  0.13957  0.96044  1.0000
  C   C3        1.0  0.37394  0.26589  0.40810  1.0000
  C   C4        1.0  0.62606  0.73411  0.59190  1.0000
  C   C5        1.0  0.53879  0.24868  0.48994  1.0000
  C   C6        1.0  0.46122  0.75132  0.51006  1.0000
  C   C7        1.0  0.34049  0.93505  0.02030  1.0000
  C   C8        1.0  0.65951  0.06495  0.97970  1.0000
  C   C9        1.0  0.02026  0.60906  0.84825  1.0000
  C   C10       1.0  0.97974  0.39094  0.15175  1.0000
  C   C11       1.0  0.27163  0.61017  0.00405  1.0000
  C   C12       1.0  0.72836  0.38982  0.99595  1.0000
  C   C13       1.0  0.18036  0.22418  0.42181  1.0000
  C   C14       1.0  0.81964  0.77581  0.57819  1.0000
  C   C15       1.0  0.20769  0.46745  0.90453  1.0000
  C   C16       1.0  0.79231  0.53255  0.09547  1.0000
  C   C17       1.0  0.54384  0.18216  0.59578  1.0000
  C   C18       1.0  0.45616  0.81783  0.40422  1.0000
  C   C19       1.0  0.54994  0.36903  0.30542  1.0000
  C   C20       1.0  0.45005  0.63097  0.69458  1.0000
  C   C21       1.0  0.32607  0.97234  0.90550  1.0000
  C   C22       1.0  0.67394  0.02766  0.09449  1.0000
  C   C23       1.0  0.51573  0.96341  0.11491  1.0000
  C   C24       1.0  0.48428  0.03659  0.88508  1.0000
  C   C25       1.0  0.71544  0.35501  0.38782  1.0000
  C   C26       1.0  0.28455  0.64499  0.61218  1.0000
  N   N1        1.0  0.70721  0.29612  0.47957  1.0000
  N   N2        1.0  0.29278  0.70388  0.52043  1.0000
  N   N3        1.0  0.38069  0.32643  0.31613  1.0000
  N   N4        1.0  0.61931  0.67357  0.68387  1.0000
  N   N5        1.0  0.15174  0.69781  0.96694  1.0000
  N   N6        1.0  0.84826  0.30220  0.03306  1.0000
  N   N7        1.0  0.05071  0.46824  0.80788  1.0000
  N   N8        1.0  0.94928  0.53176  0.19212  1.0000
  O   O1        1.0  0.70451  0.19748  0.67668  1.0000
  O   O2        1.0  0.29548  0.80252  0.32331  1.0000
  O   O3        1.0  0.13299  0.32047  0.52646  1.0000
  O   O4        1.0  0.86702  0.67953  0.47355  1.0000
  O   O5        1.0  0.08408  0.10601  0.32735  1.0000
  O   O6        1.0  0.91592  0.89399  0.67265  1.0000
  O   O7        1.0  0.07951  0.13646  0.67509  1.0000
  O   O8        1.0  0.92049  0.86354  0.32492  1.0000
  O   O9        1.0  0.39334  0.11770  0.59661  1.0000
  O   O10       1.0  0.60666  0.88230  0.40339  1.0000
