data_image0
_chemical_formula_structural       Mn2H38C44N10O8
_chemical_formula_sum              "Mn2 H38 C44 N10 O8"
_cell_length_a       10.2227
_cell_length_b       11.3653
_cell_length_c       11.4638
_cell_angle_alpha    113.227
_cell_angle_beta     100.09
_cell_angle_gamma    113.168

_space_group_name_H-M_alt    "P 1"
_space_group_IT_number       1

loop_
  _space_group_symop_operation_xyz
  'x, y, z'

loop_
  _atom_site_type_symbol
  _atom_site_label
  _atom_site_symmetry_multiplicity
  _atom_site_fract_x
  _atom_site_fract_y
  _atom_site_fract_z
  _atom_site_occupancy
  Mn  Mn1       1.0  0.84508  0.03180  0.40234  1.0000
  Mn  Mn2       1.0  0.15492  0.96820  0.59767  1.0000
  H   H1        1.0  0.10077  0.07971  0.12950  1.0000
  H   H2        1.0  0.89923  0.92029  0.87051  1.0000
  H   H3        1.0  0.52584  0.10278  0.10457  1.0000
  H   H4        1.0  0.47416  0.89722  0.89543  1.0000
  H   H5        1.0  0.37748  0.02222  0.40821  1.0000
  H   H6        1.0  0.62252  0.97778  0.59180  1.0000
  H   H7        1.0  0.84653  0.27154  0.65456  1.0000
  H   H8        1.0  0.15347  0.72846  0.34544  1.0000
  H   H9        1.0  0.17666  0.71292  0.75120  1.0000
  H   H10       1.0  0.82334  0.28708  0.24881  1.0000
  H   H11       1.0  0.27125  0.59468  0.58178  1.0000
  H   H12       1.0  0.72876  0.40532  0.41822  1.0000
  H   H13       1.0  0.14097  0.31496  0.44822  1.0000
  H   H14       1.0  0.85903  0.68504  0.55178  1.0000
  H   H15       1.0  0.89959  0.73976  0.91221  1.0000
  H   H16       1.0  0.10041  0.26024  0.08779  1.0000
  H   H17       1.0  0.98289  0.74727  0.78747  1.0000
  H   H18       1.0  0.01711  0.25273  0.21252  1.0000
  H   H19       1.0  0.09850  0.80297  0.95448  1.0000
  H   H20       1.0  0.90150  0.19703  0.04551  1.0000
  H   H21       1.0  0.55995  0.24388  0.87339  1.0000
  H   H22       1.0  0.44005  0.75612  0.12661  1.0000
  H   H23       1.0  0.68104  0.28055  0.02893  1.0000
  H   H24       1.0  0.31896  0.71945  0.97107  1.0000
  H   H25       1.0  0.74923  0.27669  0.89374  1.0000
  H   H26       1.0  0.25077  0.72331  0.10625  1.0000
  H   H27       1.0  0.50374  0.34698  0.08608  1.0000
  H   H28       1.0  0.49626  0.65302  0.91392  1.0000
  H   H29       1.0  0.42847  0.48729  0.26086  1.0000
  H   H30       1.0  0.57153  0.51272  0.73913  1.0000
  H   H31       1.0  0.56971  0.76673  0.37960  1.0000
  H   H32       1.0  0.43029  0.23327  0.62040  1.0000
  H   H33       1.0  0.85822  0.76859  0.16633  1.0000
  H   H34       1.0  0.14178  0.23141  0.83367  1.0000
  H   H35       1.0  0.31637  0.06215  0.91416  1.0000
  H   H36       1.0  0.68363  0.93785  0.08584  1.0000
  H   H37       1.0  0.17226  0.08621  0.94220  1.0000
  H   H38       1.0  0.82775  0.91379  0.05780  1.0000
  C   C1        1.0  0.10848  0.02582  0.33598  1.0000
  C   C2        1.0  0.89153  0.97419  0.66402  1.0000
  C   C3        1.0  0.22861  0.05236  0.27620  1.0000
  C   C4        1.0  0.77139  0.94764  0.72380  1.0000
  C   C5        1.0  0.20472  0.07720  0.16635  1.0000
  C   C6        1.0  0.79528  0.92280  0.83365  1.0000
  C   C7        1.0  0.30853  0.09301  0.10017  1.0000
  C   C8        1.0  0.69146  0.90699  0.89982  1.0000
  C   C9        1.0  0.44161  0.08962  0.15213  1.0000
  C   C10       1.0  0.55839  0.91038  0.84787  1.0000
  C   C11       1.0  0.46640  0.06596  0.26295  1.0000
  C   C12       1.0  0.53360  0.93404  0.73705  1.0000
  C   C13       1.0  0.35945  0.04554  0.32516  1.0000
  C   C14       1.0  0.64056  0.95446  0.67485  1.0000
  C   C15       1.0  0.60510  0.05562  0.31107  1.0000
  C   C16       1.0  0.39490  0.94438  0.68893  1.0000
  C   C17       1.0  0.94130  0.34657  0.64160  1.0000
  C   C18       1.0  0.05870  0.65343  0.35840  1.0000
  C   C19       1.0  0.00563  0.50148  0.72077  1.0000
  C   C20       1.0  0.99437  0.49852  0.27923  1.0000
  C   C21       1.0  0.12474  0.59215  0.69666  1.0000
  C   C22       1.0  0.87526  0.40785  0.30334  1.0000
  C   C23       1.0  0.17705  0.52642  0.60024  1.0000
  C   C24       1.0  0.82296  0.47359  0.39976  1.0000
  C   C25       1.0  0.10614  0.37203  0.52658  1.0000
  C   C26       1.0  0.89386  0.62797  0.47342  1.0000
  C   C27       1.0  0.94848  0.56657  0.82369  1.0000
  C   C28       1.0  0.05153  0.43343  0.17631  1.0000
  C   C29       1.0  0.98308  0.72248  0.87074  1.0000
  C   C30       1.0  0.01692  0.27752  0.12926  1.0000
  C   C31       1.0  0.73919  0.47191  0.00665  1.0000
  C   C32       1.0  0.26081  0.52809  0.99335  1.0000
  C   C33       1.0  0.68044  0.30923  0.94805  1.0000
  C   C34       1.0  0.31955  0.69077  0.05194  1.0000
  C   C35       1.0  0.69000  0.54745  0.11204  1.0000
  C   C36       1.0  0.31000  0.45255  0.88796  1.0000
  C   C37       1.0  0.56857  0.46843  0.14127  1.0000
  C   C38       1.0  0.43143  0.53157  0.85872  1.0000
  C   C39       1.0  0.52447  0.54659  0.23852  1.0000
  C   C40       1.0  0.47552  0.45341  0.76148  1.0000
  C   C41       1.0  0.60178  0.70108  0.30451  1.0000
  C   C42       1.0  0.39822  0.29892  0.69549  1.0000
  C   C43       1.0  0.76242  0.70365  0.18517  1.0000
  C   C44       1.0  0.23758  0.29635  0.81483  1.0000
  N   N1        1.0  0.28241  0.11311  0.98861  1.0000
  N   N2        1.0  0.71759  0.88689  0.01139  1.0000
  N   N3        1.0  0.98879  0.28325  0.54568  1.0000
  N   N4        1.0  0.01121  0.71675  0.45432  1.0000
  N   N5        1.0  0.87270  0.48385  0.86898  1.0000
  N   N6        1.0  0.12730  0.51615  0.13102  1.0000
  N   N7        1.0  0.82876  0.55506  0.96883  1.0000
  N   N8        1.0  0.17124  0.44493  0.03117  1.0000
  N   N9        1.0  0.72000  0.77896  0.27825  1.0000
  N   N10       1.0  0.28000  0.22104  0.72175  1.0000
  O   O1        1.0  0.99907  0.04808  0.29715  1.0000
  O   O2        1.0  0.00093  0.95193  0.70286  1.0000
  O   O3        1.0  0.11716  0.97971  0.41951  1.0000
  O   O4        1.0  0.88284  0.02029  0.58048  1.0000
  O   O5        1.0  0.62640  0.02994  0.40930  1.0000
  O   O6        1.0  0.37361  0.97006  0.59070  1.0000
  O   O7        1.0  0.70107  0.07143  0.25164  1.0000
  O   O8        1.0  0.29893  0.92856  0.74836  1.0000
