data_image0
_chemical_formula_structural       Zn4H44C64N4O20
_chemical_formula_sum              "Zn4 H44 C64 N4 O20"
_cell_length_a       9.73322
_cell_length_b       10.4929
_cell_length_c       14.5734
_cell_angle_alpha    86.9821
_cell_angle_beta     80.6832
_cell_angle_gamma    71.5877

_space_group_name_H-M_alt    "P 1"
_space_group_IT_number       1

loop_
  _space_group_symop_operation_xyz
  'x, y, z'

loop_
  _atom_site_type_symbol
  _atom_site_label
  _atom_site_symmetry_multiplicity
  _atom_site_fract_x
  _atom_site_fract_y
  _atom_site_fract_z
  _atom_site_occupancy
  Zn  Zn1       1.0  0.19261  0.07234  0.11585  1.0000
  Zn  Zn2       1.0  0.80739  0.92766  0.88415  1.0000
  Zn  Zn3       1.0  0.75923  0.09225  0.38967  1.0000
  Zn  Zn4       1.0  0.24077  0.90775  0.61033  1.0000
  H   H1        1.0  0.23656  0.28331  0.97983  1.0000
  H   H2        1.0  0.76343  0.71669  0.02016  1.0000
  H   H3        1.0  0.34284  0.29745  0.81347  1.0000
  H   H4        1.0  0.65716  0.70254  0.18653  1.0000
  H   H5        1.0  0.47386  0.86395  0.80422  1.0000
  H   H6        1.0  0.52614  0.13605  0.19578  1.0000
  H   H7        1.0  0.35236  0.86818  0.96884  1.0000
  H   H8        1.0  0.64763  0.13182  0.03116  1.0000
  H   H9        1.0  0.33384  0.26478  0.65196  1.0000
  H   H10       1.0  0.66616  0.73521  0.34804  1.0000
  H   H11       1.0  0.47398  0.25364  0.49145  1.0000
  H   H12       1.0  0.52603  0.74635  0.50855  1.0000
  H   H13       1.0  0.78768  0.90056  0.55049  1.0000
  H   H14       1.0  0.21232  0.09943  0.44952  1.0000
  H   H15       1.0  0.66069  0.89488  0.71157  1.0000
  H   H16       1.0  0.33930  0.10511  0.28843  1.0000
  H   H17       1.0  0.09884  0.37267  0.39515  1.0000
  H   H18       1.0  0.90115  0.62733  0.60484  1.0000
  H   H19       1.0  0.02482  0.60853  0.45316  1.0000
  H   H20       1.0  0.97518  0.39147  0.54684  1.0000
  H   H21       1.0  0.94562  0.75475  0.17989  1.0000
  H   H22       1.0  0.05438  0.24526  0.82011  1.0000
  H   H23       1.0  0.14066  0.64589  0.03755  1.0000
  H   H24       1.0  0.85934  0.35411  0.96245  1.0000
  H   H25       1.0  0.12658  0.61091  0.87436  1.0000
  H   H26       1.0  0.87342  0.38909  0.12564  1.0000
  H   H27       1.0  0.32410  0.73123  0.32427  1.0000
  H   H28       1.0  0.67590  0.26878  0.67574  1.0000
  H   H29       1.0  0.39877  0.57835  0.04713  1.0000
  H   H30       1.0  0.60123  0.42166  0.95287  1.0000
  H   H31       1.0  0.57445  0.36486  0.09636  1.0000
  H   H32       1.0  0.42555  0.63514  0.90364  1.0000
  H   H33       1.0  0.25306  0.58041  0.45385  1.0000
  H   H34       1.0  0.74694  0.41960  0.54615  1.0000
  H   H35       1.0  0.27735  0.55892  0.61968  1.0000
  H   H36       1.0  0.72265  0.44108  0.38032  1.0000
  H   H37       1.0  0.93231  0.17438  0.47720  1.0000
  H   H38       1.0  0.06770  0.82562  0.52280  1.0000
  H   H39       1.0  0.96308  0.20378  0.36642  1.0000
  H   H40       1.0  0.03692  0.79622  0.63358  1.0000
  H   H41       1.0  0.99385  0.98041  0.10531  1.0000
  H   H42       1.0  0.00616  0.01958  0.89469  1.0000
  H   H43       1.0  0.90196  0.12555  0.15257  1.0000
  H   H44       1.0  0.09804  0.87444  0.84742  1.0000
  C   C1        1.0  0.28838  0.19318  0.93759  1.0000
  C   C2        1.0  0.71162  0.80682  0.06241  1.0000
  C   C3        1.0  0.34750  0.19986  0.84470  1.0000
  C   C4        1.0  0.65250  0.80014  0.15530  1.0000
  C   C5        1.0  0.41604  0.08081  0.79389  1.0000
  C   C6        1.0  0.58396  0.91918  0.20611  1.0000
  C   C7        1.0  0.42163  0.95921  0.84017  1.0000
  C   C8        1.0  0.57836  0.04079  0.15983  1.0000
  C   C9        1.0  0.35663  0.96025  0.93202  1.0000
  C   C10       1.0  0.64337  0.03975  0.06797  1.0000
  C   C11       1.0  0.48561  0.07974  0.69622  1.0000
  C   C12       1.0  0.51440  0.92026  0.30378  1.0000
  C   C13       1.0  0.43342  0.18145  0.63257  1.0000
  C   C14       1.0  0.56659  0.81854  0.36742  1.0000
  C   C15       1.0  0.51030  0.17627  0.54295  1.0000
  C   C16       1.0  0.48970  0.82372  0.45705  1.0000
  C   C17       1.0  0.68503  0.97724  0.57552  1.0000
  C   C18       1.0  0.31498  0.02276  0.42448  1.0000
  C   C19       1.0  0.61267  0.97483  0.66507  1.0000
  C   C20       1.0  0.38734  0.02516  0.33493  1.0000
  C   C21       1.0  0.11381  0.28731  0.22654  1.0000
  C   C22       1.0  0.88618  0.71270  0.77346  1.0000
  C   C23       1.0  0.06417  0.43142  0.25508  1.0000
  C   C24       1.0  0.93583  0.56858  0.74492  1.0000
  C   C25       1.0  0.06458  0.45750  0.34841  1.0000
  C   C26       1.0  0.93542  0.54250  0.65159  1.0000
  C   C27       1.0  0.02502  0.58821  0.38064  1.0000
  C   C28       1.0  0.97498  0.41179  0.61936  1.0000
  C   C29       1.0  0.98279  0.69627  0.31959  1.0000
  C   C30       1.0  0.01720  0.30373  0.68041  1.0000
  C   C31       1.0  0.98074  0.67052  0.22661  1.0000
  C   C32       1.0  0.01925  0.32948  0.77339  1.0000
  C   C33       1.0  0.02101  0.53911  0.19228  1.0000
  C   C34       1.0  0.97899  0.46090  0.80771  1.0000
  C   C35       1.0  0.01071  0.51834  0.09385  1.0000
  C   C36       1.0  0.98929  0.48166  0.90614  1.0000
  C   C37       1.0  0.07947  0.58116  0.02141  1.0000
  C   C38       1.0  0.92053  0.41884  0.97859  1.0000
  C   C39       1.0  0.06975  0.56229  0.92896  1.0000
  C   C40       1.0  0.93025  0.43771  0.07104  1.0000
  C   C41       1.0  0.93370  0.83618  0.35748  1.0000
  C   C42       1.0  0.06629  0.16382  0.64252  1.0000
  C   C43       1.0  0.64620  0.29229  0.26223  1.0000
  C   C44       1.0  0.35379  0.70771  0.73778  1.0000
  C   C45       1.0  0.54120  0.42489  0.23876  1.0000
  C   C46       1.0  0.45879  0.57512  0.76124  1.0000
  C   C47       1.0  0.46684  0.52683  0.30527  1.0000
  C   C48       1.0  0.53316  0.47317  0.69473  1.0000
  C   C49       1.0  0.37650  0.64924  0.27488  1.0000
  C   C50       1.0  0.62350  0.35077  0.72512  1.0000
  C   C51       1.0  0.35410  0.66945  0.18215  1.0000
  C   C52       1.0  0.64590  0.33055  0.81785  1.0000
  C   C53       1.0  0.42062  0.56425  0.11845  1.0000
  C   C54       1.0  0.57938  0.43575  0.88155  1.0000
  C   C55       1.0  0.51652  0.44515  0.14628  1.0000
  C   C56       1.0  0.48348  0.55485  0.85373  1.0000
  C   C57       1.0  0.26838  0.80339  0.14747  1.0000
  C   C58       1.0  0.73162  0.19662  0.85253  1.0000
  C   C59       1.0  0.48525  0.51174  0.40457  1.0000
  C   C60       1.0  0.51475  0.48826  0.59544  1.0000
  C   C61       1.0  0.36167  0.54516  0.47398  1.0000
  C   C62       1.0  0.63833  0.45484  0.52603  1.0000
  C   C63       1.0  0.37586  0.53293  0.56778  1.0000
  C   C64       1.0  0.62414  0.46707  0.43222  1.0000
  N   N1        1.0  0.29112  0.07527  0.98049  1.0000
  N   N2        1.0  0.70888  0.92473  0.01951  1.0000
  N   N3        1.0  0.63564  0.07669  0.51496  1.0000
  N   N4        1.0  0.36436  0.92330  0.48504  1.0000
  O   O1        1.0  0.08054  0.20001  0.28079  1.0000
  O   O2        1.0  0.91946  0.79999  0.71921  1.0000
  O   O3        1.0  0.19415  0.25457  0.14684  1.0000
  O   O4        1.0  0.80585  0.74543  0.85316  1.0000
  O   O5        1.0  0.96727  0.85818  0.43386  1.0000
  O   O6        1.0  0.03273  0.14182  0.56614  1.0000
  O   O7        1.0  0.85067  0.92933  0.31109  1.0000
  O   O8        1.0  0.14933  0.07068  0.68891  1.0000
  O   O9        1.0  0.60258  0.22934  0.33364  1.0000
  O   O10       1.0  0.39742  0.77066  0.66637  1.0000
  O   O11       1.0  0.76754  0.25012  0.21028  1.0000
  O   O12       1.0  0.23246  0.74987  0.78972  1.0000
  O   O13       1.0  0.28100  0.90766  0.18510  1.0000
  O   O14       1.0  0.71900  0.09234  0.81490  1.0000
  O   O15       1.0  0.19544  0.81024  0.08266  1.0000
  O   O16       1.0  0.80455  0.18976  0.91734  1.0000
  O   O17       1.0  0.98568  0.07573  0.10508  1.0000
  O   O18       1.0  0.01432  0.92427  0.89492  1.0000
  O   O19       1.0  0.88535  0.19669  0.42029  1.0000
  O   O20       1.0  0.11465  0.80331  0.57971  1.0000
