data_image0
_chemical_formula_structural       Co2H38C44N10O8
_chemical_formula_sum              "Co2 H38 C44 N10 O8"
_cell_length_a       10.0719
_cell_length_b       11.3695
_cell_length_c       11.4406
_cell_angle_alpha    114.013
_cell_angle_beta     98.8045
_cell_angle_gamma    113.603

_space_group_name_H-M_alt    "P 1"
_space_group_IT_number       1

loop_
  _space_group_symop_operation_xyz
  'x, y, z'

loop_
  _atom_site_type_symbol
  _atom_site_label
  _atom_site_symmetry_multiplicity
  _atom_site_fract_x
  _atom_site_fract_y
  _atom_site_fract_z
  _atom_site_occupancy
  Co  Co1       1.0  0.84419  0.53681  0.40648  1.0000
  Co  Co2       1.0  0.15581  0.46319  0.59352  1.0000
  H   H1        1.0  0.10376  0.58602  0.14662  1.0000
  H   H2        1.0  0.89625  0.41398  0.85338  1.0000
  H   H3        1.0  0.53030  0.60500  0.10659  1.0000
  H   H4        1.0  0.46970  0.39500  0.89340  1.0000
  H   H5        1.0  0.37679  0.51062  0.40586  1.0000
  H   H6        1.0  0.62321  0.48938  0.59414  1.0000
  H   H7        1.0  0.57328  0.28706  0.39515  1.0000
  H   H8        1.0  0.42672  0.71295  0.60485  1.0000
  H   H9        1.0  0.43436  0.00740  0.28357  1.0000
  H   H10       1.0  0.56564  0.99260  0.71644  1.0000
  H   H11       1.0  0.50685  0.86186  0.10379  1.0000
  H   H12       1.0  0.49315  0.13814  0.89622  1.0000
  H   H13       1.0  0.85552  0.28162  0.16711  1.0000
  H   H14       1.0  0.14448  0.71838  0.83289  1.0000
  H   H15       1.0  0.54916  0.75462  0.88972  1.0000
  H   H16       1.0  0.45084  0.24538  0.11028  1.0000
  H   H17       1.0  0.68520  0.79254  0.03645  1.0000
  H   H18       1.0  0.31480  0.20746  0.96355  1.0000
  H   H19       1.0  0.73543  0.78064  0.88943  1.0000
  H   H20       1.0  0.26457  0.21936  0.11058  1.0000
  H   H21       1.0  0.90207  0.24489  0.90690  1.0000
  H   H22       1.0  0.09793  0.75511  0.09310  1.0000
  H   H23       1.0  0.01795  0.26415  0.80360  1.0000
  H   H24       1.0  0.98205  0.73585  0.19640  1.0000
  H   H25       1.0  0.10146  0.30492  0.97341  1.0000
  H   H26       1.0  0.89854  0.69508  0.02659  1.0000
  H   H27       1.0  0.83339  0.77036  0.64840  1.0000
  H   H28       1.0  0.16660  0.22963  0.35159  1.0000
  H   H29       1.0  0.12566  0.80166  0.43074  1.0000
  H   H30       1.0  0.87433  0.19834  0.56926  1.0000
  H   H31       1.0  0.27290  0.08343  0.57168  1.0000
  H   H32       1.0  0.72710  0.91657  0.42832  1.0000
  H   H33       1.0  0.18706  0.21019  0.75102  1.0000
  H   H34       1.0  0.81294  0.78981  0.24898  1.0000
  H   H35       1.0  0.17967  0.60715  0.96540  1.0000
  H   H36       1.0  0.82033  0.39285  0.03460  1.0000
  H   H37       1.0  0.31632  0.57121  0.92302  1.0000
  H   H38       1.0  0.68368  0.42880  0.07698  1.0000
  C   C1        1.0  0.10930  0.52224  0.34649  1.0000
  C   C2        1.0  0.89070  0.47776  0.65351  1.0000
  C   C3        1.0  0.22932  0.54853  0.28335  1.0000
  C   C4        1.0  0.77068  0.45147  0.71665  1.0000
  C   C5        1.0  0.20743  0.58019  0.17843  1.0000
  C   C6        1.0  0.79257  0.41981  0.82157  1.0000
  C   C7        1.0  0.31249  0.59776  0.11038  1.0000
  C   C8        1.0  0.68752  0.40224  0.88962  1.0000
  C   C9        1.0  0.44506  0.58977  0.15560  1.0000
  C   C10       1.0  0.55494  0.41023  0.84440  1.0000
  C   C11       1.0  0.46817  0.56052  0.26228  1.0000
  C   C12       1.0  0.53183  0.43949  0.73772  1.0000
  C   C13       1.0  0.35968  0.53773  0.32589  1.0000
  C   C14       1.0  0.64032  0.46227  0.67411  1.0000
  C   C15       1.0  0.60808  0.55059  0.30768  1.0000
  C   C16       1.0  0.39192  0.44941  0.69232  1.0000
  C   C17       1.0  0.60488  0.21988  0.31868  1.0000
  C   C18       1.0  0.39512  0.78012  0.68132  1.0000
  C   C19       1.0  0.52858  0.06488  0.25613  1.0000
  C   C20       1.0  0.47142  0.93513  0.74387  1.0000
  C   C21       1.0  0.57112  0.98397  0.15634  1.0000
  C   C22       1.0  0.42888  0.01603  0.84366  1.0000
  C   C23       1.0  0.69032  0.06134  0.12115  1.0000
  C   C24       1.0  0.30968  0.93866  0.87886  1.0000
  C   C25       1.0  0.76184  0.21834  0.19106  1.0000
  C   C26       1.0  0.23816  0.78166  0.80894  1.0000
  C   C27       1.0  0.73759  0.98244  0.01273  1.0000
  C   C28       1.0  0.26241  0.01757  0.98727  1.0000
  C   C29       1.0  0.67459  0.81825  0.95397  1.0000
  C   C30       1.0  0.32541  0.18175  0.04603  1.0000
  C   C31       1.0  0.95129  0.06967  0.82509  1.0000
  C   C32       1.0  0.04871  0.93033  0.17491  1.0000
  C   C33       1.0  0.99533  0.22968  0.87845  1.0000
  C   C34       1.0  0.00467  0.77031  0.12155  1.0000
  C   C35       1.0  0.00431  0.99998  0.71752  1.0000
  C   C36       1.0  0.99569  0.00001  0.28248  1.0000
  C   C37       1.0  0.93127  0.84329  0.63447  1.0000
  C   C38       1.0  0.06873  0.15671  0.36553  1.0000
  C   C39       1.0  0.09529  0.86207  0.51330  1.0000
  C   C40       1.0  0.90471  0.13792  0.48670  1.0000
  C   C41       1.0  0.17564  0.01778  0.59146  1.0000
  C   C42       1.0  0.82436  0.98222  0.40854  1.0000
  C   C43       1.0  0.12826  0.08809  0.69297  1.0000
  C   C44       1.0  0.87173  0.91191  0.30702  1.0000
  N   N1        1.0  0.28802  0.62434  0.00336  1.0000
  N   N2        1.0  0.71198  0.37567  0.99664  1.0000
  N   N3        1.0  0.72125  0.29654  0.28703  1.0000
  N   N4        1.0  0.27875  0.70346  0.71297  1.0000
  N   N5        1.0  0.82909  0.06330  0.97251  1.0000
  N   N6        1.0  0.17091  0.93670  0.02749  1.0000
  N   N7        1.0  0.86950  0.98734  0.86924  1.0000
  N   N8        1.0  0.13050  0.01266  0.13076  1.0000
  N   N9        1.0  0.97379  0.77566  0.53340  1.0000
  N   N10       1.0  0.02621  0.22434  0.46660  1.0000
  O   O1        1.0  0.00156  0.54933  0.31427  1.0000
  O   O2        1.0  0.99844  0.45067  0.68573  1.0000
  O   O3        1.0  0.11597  0.47113  0.42575  1.0000
  O   O4        1.0  0.88402  0.52887  0.57424  1.0000
  O   O5        1.0  0.63149  0.52952  0.40845  1.0000
  O   O6        1.0  0.36850  0.47048  0.59155  1.0000
  O   O7        1.0  0.70584  0.56349  0.24731  1.0000
  O   O8        1.0  0.29416  0.43651  0.75269  1.0000
