data_image0
_chemical_formula_structural       Dy4Cd4H28C20S4N8O44
_chemical_formula_sum              "Dy4 Cd4 H28 C20 S4 N8 O44"
_cell_length_a       8.58713
_cell_length_b       10.4975
_cell_length_c       13.794
_cell_angle_alpha    90
_cell_angle_beta     101.792
_cell_angle_gamma    89.9996

_space_group_name_H-M_alt    "P 1"
_space_group_IT_number       1

loop_
  _space_group_symop_operation_xyz
  'x, y, z'

loop_
  _atom_site_type_symbol
  _atom_site_label
  _atom_site_symmetry_multiplicity
  _atom_site_fract_x
  _atom_site_fract_y
  _atom_site_fract_z
  _atom_site_occupancy
  Dy  Dy1       1.0  0.93291  0.89496  0.10866  1.0000
  Dy  Dy2       1.0  0.06709  0.39496  0.39134  1.0000
  Dy  Dy3       1.0  0.06709  0.10504  0.89134  1.0000
  Dy  Dy4       1.0  0.93291  0.60504  0.60866  1.0000
  Cd  Cd1       1.0  0.62405  0.48250  0.13399  1.0000
  Cd  Cd2       1.0  0.37595  0.98250  0.36601  1.0000
  Cd  Cd3       1.0  0.37595  0.51750  0.86601  1.0000
  Cd  Cd4       1.0  0.62405  0.01750  0.63399  1.0000
  H   H1        1.0  0.62723  0.25842  0.33789  1.0000
  H   H2        1.0  0.37277  0.75841  0.16211  1.0000
  H   H3        1.0  0.37277  0.74159  0.66211  1.0000
  H   H4        1.0  0.62723  0.24159  0.83789  1.0000
  H   H5        1.0  0.99645  0.89849  0.33356  1.0000
  H   H6        1.0  0.00354  0.39849  0.16643  1.0000
  H   H7        1.0  0.00354  0.10151  0.66644  1.0000
  H   H8        1.0  0.99645  0.60151  0.83356  1.0000
  H   H9        1.0  0.80873  0.91327  0.30096  1.0000
  H   H10       1.0  0.19127  0.41328  0.19904  1.0000
  H   H11       1.0  0.19127  0.08672  0.69904  1.0000
  H   H12       1.0  0.80873  0.58673  0.80096  1.0000
  H   H13       1.0  0.01100  0.63431  0.16752  1.0000
  H   H14       1.0  0.98900  0.13432  0.33248  1.0000
  H   H15       1.0  0.98900  0.36568  0.83248  1.0000
  H   H16       1.0  0.01100  0.86568  0.66752  1.0000
  H   H17       1.0  0.04992  0.68895  0.27424  1.0000
  H   H18       1.0  0.95008  0.18895  0.22577  1.0000
  H   H19       1.0  0.95008  0.31105  0.72577  1.0000
  H   H20       1.0  0.04992  0.81105  0.77423  1.0000
  H   H21       1.0  0.56121  0.88547  0.07141  1.0000
  H   H22       1.0  0.43879  0.38547  0.42859  1.0000
  H   H23       1.0  0.43879  0.11453  0.92859  1.0000
  H   H24       1.0  0.56121  0.61453  0.57141  1.0000
  H   H25       1.0  0.62682  0.02639  0.08224  1.0000
  H   H26       1.0  0.37317  0.52639  0.41776  1.0000
  H   H27       1.0  0.37318  0.97361  0.91776  1.0000
  H   H28       1.0  0.62682  0.47361  0.58224  1.0000
  C   C1        1.0  0.53157  0.24126  0.27449  1.0000
  C   C2        1.0  0.46843  0.74126  0.22551  1.0000
  C   C3        1.0  0.46843  0.75874  0.72551  1.0000
  C   C4        1.0  0.53157  0.25874  0.77449  1.0000
  C   C5        1.0  0.33247  0.15189  0.17556  1.0000
  C   C6        1.0  0.66753  0.65189  0.32444  1.0000
  C   C7        1.0  0.66754  0.84812  0.82444  1.0000
  C   C8        1.0  0.33246  0.34811  0.67556  1.0000
  C   C9        1.0  0.37694  0.26114  0.12916  1.0000
  C   C10       1.0  0.62306  0.76113  0.37084  1.0000
  C   C11       1.0  0.62306  0.73886  0.87084  1.0000
  C   C12       1.0  0.37694  0.23886  0.62916  1.0000
  C   C13       1.0  0.21247  0.05403  0.14456  1.0000
  C   C14       1.0  0.78754  0.55402  0.35544  1.0000
  C   C15       1.0  0.78754  0.94597  0.85545  1.0000
  C   C16       1.0  0.21246  0.44598  0.64456  1.0000
  C   C17       1.0  0.31657  0.32314  0.03250  1.0000
  C   C18       1.0  0.68343  0.82314  0.46750  1.0000
  C   C19       1.0  0.68344  0.67687  0.96750  1.0000
  C   C20       1.0  0.31657  0.17686  0.53250  1.0000
  S   S1        1.0  0.79914  0.21909  0.04404  1.0000
  S   S2        1.0  0.20086  0.71909  0.45596  1.0000
  S   S3        1.0  0.20087  0.78091  0.95596  1.0000
  S   S4        1.0  0.79914  0.28091  0.54404  1.0000
  N   N1        1.0  0.50275  0.31524  0.19333  1.0000
  N   N2        1.0  0.49725  0.81524  0.30667  1.0000
  N   N3        1.0  0.49725  0.68476  0.80667  1.0000
  N   N4        1.0  0.50275  0.18476  0.69333  1.0000
  N   N5        1.0  0.42957  0.14289  0.26783  1.0000
  N   N6        1.0  0.57043  0.64289  0.23217  1.0000
  N   N7        1.0  0.57044  0.85712  0.73217  1.0000
  N   N8        1.0  0.42957  0.35711  0.76783  1.0000
  O   O1        1.0  0.17911  0.97699  0.20964  1.0000
  O   O2        1.0  0.82089  0.47699  0.29036  1.0000
  O   O3        1.0  0.82090  0.02301  0.79037  1.0000
  O   O4        1.0  0.17910  0.52301  0.70964  1.0000
  O   O5        1.0  0.13835  0.04235  0.05482  1.0000
  O   O6        1.0  0.86165  0.54235  0.44518  1.0000
  O   O7        1.0  0.86165  0.95766  0.94519  1.0000
  O   O8        1.0  0.13834  0.45765  0.55481  1.0000
  O   O9        1.0  0.20892  0.27379  0.96748  1.0000
  O   O10       1.0  0.79108  0.77379  0.53252  1.0000
  O   O11       1.0  0.79109  0.72621  0.03252  1.0000
  O   O12       1.0  0.20891  0.22621  0.46748  1.0000
  O   O13       1.0  0.37974  0.43096  0.01921  1.0000
  O   O14       1.0  0.62025  0.93096  0.48079  1.0000
  O   O15       1.0  0.62025  0.56903  0.98079  1.0000
  O   O16       1.0  0.37975  0.06904  0.51921  1.0000
  O   O17       1.0  0.62869  0.18595  0.01447  1.0000
  O   O18       1.0  0.37130  0.68594  0.48552  1.0000
  O   O19       1.0  0.37131  0.81405  0.98553  1.0000
  O   O20       1.0  0.62869  0.31405  0.51447  1.0000
  O   O21       1.0  0.82253  0.34600  0.09450  1.0000
  O   O22       1.0  0.17747  0.84600  0.40550  1.0000
  O   O23       1.0  0.17747  0.65399  0.90551  1.0000
  O   O24       1.0  0.82253  0.15399  0.59449  1.0000
  O   O25       1.0  0.87862  0.12171  0.11860  1.0000
  O   O26       1.0  0.12138  0.62171  0.38140  1.0000
  O   O27       1.0  0.12138  0.87829  0.88140  1.0000
  O   O28       1.0  0.87862  0.37829  0.61860  1.0000
  O   O29       1.0  0.87627  0.22203  0.95735  1.0000
  O   O30       1.0  0.12373  0.72203  0.54265  1.0000
  O   O31       1.0  0.12374  0.77797  0.04265  1.0000
  O   O32       1.0  0.87626  0.27797  0.45735  1.0000
  O   O33       1.0  0.90914  0.93890  0.28421  1.0000
  O   O34       1.0  0.09086  0.43890  0.21579  1.0000
  O   O35       1.0  0.09086  0.06109  0.71579  1.0000
  O   O36       1.0  0.90914  0.56110  0.78421  1.0000
  O   O37       1.0  0.99813  0.71121  0.20480  1.0000
  O   O38       1.0  0.00186  0.21120  0.29520  1.0000
  O   O39       1.0  0.00186  0.28880  0.79520  1.0000
  O   O40       1.0  0.99814  0.78880  0.70480  1.0000
  O   O41       1.0  0.65072  0.93804  0.10505  1.0000
  O   O42       1.0  0.34928  0.43804  0.39495  1.0000
  O   O43       1.0  0.34928  0.06196  0.89495  1.0000
  O   O44       1.0  0.65072  0.56196  0.60505  1.0000
