data_image0
_chemical_formula_structural       Gd4Cd4H28C20S4N8O44
_chemical_formula_sum              "Gd4 Cd4 H28 C20 S4 N8 O44"
_cell_length_a       8.57789
_cell_length_b       10.5444
_cell_length_c       13.8376
_cell_angle_alpha    89.9999
_cell_angle_beta     101.883
_cell_angle_gamma    90

_space_group_name_H-M_alt    "P 1"
_space_group_IT_number       1

loop_
  _space_group_symop_operation_xyz
  'x, y, z'

loop_
  _atom_site_type_symbol
  _atom_site_label
  _atom_site_symmetry_multiplicity
  _atom_site_fract_x
  _atom_site_fract_y
  _atom_site_fract_z
  _atom_site_occupancy
  Gd  Gd1       1.0  0.93344  0.89501  0.10942  1.0000
  Gd  Gd2       1.0  0.06656  0.39501  0.39058  1.0000
  Gd  Gd3       1.0  0.06656  0.10499  0.89058  1.0000
  Gd  Gd4       1.0  0.93344  0.60499  0.60942  1.0000
  Cd  Cd1       1.0  0.62244  0.48483  0.13414  1.0000
  Cd  Cd2       1.0  0.37756  0.98483  0.36586  1.0000
  Cd  Cd3       1.0  0.37756  0.51517  0.86586  1.0000
  Cd  Cd4       1.0  0.62244  0.01517  0.63413  1.0000
  H   H1        1.0  0.62789  0.26127  0.33756  1.0000
  H   H2        1.0  0.37211  0.76127  0.16244  1.0000
  H   H3        1.0  0.37211  0.73874  0.66244  1.0000
  H   H4        1.0  0.62789  0.23873  0.83756  1.0000
  H   H5        1.0  0.99953  0.89808  0.33564  1.0000
  H   H6        1.0  0.00047  0.39808  0.16436  1.0000
  H   H7        1.0  0.00047  0.10192  0.66436  1.0000
  H   H8        1.0  0.99953  0.60192  0.83564  1.0000
  H   H9        1.0  0.81127  0.91099  0.30442  1.0000
  H   H10       1.0  0.18873  0.41099  0.19558  1.0000
  H   H11       1.0  0.18873  0.08900  0.69558  1.0000
  H   H12       1.0  0.81127  0.58900  0.80442  1.0000
  H   H13       1.0  0.01655  0.63298  0.16851  1.0000
  H   H14       1.0  0.98345  0.13298  0.33149  1.0000
  H   H15       1.0  0.98345  0.36702  0.83149  1.0000
  H   H16       1.0  0.01655  0.86702  0.66851  1.0000
  H   H17       1.0  0.05288  0.68818  0.27476  1.0000
  H   H18       1.0  0.94712  0.18818  0.22524  1.0000
  H   H19       1.0  0.94712  0.31182  0.72524  1.0000
  H   H20       1.0  0.05288  0.81182  0.77476  1.0000
  H   H21       1.0  0.55855  0.88636  0.07116  1.0000
  H   H22       1.0  0.44145  0.38636  0.42884  1.0000
  H   H23       1.0  0.44145  0.11364  0.92884  1.0000
  H   H24       1.0  0.55855  0.61364  0.57116  1.0000
  H   H25       1.0  0.62460  0.02652  0.08292  1.0000
  H   H26       1.0  0.37540  0.52652  0.41708  1.0000
  H   H27       1.0  0.37540  0.97348  0.91708  1.0000
  H   H28       1.0  0.62460  0.47348  0.58292  1.0000
  C   C1        1.0  0.53188  0.24386  0.27447  1.0000
  C   C2        1.0  0.46812  0.74385  0.22553  1.0000
  C   C3        1.0  0.46812  0.75615  0.72553  1.0000
  C   C4        1.0  0.53188  0.25615  0.77447  1.0000
  C   C5        1.0  0.33300  0.15386  0.17588  1.0000
  C   C6        1.0  0.66700  0.65386  0.32412  1.0000
  C   C7        1.0  0.66701  0.84614  0.82412  1.0000
  C   C8        1.0  0.33300  0.34614  0.67588  1.0000
  C   C9        1.0  0.37643  0.26304  0.12958  1.0000
  C   C10       1.0  0.62356  0.76304  0.37042  1.0000
  C   C11       1.0  0.62357  0.73696  0.87042  1.0000
  C   C12       1.0  0.37643  0.23696  0.62958  1.0000
  C   C13       1.0  0.21336  0.05575  0.14552  1.0000
  C   C14       1.0  0.78664  0.55575  0.35448  1.0000
  C   C15       1.0  0.78664  0.94426  0.85448  1.0000
  C   C16       1.0  0.21336  0.44425  0.64552  1.0000
  C   C17       1.0  0.31664  0.32400  0.03271  1.0000
  C   C18       1.0  0.68336  0.82399  0.46729  1.0000
  C   C19       1.0  0.68336  0.67601  0.96729  1.0000
  C   C20       1.0  0.31664  0.17601  0.53271  1.0000
  S   S1        1.0  0.79616  0.21930  0.04370  1.0000
  S   S2        1.0  0.20384  0.71930  0.45630  1.0000
  S   S3        1.0  0.20384  0.78070  0.95630  1.0000
  S   S4        1.0  0.79616  0.28070  0.54370  1.0000
  N   N1        1.0  0.50198  0.31765  0.19359  1.0000
  N   N2        1.0  0.49802  0.81765  0.30642  1.0000
  N   N3        1.0  0.49803  0.68235  0.80641  1.0000
  N   N4        1.0  0.50198  0.18235  0.69358  1.0000
  N   N5        1.0  0.43081  0.14523  0.26790  1.0000
  N   N6        1.0  0.56919  0.64523  0.23210  1.0000
  N   N7        1.0  0.56919  0.85477  0.73210  1.0000
  N   N8        1.0  0.43081  0.35477  0.76790  1.0000
  O   O1        1.0  0.18119  0.97940  0.21103  1.0000
  O   O2        1.0  0.81881  0.47940  0.28897  1.0000
  O   O3        1.0  0.81881  0.02061  0.78897  1.0000
  O   O4        1.0  0.18119  0.52061  0.71103  1.0000
  O   O5        1.0  0.13878  0.04311  0.05616  1.0000
  O   O6        1.0  0.86122  0.54311  0.44384  1.0000
  O   O7        1.0  0.86122  0.95689  0.94384  1.0000
  O   O8        1.0  0.13878  0.45689  0.55616  1.0000
  O   O9        1.0  0.20994  0.27416  0.96751  1.0000
  O   O10       1.0  0.79006  0.77416  0.53249  1.0000
  O   O11       1.0  0.79007  0.72584  0.03249  1.0000
  O   O12       1.0  0.20993  0.22584  0.46751  1.0000
  O   O13       1.0  0.37989  0.43120  0.01913  1.0000
  O   O14       1.0  0.62012  0.93120  0.48087  1.0000
  O   O15       1.0  0.62012  0.56880  0.98087  1.0000
  O   O16       1.0  0.37989  0.06880  0.51913  1.0000
  O   O17       1.0  0.62568  0.18560  0.01409  1.0000
  O   O18       1.0  0.37433  0.68560  0.48591  1.0000
  O   O19       1.0  0.37432  0.81440  0.98591  1.0000
  O   O20       1.0  0.62568  0.31440  0.51409  1.0000
  O   O21       1.0  0.81886  0.34577  0.09376  1.0000
  O   O22       1.0  0.18114  0.84577  0.40624  1.0000
  O   O23       1.0  0.18114  0.65423  0.90624  1.0000
  O   O24       1.0  0.81886  0.15423  0.59376  1.0000
  O   O25       1.0  0.87631  0.12285  0.11832  1.0000
  O   O26       1.0  0.12368  0.62285  0.38168  1.0000
  O   O27       1.0  0.12368  0.87715  0.88168  1.0000
  O   O28       1.0  0.87631  0.37715  0.61832  1.0000
  O   O29       1.0  0.87325  0.22181  0.95725  1.0000
  O   O30       1.0  0.12675  0.72181  0.54275  1.0000
  O   O31       1.0  0.12675  0.77819  0.04275  1.0000
  O   O32       1.0  0.87325  0.27818  0.45725  1.0000
  O   O33       1.0  0.91073  0.93770  0.28686  1.0000
  O   O34       1.0  0.08927  0.43770  0.21314  1.0000
  O   O35       1.0  0.08927  0.06230  0.71314  1.0000
  O   O36       1.0  0.91073  0.56230  0.78686  1.0000
  O   O37       1.0  0.00210  0.70973  0.20512  1.0000
  O   O38       1.0  0.99790  0.20973  0.29488  1.0000
  O   O39       1.0  0.99790  0.29027  0.79488  1.0000
  O   O40       1.0  0.00210  0.79027  0.70512  1.0000
  O   O41       1.0  0.64835  0.93839  0.10525  1.0000
  O   O42       1.0  0.35165  0.43839  0.39474  1.0000
  O   O43       1.0  0.35165  0.06161  0.89475  1.0000
  O   O44       1.0  0.64835  0.56160  0.60525  1.0000
