data_image0
_chemical_formula_structural       Tb4Cd4H28C20S4N8O44
_chemical_formula_sum              "Tb4 Cd4 H28 C20 S4 N8 O44"
_cell_length_a       8.5699
_cell_length_b       10.5304
_cell_length_c       13.814
_cell_angle_alpha    90.0001
_cell_angle_beta     101.874
_cell_angle_gamma    90.0001

_space_group_name_H-M_alt    "P 1"
_space_group_IT_number       1

loop_
  _space_group_symop_operation_xyz
  'x, y, z'

loop_
  _atom_site_type_symbol
  _atom_site_label
  _atom_site_symmetry_multiplicity
  _atom_site_fract_x
  _atom_site_fract_y
  _atom_site_fract_z
  _atom_site_occupancy
  Tb  Tb1       1.0  0.93244  0.89553  0.10891  1.0000
  Tb  Tb2       1.0  0.06756  0.39553  0.39109  1.0000
  Tb  Tb3       1.0  0.06756  0.10447  0.89109  1.0000
  Tb  Tb4       1.0  0.93244  0.60447  0.60891  1.0000
  Cd  Cd1       1.0  0.62350  0.48341  0.13385  1.0000
  Cd  Cd2       1.0  0.37650  0.98341  0.36615  1.0000
  Cd  Cd3       1.0  0.37650  0.51659  0.86615  1.0000
  Cd  Cd4       1.0  0.62350  0.01659  0.63385  1.0000
  H   H1        1.0  0.62897  0.25908  0.33799  1.0000
  H   H2        1.0  0.37103  0.75908  0.16201  1.0000
  H   H3        1.0  0.37103  0.74092  0.66202  1.0000
  H   H4        1.0  0.62897  0.24092  0.83798  1.0000
  H   H5        1.0  0.99519  0.89850  0.33453  1.0000
  H   H6        1.0  0.00481  0.39850  0.16547  1.0000
  H   H7        1.0  0.00481  0.10150  0.66547  1.0000
  H   H8        1.0  0.99519  0.60150  0.83453  1.0000
  H   H9        1.0  0.80700  0.91387  0.30172  1.0000
  H   H10       1.0  0.19300  0.41387  0.19828  1.0000
  H   H11       1.0  0.19299  0.08613  0.69828  1.0000
  H   H12       1.0  0.80700  0.58613  0.80172  1.0000
  H   H13       1.0  0.01252  0.63438  0.16765  1.0000
  H   H14       1.0  0.98747  0.13438  0.33235  1.0000
  H   H15       1.0  0.98748  0.36562  0.83235  1.0000
  H   H16       1.0  0.01252  0.86562  0.66765  1.0000
  H   H17       1.0  0.05116  0.68903  0.27429  1.0000
  H   H18       1.0  0.94884  0.18903  0.22571  1.0000
  H   H19       1.0  0.94884  0.31097  0.72571  1.0000
  H   H20       1.0  0.05116  0.81097  0.77429  1.0000
  H   H21       1.0  0.55867  0.88616  0.07045  1.0000
  H   H22       1.0  0.44133  0.38616  0.42955  1.0000
  H   H23       1.0  0.44133  0.11384  0.92955  1.0000
  H   H24       1.0  0.55867  0.61384  0.57045  1.0000
  H   H25       1.0  0.62464  0.02671  0.08218  1.0000
  H   H26       1.0  0.37536  0.52671  0.41782  1.0000
  H   H27       1.0  0.37536  0.97329  0.91782  1.0000
  H   H28       1.0  0.62464  0.47329  0.58218  1.0000
  C   C1        1.0  0.53284  0.24195  0.27471  1.0000
  C   C2        1.0  0.46716  0.74195  0.22530  1.0000
  C   C3        1.0  0.46717  0.75805  0.72529  1.0000
  C   C4        1.0  0.53283  0.25805  0.77470  1.0000
  C   C5        1.0  0.33327  0.15249  0.17595  1.0000
  C   C6        1.0  0.66673  0.65249  0.32405  1.0000
  C   C7        1.0  0.66674  0.84751  0.82405  1.0000
  C   C8        1.0  0.33326  0.34751  0.67595  1.0000
  C   C9        1.0  0.37718  0.26164  0.12964  1.0000
  C   C10       1.0  0.62282  0.76164  0.37036  1.0000
  C   C11       1.0  0.62283  0.73836  0.87035  1.0000
  C   C12       1.0  0.37717  0.23836  0.62964  1.0000
  C   C13       1.0  0.21277  0.05492  0.14542  1.0000
  C   C14       1.0  0.78723  0.55492  0.35459  1.0000
  C   C15       1.0  0.78723  0.94508  0.85459  1.0000
  C   C16       1.0  0.21277  0.44508  0.64541  1.0000
  C   C17       1.0  0.31693  0.32320  0.03289  1.0000
  C   C18       1.0  0.68307  0.82320  0.46711  1.0000
  C   C19       1.0  0.68307  0.67680  0.96711  1.0000
  C   C20       1.0  0.31693  0.17680  0.53289  1.0000
  S   S1        1.0  0.79773  0.21949  0.04357  1.0000
  S   S2        1.0  0.20227  0.71949  0.45643  1.0000
  S   S3        1.0  0.20227  0.78051  0.95643  1.0000
  S   S4        1.0  0.79773  0.28052  0.54356  1.0000
  N   N1        1.0  0.50321  0.31588  0.19372  1.0000
  N   N2        1.0  0.49679  0.81588  0.30628  1.0000
  N   N3        1.0  0.49679  0.68412  0.80628  1.0000
  N   N4        1.0  0.50321  0.18412  0.69372  1.0000
  N   N5        1.0  0.43112  0.14353  0.26807  1.0000
  N   N6        1.0  0.56888  0.64353  0.23193  1.0000
  N   N7        1.0  0.56888  0.85647  0.73193  1.0000
  N   N8        1.0  0.43112  0.35647  0.76807  1.0000
  O   O1        1.0  0.17944  0.97859  0.21077  1.0000
  O   O2        1.0  0.82056  0.47859  0.28923  1.0000
  O   O3        1.0  0.82056  0.02141  0.78923  1.0000
  O   O4        1.0  0.17944  0.52141  0.71076  1.0000
  O   O5        1.0  0.13819  0.04267  0.05587  1.0000
  O   O6        1.0  0.86180  0.54267  0.44413  1.0000
  O   O7        1.0  0.86180  0.95733  0.94413  1.0000
  O   O8        1.0  0.13819  0.45733  0.55587  1.0000
  O   O9        1.0  0.20978  0.27364  0.96764  1.0000
  O   O10       1.0  0.79023  0.77364  0.53236  1.0000
  O   O11       1.0  0.79023  0.72636  0.03236  1.0000
  O   O12       1.0  0.20978  0.22636  0.46764  1.0000
  O   O13       1.0  0.37987  0.43084  0.01954  1.0000
  O   O14       1.0  0.62013  0.93084  0.48047  1.0000
  O   O15       1.0  0.62013  0.56916  0.98046  1.0000
  O   O16       1.0  0.37987  0.06916  0.51953  1.0000
  O   O17       1.0  0.62679  0.18683  0.01360  1.0000
  O   O18       1.0  0.37321  0.68683  0.48640  1.0000
  O   O19       1.0  0.37321  0.81317  0.98640  1.0000
  O   O20       1.0  0.62679  0.31317  0.51359  1.0000
  O   O21       1.0  0.82149  0.34614  0.09357  1.0000
  O   O22       1.0  0.17851  0.84614  0.40644  1.0000
  O   O23       1.0  0.17851  0.65386  0.90644  1.0000
  O   O24       1.0  0.82148  0.15386  0.59356  1.0000
  O   O25       1.0  0.87655  0.12252  0.11839  1.0000
  O   O26       1.0  0.12345  0.62252  0.38162  1.0000
  O   O27       1.0  0.12345  0.87748  0.88162  1.0000
  O   O28       1.0  0.87655  0.37749  0.61838  1.0000
  O   O29       1.0  0.87535  0.22149  0.95717  1.0000
  O   O30       1.0  0.12466  0.72148  0.54283  1.0000
  O   O31       1.0  0.12466  0.77851  0.04283  1.0000
  O   O32       1.0  0.87534  0.27852  0.45716  1.0000
  O   O33       1.0  0.90792  0.93898  0.28516  1.0000
  O   O34       1.0  0.09209  0.43898  0.21484  1.0000
  O   O35       1.0  0.09208  0.06102  0.71484  1.0000
  O   O36       1.0  0.90791  0.56102  0.78516  1.0000
  O   O37       1.0  0.99912  0.71097  0.20487  1.0000
  O   O38       1.0  0.00088  0.21097  0.29513  1.0000
  O   O39       1.0  0.00088  0.28903  0.79513  1.0000
  O   O40       1.0  0.99912  0.78903  0.70487  1.0000
  O   O41       1.0  0.64867  0.93840  0.10424  1.0000
  O   O42       1.0  0.35133  0.43840  0.39576  1.0000
  O   O43       1.0  0.35132  0.06160  0.89577  1.0000
  O   O44       1.0  0.64867  0.56160  0.60423  1.0000
