data_image0
_chemical_formula_structural       Zn4H22C24N2O20
_chemical_formula_sum              "Zn4 H22 C24 N2 O20"
_cell_length_a       9.00887
_cell_length_b       8.9023
_cell_length_c       9.89611
_cell_angle_alpha    94.1985
_cell_angle_beta     107.331
_cell_angle_gamma    97.2311

_space_group_name_H-M_alt    "P 1"
_space_group_IT_number       1

loop_
  _space_group_symop_operation_xyz
  'x, y, z'

loop_
  _atom_site_type_symbol
  _atom_site_label
  _atom_site_symmetry_multiplicity
  _atom_site_fract_x
  _atom_site_fract_y
  _atom_site_fract_z
  _atom_site_occupancy
  Zn  Zn1       1.0  0.75646  0.13653  0.96675  1.0000
  Zn  Zn2       1.0  0.24354  0.86348  0.03325  1.0000
  Zn  Zn3       1.0  0.29125  0.45733  0.97957  1.0000
  Zn  Zn4       1.0  0.70875  0.54267  0.02043  1.0000
  H   H1        1.0  0.37220  0.82954  0.61546  1.0000
  H   H2        1.0  0.62781  0.17046  0.38454  1.0000
  H   H3        1.0  0.38035  0.71248  0.38026  1.0000
  H   H4        1.0  0.61965  0.28752  0.61974  1.0000
  H   H5        1.0  0.21577  0.27445  0.47727  1.0000
  H   H6        1.0  0.78422  0.72555  0.52273  1.0000
  H   H7        1.0  0.97519  0.23561  0.61456  1.0000
  H   H8        1.0  0.02481  0.76439  0.38544  1.0000
  H   H9        1.0  0.98015  0.42672  0.68341  1.0000
  H   H10       1.0  0.01985  0.57328  0.31659  1.0000
  H   H11       1.0  0.27774  0.16506  0.64417  1.0000
  H   H12       1.0  0.72226  0.83495  0.35583  1.0000
  H   H13       1.0  0.21266  0.13414  0.79281  1.0000
  H   H14       1.0  0.78734  0.86586  0.20720  1.0000
  H   H15       1.0  0.05244  0.17442  0.16408  1.0000
  H   H16       1.0  0.94755  0.82558  0.83593  1.0000
  H   H17       1.0  0.00651  0.99797  0.12978  1.0000
  H   H18       1.0  0.99348  0.00202  0.87021  1.0000
  H   H19       1.0  0.55161  0.89450  0.89093  1.0000
  H   H20       1.0  0.44839  0.10550  0.10907  1.0000
  H   H21       1.0  0.70236  0.83836  0.86245  1.0000
  H   H22       1.0  0.29764  0.16164  0.13755  1.0000
  C   C1        1.0  0.28016  0.70696  0.81146  1.0000
  C   C2        1.0  0.71984  0.29304  0.18854  1.0000
  C   C3        1.0  0.28795  0.61936  0.67971  1.0000
  C   C4        1.0  0.71205  0.38064  0.32029  1.0000
  C   C5        1.0  0.33835  0.70714  0.58412  1.0000
  C   C6        1.0  0.66166  0.29286  0.41588  1.0000
  C   C7        1.0  0.34389  0.64255  0.45405  1.0000
  C   C8        1.0  0.65611  0.35746  0.54595  1.0000
  C   C9        1.0  0.29638  0.48540  0.41603  1.0000
  C   C10       1.0  0.70362  0.51460  0.58397  1.0000
  C   C11       1.0  0.29155  0.40951  0.27371  1.0000
  C   C12       1.0  0.70845  0.59049  0.72629  1.0000
  C   C13       1.0  0.25023  0.39632  0.51115  1.0000
  C   C14       1.0  0.74976  0.60368  0.48885  1.0000
  C   C15       1.0  0.24678  0.45935  0.64329  1.0000
  C   C16       1.0  0.75322  0.54065  0.35671  1.0000
  C   C17       1.0  0.03092  0.32218  0.70737  1.0000
  C   C18       1.0  0.96908  0.67783  0.29263  1.0000
  C   C19       1.0  0.98919  0.27157  0.83759  1.0000
  C   C20       1.0  0.01081  0.72843  0.16241  1.0000
  C   C21       1.0  0.27727  0.21931  0.74726  1.0000
  C   C22       1.0  0.72273  0.78070  0.25274  1.0000
  C   C23       1.0  0.44444  0.25094  0.84948  1.0000
  C   C24       1.0  0.55556  0.74906  0.15052  1.0000
  N   N1        1.0  0.20256  0.35803  0.73841  1.0000
  N   N2        1.0  0.79744  0.64198  0.26159  1.0000
  O   O1        1.0  0.34385  0.84484  0.84337  1.0000
  O   O2        1.0  0.65615  0.15516  0.15663  1.0000
  O   O3        1.0  0.07748  0.32783  0.96013  1.0000
  O   O4        1.0  0.92252  0.67217  0.03987  1.0000
  O   O5        1.0  0.20314  0.64453  0.89062  1.0000
  O   O6        1.0  0.79686  0.35547  0.10938  1.0000
  O   O7        1.0  0.47330  0.35531  0.95428  1.0000
  O   O8        1.0  0.52670  0.64469  0.04572  1.0000
  O   O9        1.0  0.54133  0.17008  0.82717  1.0000
  O   O10       1.0  0.45867  0.82992  0.17283  1.0000
  O   O11       1.0  0.86485  0.17358  0.81388  1.0000
  O   O12       1.0  0.13515  0.82641  0.18612  1.0000
  O   O13       1.0  0.33408  0.49646  0.19074  1.0000
  O   O14       1.0  0.66592  0.50354  0.80926  1.0000
  O   O15       1.0  0.24678  0.26639  0.24799  1.0000
  O   O16       1.0  0.75322  0.73361  0.75201  1.0000
  O   O17       1.0  0.96038  0.09185  0.13015  1.0000
  O   O18       1.0  0.03961  0.90814  0.86985  1.0000
  O   O19       1.0  0.66814  0.90927  0.92814  1.0000
  O   O20       1.0  0.33186  0.09074  0.07186  1.0000
