data_image0
_chemical_formula_structural       Er4Cd4H28C20S4N8O44
_chemical_formula_sum              "Er4 Cd4 H28 C20 S4 N8 O44"
_cell_length_a       8.49329
_cell_length_b       10.4891
_cell_length_c       13.8295
_cell_angle_alpha    89.9999
_cell_angle_beta     102.079
_cell_angle_gamma    90.0001

_space_group_name_H-M_alt    "P 1"
_space_group_IT_number       1

loop_
  _space_group_symop_operation_xyz
  'x, y, z'

loop_
  _atom_site_type_symbol
  _atom_site_label
  _atom_site_symmetry_multiplicity
  _atom_site_fract_x
  _atom_site_fract_y
  _atom_site_fract_z
  _atom_site_occupancy
  Er  Er1       1.0  0.93209  0.89577  0.10778  1.0000
  Er  Er2       1.0  0.06792  0.39577  0.39222  1.0000
  Er  Er3       1.0  0.06791  0.10423  0.89222  1.0000
  Er  Er4       1.0  0.93207  0.60423  0.60778  1.0000
  Cd  Cd1       1.0  0.62625  0.48425  0.13409  1.0000
  Cd  Cd2       1.0  0.37375  0.98425  0.36591  1.0000
  Cd  Cd3       1.0  0.37374  0.51575  0.86590  1.0000
  Cd  Cd4       1.0  0.62625  0.01576  0.63409  1.0000
  H   H1        1.0  0.63055  0.26030  0.33869  1.0000
  H   H2        1.0  0.36945  0.76031  0.16131  1.0000
  H   H3        1.0  0.36945  0.73970  0.66130  1.0000
  H   H4        1.0  0.63055  0.23970  0.83868  1.0000
  H   H5        1.0  0.98785  0.89646  0.33031  1.0000
  H   H6        1.0  0.01215  0.39646  0.16969  1.0000
  H   H7        1.0  0.01218  0.10354  0.66969  1.0000
  H   H8        1.0  0.98782  0.60353  0.83031  1.0000
  H   H9        1.0  0.79804  0.91006  0.29292  1.0000
  H   H10       1.0  0.20196  0.41005  0.20708  1.0000
  H   H11       1.0  0.20198  0.08994  0.70708  1.0000
  H   H12       1.0  0.79801  0.58994  0.79291  1.0000
  H   H13       1.0  0.02255  0.63857  0.16393  1.0000
  H   H14       1.0  0.97747  0.13857  0.33607  1.0000
  H   H15       1.0  0.97745  0.36143  0.83607  1.0000
  H   H16       1.0  0.02251  0.86142  0.66392  1.0000
  H   H17       1.0  0.05309  0.68863  0.27214  1.0000
  H   H18       1.0  0.94691  0.18863  0.22787  1.0000
  H   H19       1.0  0.94691  0.31137  0.72786  1.0000
  H   H20       1.0  0.05308  0.81137  0.77213  1.0000
  H   H21       1.0  0.55936  0.88612  0.06967  1.0000
  H   H22       1.0  0.44064  0.38613  0.43033  1.0000
  H   H23       1.0  0.44065  0.11387  0.93034  1.0000
  H   H24       1.0  0.55935  0.61386  0.56967  1.0000
  H   H25       1.0  0.62521  0.02745  0.08253  1.0000
  H   H26       1.0  0.37480  0.52747  0.41747  1.0000
  H   H27       1.0  0.37480  0.97254  0.91747  1.0000
  H   H28       1.0  0.62519  0.47252  0.58253  1.0000
  C   C1        1.0  0.53386  0.24295  0.27511  1.0000
  C   C2        1.0  0.46614  0.74295  0.22489  1.0000
  C   C3        1.0  0.46614  0.75705  0.72489  1.0000
  C   C4        1.0  0.53386  0.25706  0.77511  1.0000
  C   C5        1.0  0.33345  0.15264  0.17551  1.0000
  C   C6        1.0  0.66656  0.65264  0.32449  1.0000
  C   C7        1.0  0.66654  0.84737  0.82448  1.0000
  C   C8        1.0  0.33346  0.34736  0.67551  1.0000
  C   C9        1.0  0.37791  0.26200  0.12934  1.0000
  C   C10       1.0  0.62209  0.76200  0.37067  1.0000
  C   C11       1.0  0.62209  0.73801  0.87066  1.0000
  C   C12       1.0  0.37792  0.23800  0.62933  1.0000
  C   C13       1.0  0.21225  0.05480  0.14393  1.0000
  C   C14       1.0  0.78776  0.55481  0.35607  1.0000
  C   C15       1.0  0.78775  0.94520  0.85606  1.0000
  C   C16       1.0  0.21224  0.44520  0.64393  1.0000
  C   C17       1.0  0.31711  0.32307  0.03225  1.0000
  C   C18       1.0  0.68290  0.82307  0.46776  1.0000
  C   C19       1.0  0.68290  0.67693  0.96775  1.0000
  C   C20       1.0  0.31709  0.17694  0.53224  1.0000
  S   S1        1.0  0.80104  0.21911  0.04470  1.0000
  S   S2        1.0  0.19895  0.71911  0.45530  1.0000
  S   S3        1.0  0.19896  0.78089  0.95529  1.0000
  S   S4        1.0  0.80104  0.28089  0.54470  1.0000
  N   N1        1.0  0.50442  0.31695  0.19393  1.0000
  N   N2        1.0  0.49558  0.81695  0.30607  1.0000
  N   N3        1.0  0.49558  0.68305  0.80607  1.0000
  N   N4        1.0  0.50443  0.18306  0.69393  1.0000
  N   N5        1.0  0.43127  0.14409  0.26808  1.0000
  N   N6        1.0  0.56874  0.64409  0.23192  1.0000
  N   N7        1.0  0.56872  0.85592  0.73191  1.0000
  N   N8        1.0  0.43127  0.35592  0.76809  1.0000
  O   O1        1.0  0.17623  0.97865  0.20869  1.0000
  O   O2        1.0  0.82378  0.47865  0.29131  1.0000
  O   O3        1.0  0.82377  0.02135  0.79131  1.0000
  O   O4        1.0  0.17623  0.52135  0.70869  1.0000
  O   O5        1.0  0.13953  0.04218  0.05392  1.0000
  O   O6        1.0  0.86047  0.54218  0.44608  1.0000
  O   O7        1.0  0.86047  0.95782  0.94607  1.0000
  O   O8        1.0  0.13952  0.45781  0.55392  1.0000
  O   O9        1.0  0.21211  0.27137  0.96596  1.0000
  O   O10       1.0  0.78789  0.77136  0.53403  1.0000
  O   O11       1.0  0.78790  0.72864  0.03404  1.0000
  O   O12       1.0  0.21211  0.22865  0.46596  1.0000
  O   O13       1.0  0.37786  0.43239  0.01957  1.0000
  O   O14       1.0  0.62213  0.93239  0.48043  1.0000
  O   O15       1.0  0.62213  0.56762  0.98043  1.0000
  O   O16       1.0  0.37787  0.06761  0.51957  1.0000
  O   O17       1.0  0.62800  0.18770  0.01454  1.0000
  O   O18       1.0  0.37201  0.68771  0.48547  1.0000
  O   O19       1.0  0.37201  0.81229  0.98546  1.0000
  O   O20       1.0  0.62799  0.31228  0.51454  1.0000
  O   O21       1.0  0.82674  0.34594  0.09507  1.0000
  O   O22       1.0  0.17324  0.84594  0.40494  1.0000
  O   O23       1.0  0.17324  0.65406  0.90493  1.0000
  O   O24       1.0  0.82677  0.15406  0.59507  1.0000
  O   O25       1.0  0.87976  0.12102  0.11925  1.0000
  O   O26       1.0  0.12023  0.62100  0.38075  1.0000
  O   O27       1.0  0.12024  0.87899  0.88074  1.0000
  O   O28       1.0  0.87976  0.37899  0.61926  1.0000
  O   O29       1.0  0.87902  0.22072  0.95838  1.0000
  O   O30       1.0  0.12097  0.72071  0.54163  1.0000
  O   O31       1.0  0.12099  0.77929  0.04162  1.0000
  O   O32       1.0  0.87903  0.27930  0.45838  1.0000
  O   O33       1.0  0.90145  0.93605  0.27925  1.0000
  O   O34       1.0  0.09856  0.43606  0.22075  1.0000
  O   O35       1.0  0.09857  0.06395  0.72075  1.0000
  O   O36       1.0  0.90142  0.56393  0.77925  1.0000
  O   O37       1.0  0.00583  0.71325  0.20246  1.0000
  O   O38       1.0  0.99419  0.21325  0.29754  1.0000
  O   O39       1.0  0.99418  0.28675  0.79753  1.0000
  O   O40       1.0  0.00581  0.78675  0.70246  1.0000
  O   O41       1.0  0.64968  0.93865  0.10416  1.0000
  O   O42       1.0  0.35032  0.43867  0.39585  1.0000
  O   O43       1.0  0.35033  0.06134  0.89585  1.0000
  O   O44       1.0  0.64967  0.56132  0.60415  1.0000
