data_image0
_chemical_formula_structural       Nd4Cd4H28C20S4N8O44
_chemical_formula_sum              "Nd4 Cd4 H28 C20 S4 N8 O44"
_cell_length_a       8.69819
_cell_length_b       10.6044
_cell_length_c       13.8725
_cell_angle_alpha    90
_cell_angle_beta     101.621
_cell_angle_gamma    90

_space_group_name_H-M_alt    "P 1"
_space_group_IT_number       1

loop_
  _space_group_symop_operation_xyz
  'x, y, z'

loop_
  _atom_site_type_symbol
  _atom_site_label
  _atom_site_symmetry_multiplicity
  _atom_site_fract_x
  _atom_site_fract_y
  _atom_site_fract_z
  _atom_site_occupancy
  Nd  Nd1       1.0  0.93406  0.89335  0.11114  1.0000
  Nd  Nd2       1.0  0.06594  0.39335  0.38886  1.0000
  Nd  Nd3       1.0  0.06594  0.10665  0.88886  1.0000
  Nd  Nd4       1.0  0.93406  0.60665  0.61114  1.0000
  Cd  Cd1       1.0  0.61815  0.48604  0.13422  1.0000
  Cd  Cd2       1.0  0.38185  0.98604  0.36577  1.0000
  Cd  Cd3       1.0  0.38185  0.51396  0.86577  1.0000
  Cd  Cd4       1.0  0.61815  0.01396  0.63422  1.0000
  H   H1        1.0  0.62557  0.26260  0.33615  1.0000
  H   H2        1.0  0.37443  0.76260  0.16385  1.0000
  H   H3        1.0  0.37443  0.73740  0.66385  1.0000
  H   H4        1.0  0.62557  0.23740  0.83615  1.0000
  H   H5        1.0  0.01041  0.89936  0.34253  1.0000
  H   H6        1.0  0.98959  0.39936  0.15748  1.0000
  H   H7        1.0  0.98959  0.10064  0.65747  1.0000
  H   H8        1.0  0.01041  0.60064  0.84252  1.0000
  H   H9        1.0  0.82477  0.91287  0.31709  1.0000
  H   H10       1.0  0.17523  0.41287  0.18291  1.0000
  H   H11       1.0  0.17523  0.08713  0.68291  1.0000
  H   H12       1.0  0.82477  0.58713  0.81709  1.0000
  H   H13       1.0  0.01577  0.62588  0.17461  1.0000
  H   H14       1.0  0.98423  0.12588  0.32539  1.0000
  H   H15       1.0  0.98423  0.37412  0.82539  1.0000
  H   H16       1.0  0.01577  0.87411  0.67461  1.0000
  H   H17       1.0  0.05554  0.68684  0.27822  1.0000
  H   H18       1.0  0.94445  0.18684  0.22178  1.0000
  H   H19       1.0  0.94445  0.31316  0.72177  1.0000
  H   H20       1.0  0.05555  0.81316  0.77823  1.0000
  H   H21       1.0  0.55431  0.88646  0.07020  1.0000
  H   H22       1.0  0.44569  0.38646  0.42980  1.0000
  H   H23       1.0  0.44569  0.11354  0.92980  1.0000
  H   H24       1.0  0.55431  0.61354  0.57020  1.0000
  H   H25       1.0  0.62123  0.02526  0.08246  1.0000
  H   H26       1.0  0.37877  0.52526  0.41754  1.0000
  H   H27       1.0  0.37877  0.97474  0.91754  1.0000
  H   H28       1.0  0.62123  0.47474  0.58246  1.0000
  C   C1        1.0  0.53002  0.24566  0.27392  1.0000
  C   C2        1.0  0.46998  0.74566  0.22608  1.0000
  C   C3        1.0  0.46998  0.75434  0.72608  1.0000
  C   C4        1.0  0.53002  0.25434  0.77392  1.0000
  C   C5        1.0  0.33203  0.15709  0.17712  1.0000
  C   C6        1.0  0.66798  0.65709  0.32288  1.0000
  C   C7        1.0  0.66797  0.84291  0.82288  1.0000
  C   C8        1.0  0.33202  0.34291  0.67711  1.0000
  C   C9        1.0  0.37494  0.26556  0.13052  1.0000
  C   C10       1.0  0.62506  0.76557  0.36947  1.0000
  C   C11       1.0  0.62506  0.73443  0.86947  1.0000
  C   C12       1.0  0.37494  0.23443  0.63052  1.0000
  C   C13       1.0  0.21452  0.05876  0.14803  1.0000
  C   C14       1.0  0.78548  0.55876  0.35197  1.0000
  C   C15       1.0  0.78548  0.94124  0.85197  1.0000
  C   C16       1.0  0.21452  0.44124  0.64803  1.0000
  C   C17       1.0  0.31607  0.32651  0.03403  1.0000
  C   C18       1.0  0.68393  0.82652  0.46597  1.0000
  C   C19       1.0  0.68393  0.67348  0.96597  1.0000
  C   C20       1.0  0.31607  0.17348  0.53403  1.0000
  S   S1        1.0  0.78886  0.22029  0.04242  1.0000
  S   S2        1.0  0.21114  0.72029  0.45758  1.0000
  S   S3        1.0  0.21114  0.77971  0.95758  1.0000
  S   S4        1.0  0.78886  0.27971  0.54242  1.0000
  N   N1        1.0  0.49996  0.31909  0.19342  1.0000
  N   N2        1.0  0.50004  0.81909  0.30658  1.0000
  N   N3        1.0  0.50003  0.68091  0.80658  1.0000
  N   N4        1.0  0.49996  0.18091  0.69342  1.0000
  N   N5        1.0  0.42989  0.14803  0.26816  1.0000
  N   N6        1.0  0.57011  0.64803  0.23184  1.0000
  N   N7        1.0  0.57011  0.85197  0.73184  1.0000
  N   N8        1.0  0.42989  0.35197  0.76816  1.0000
  O   O1        1.0  0.18649  0.98186  0.21388  1.0000
  O   O2        1.0  0.81352  0.48186  0.28612  1.0000
  O   O3        1.0  0.81351  0.01814  0.78612  1.0000
  O   O4        1.0  0.18648  0.51814  0.71388  1.0000
  O   O5        1.0  0.13854  0.04645  0.05953  1.0000
  O   O6        1.0  0.86146  0.54645  0.44047  1.0000
  O   O7        1.0  0.86146  0.95355  0.94047  1.0000
  O   O8        1.0  0.13854  0.45355  0.55953  1.0000
  O   O9        1.0  0.20631  0.27954  0.97087  1.0000
  O   O10       1.0  0.79369  0.77954  0.52913  1.0000
  O   O11       1.0  0.79369  0.72046  0.02913  1.0000
  O   O12       1.0  0.20630  0.22046  0.47088  1.0000
  O   O13       1.0  0.38247  0.43084  0.01898  1.0000
  O   O14       1.0  0.61753  0.93084  0.48102  1.0000
  O   O15       1.0  0.61753  0.56916  0.98102  1.0000
  O   O16       1.0  0.38247  0.06916  0.51898  1.0000
  O   O17       1.0  0.62094  0.18613  0.01465  1.0000
  O   O18       1.0  0.37906  0.68613  0.48535  1.0000
  O   O19       1.0  0.37906  0.81387  0.98535  1.0000
  O   O20       1.0  0.62094  0.31387  0.51465  1.0000
  O   O21       1.0  0.81110  0.34626  0.09200  1.0000
  O   O22       1.0  0.18890  0.84626  0.40800  1.0000
  O   O23       1.0  0.18890  0.65374  0.90800  1.0000
  O   O24       1.0  0.81110  0.15374  0.59200  1.0000
  O   O25       1.0  0.86959  0.12453  0.11622  1.0000
  O   O26       1.0  0.13041  0.62453  0.38378  1.0000
  O   O27       1.0  0.13041  0.87547  0.88378  1.0000
  O   O28       1.0  0.86959  0.37547  0.61622  1.0000
  O   O29       1.0  0.86340  0.22254  0.95536  1.0000
  O   O30       1.0  0.13660  0.72254  0.54464  1.0000
  O   O31       1.0  0.13660  0.77746  0.04464  1.0000
  O   O32       1.0  0.86340  0.27746  0.45536  1.0000
  O   O33       1.0  0.92031  0.93870  0.29583  1.0000
  O   O34       1.0  0.07970  0.43870  0.20417  1.0000
  O   O35       1.0  0.07969  0.06130  0.70417  1.0000
  O   O36       1.0  0.92031  0.56130  0.79583  1.0000
  O   O37       1.0  0.00256  0.70472  0.20870  1.0000
  O   O38       1.0  0.99744  0.20472  0.29130  1.0000
  O   O39       1.0  0.99744  0.29528  0.79130  1.0000
  O   O40       1.0  0.00256  0.79528  0.70870  1.0000
  O   O41       1.0  0.64393  0.93730  0.10387  1.0000
  O   O42       1.0  0.35607  0.43730  0.39613  1.0000
  O   O43       1.0  0.35607  0.06270  0.89613  1.0000
  O   O44       1.0  0.64393  0.56270  0.60387  1.0000
