data_image0
_chemical_formula_structural       Pr4Cd4H28C20S4N8O44
_chemical_formula_sum              "Pr4 Cd4 H28 C20 S4 N8 O44"
_cell_length_a       8.7369
_cell_length_b       10.6144
_cell_length_c       13.9032
_cell_angle_alpha    90
_cell_angle_beta     101.63
_cell_angle_gamma    89.9999

_space_group_name_H-M_alt    "P 1"
_space_group_IT_number       1

loop_
  _space_group_symop_operation_xyz
  'x, y, z'

loop_
  _atom_site_type_symbol
  _atom_site_label
  _atom_site_symmetry_multiplicity
  _atom_site_fract_x
  _atom_site_fract_y
  _atom_site_fract_z
  _atom_site_occupancy
  Pr  Pr1       1.0  0.93498  0.89151  0.11127  1.0000
  Pr  Pr2       1.0  0.06502  0.39151  0.38873  1.0000
  Pr  Pr3       1.0  0.06502  0.10849  0.88873  1.0000
  Pr  Pr4       1.0  0.93498  0.60849  0.61127  1.0000
  Cd  Cd1       1.0  0.61693  0.48698  0.13438  1.0000
  Cd  Cd2       1.0  0.38307  0.98698  0.36562  1.0000
  Cd  Cd3       1.0  0.38307  0.51302  0.86562  1.0000
  Cd  Cd4       1.0  0.61693  0.01302  0.63438  1.0000
  H   H1        1.0  0.62400  0.26427  0.33591  1.0000
  H   H2        1.0  0.37600  0.76427  0.16409  1.0000
  H   H3        1.0  0.37600  0.73573  0.66409  1.0000
  H   H4        1.0  0.62400  0.23573  0.83591  1.0000
  H   H5        1.0  0.01470  0.89670  0.34326  1.0000
  H   H6        1.0  0.98530  0.39670  0.15674  1.0000
  H   H7        1.0  0.98530  0.10330  0.65674  1.0000
  H   H8        1.0  0.01470  0.60330  0.84326  1.0000
  H   H9        1.0  0.82952  0.90588  0.31943  1.0000
  H   H10       1.0  0.17048  0.40588  0.18057  1.0000
  H   H11       1.0  0.17048  0.09412  0.68057  1.0000
  H   H12       1.0  0.82952  0.59412  0.81943  1.0000
  H   H13       1.0  0.01889  0.62146  0.17461  1.0000
  H   H14       1.0  0.98111  0.12146  0.32539  1.0000
  H   H15       1.0  0.98111  0.37854  0.82539  1.0000
  H   H16       1.0  0.01889  0.87854  0.67461  1.0000
  H   H17       1.0  0.05876  0.68375  0.27764  1.0000
  H   H18       1.0  0.94125  0.18375  0.22236  1.0000
  H   H19       1.0  0.94124  0.31625  0.72236  1.0000
  H   H20       1.0  0.05876  0.81625  0.77764  1.0000
  H   H21       1.0  0.55363  0.88517  0.06908  1.0000
  H   H22       1.0  0.44637  0.38517  0.43092  1.0000
  H   H23       1.0  0.44637  0.11483  0.93092  1.0000
  H   H24       1.0  0.55363  0.61483  0.56908  1.0000
  H   H25       1.0  0.62098  0.02342  0.08264  1.0000
  H   H26       1.0  0.37902  0.52342  0.41736  1.0000
  H   H27       1.0  0.37902  0.97658  0.91736  1.0000
  H   H28       1.0  0.62098  0.47658  0.58264  1.0000
  C   C1        1.0  0.52867  0.24738  0.27390  1.0000
  C   C2        1.0  0.47133  0.74738  0.22610  1.0000
  C   C3        1.0  0.47133  0.75262  0.72610  1.0000
  C   C4        1.0  0.52867  0.25262  0.77390  1.0000
  C   C5        1.0  0.33095  0.15901  0.17766  1.0000
  C   C6        1.0  0.66905  0.65900  0.32234  1.0000
  C   C7        1.0  0.66905  0.84099  0.82234  1.0000
  C   C8        1.0  0.33095  0.34099  0.67766  1.0000
  C   C9        1.0  0.37350  0.26748  0.13110  1.0000
  C   C10       1.0  0.62649  0.76748  0.36890  1.0000
  C   C11       1.0  0.62649  0.73252  0.86890  1.0000
  C   C12       1.0  0.37351  0.23252  0.63110  1.0000
  C   C13       1.0  0.21442  0.06019  0.14877  1.0000
  C   C14       1.0  0.78558  0.56019  0.35123  1.0000
  C   C15       1.0  0.78557  0.93981  0.85123  1.0000
  C   C16       1.0  0.21442  0.43981  0.64877  1.0000
  C   C17       1.0  0.31506  0.32831  0.03472  1.0000
  C   C18       1.0  0.68494  0.82831  0.46528  1.0000
  C   C19       1.0  0.68494  0.67169  0.96528  1.0000
  C   C20       1.0  0.31506  0.17169  0.53472  1.0000
  S   S1        1.0  0.78602  0.21947  0.04302  1.0000
  S   S2        1.0  0.21398  0.71947  0.45698  1.0000
  S   S3        1.0  0.21398  0.78053  0.95698  1.0000
  S   S4        1.0  0.78602  0.28053  0.54302  1.0000
  N   N1        1.0  0.49838  0.32080  0.19366  1.0000
  N   N2        1.0  0.50162  0.82080  0.30634  1.0000
  N   N3        1.0  0.50162  0.67920  0.80634  1.0000
  N   N4        1.0  0.49838  0.17920  0.69366  1.0000
  N   N5        1.0  0.42894  0.14983  0.26832  1.0000
  N   N6        1.0  0.57106  0.64983  0.23168  1.0000
  N   N7        1.0  0.57106  0.85017  0.73168  1.0000
  N   N8        1.0  0.42894  0.35017  0.76832  1.0000
  O   O1        1.0  0.18786  0.98289  0.21453  1.0000
  O   O2        1.0  0.81214  0.48289  0.28547  1.0000
  O   O3        1.0  0.81214  0.01711  0.78547  1.0000
  O   O4        1.0  0.18786  0.51711  0.71453  1.0000
  O   O5        1.0  0.13839  0.04803  0.06054  1.0000
  O   O6        1.0  0.86160  0.54803  0.43946  1.0000
  O   O7        1.0  0.86160  0.95197  0.93946  1.0000
  O   O8        1.0  0.13840  0.45197  0.56054  1.0000
  O   O9        1.0  0.20394  0.28245  0.97240  1.0000
  O   O10       1.0  0.79606  0.78245  0.52760  1.0000
  O   O11       1.0  0.79606  0.71755  0.02760  1.0000
  O   O12       1.0  0.20394  0.21755  0.47240  1.0000
  O   O13       1.0  0.38315  0.43123  0.01890  1.0000
  O   O14       1.0  0.61685  0.93123  0.48109  1.0000
  O   O15       1.0  0.61685  0.56877  0.98110  1.0000
  O   O16       1.0  0.38315  0.06877  0.51890  1.0000
  O   O17       1.0  0.61897  0.18489  0.01603  1.0000
  O   O18       1.0  0.38103  0.68488  0.48397  1.0000
  O   O19       1.0  0.38103  0.81511  0.98397  1.0000
  O   O20       1.0  0.61897  0.31511  0.51603  1.0000
  O   O21       1.0  0.80789  0.34530  0.09256  1.0000
  O   O22       1.0  0.19211  0.84530  0.40744  1.0000
  O   O23       1.0  0.19211  0.65470  0.90744  1.0000
  O   O24       1.0  0.80789  0.15470  0.59256  1.0000
  O   O25       1.0  0.86766  0.12393  0.11626  1.0000
  O   O26       1.0  0.13234  0.62393  0.38374  1.0000
  O   O27       1.0  0.13234  0.87607  0.88374  1.0000
  O   O28       1.0  0.86766  0.37607  0.61626  1.0000
  O   O29       1.0  0.85912  0.22208  0.95575  1.0000
  O   O30       1.0  0.14088  0.72208  0.54425  1.0000
  O   O31       1.0  0.14088  0.77792  0.04425  1.0000
  O   O32       1.0  0.85912  0.27792  0.45575  1.0000
  O   O33       1.0  0.92285  0.93466  0.29744  1.0000
  O   O34       1.0  0.07715  0.43466  0.20256  1.0000
  O   O35       1.0  0.07715  0.06534  0.70256  1.0000
  O   O36       1.0  0.92285  0.56534  0.79744  1.0000
  O   O37       1.0  0.00631  0.70083  0.20805  1.0000
  O   O38       1.0  0.99369  0.20083  0.29195  1.0000
  O   O39       1.0  0.99369  0.29917  0.79195  1.0000
  O   O40       1.0  0.00631  0.79917  0.70805  1.0000
  O   O41       1.0  0.64341  0.93519  0.10307  1.0000
  O   O42       1.0  0.35659  0.43519  0.39693  1.0000
  O   O43       1.0  0.35659  0.06481  0.89693  1.0000
  O   O44       1.0  0.64341  0.56481  0.60307  1.0000
