data_image0
_chemical_formula_structural       H32Pb2C34S2N4O14
_chemical_formula_sum              "H32 Pb2 C34 S2 N4 O14"
_cell_length_a       8.09361
_cell_length_b       9.47572
_cell_length_c       12.455
_cell_angle_alpha    89.5784
_cell_angle_beta     80.7899
_cell_angle_gamma    78.6282

_space_group_name_H-M_alt    "P 1"
_space_group_IT_number       1

loop_
  _space_group_symop_operation_xyz
  'x, y, z'

loop_
  _atom_site_type_symbol
  _atom_site_label
  _atom_site_symmetry_multiplicity
  _atom_site_fract_x
  _atom_site_fract_y
  _atom_site_fract_z
  _atom_site_occupancy
  H   H1        1.0  0.92506  0.04631  0.87861  1.0000
  H   H2        1.0  0.07494  0.95370  0.12139  1.0000
  H   H3        1.0  0.40391  0.15849  0.82093  1.0000
  H   H4        1.0  0.59609  0.84151  0.17907  1.0000
  H   H5        1.0  0.36626  0.90783  0.86805  1.0000
  H   H6        1.0  0.63375  0.09217  0.13196  1.0000
  H   H7        1.0  0.60875  0.72762  0.91332  1.0000
  H   H8        1.0  0.39125  0.27238  0.08668  1.0000
  H   H9        1.0  0.40066  0.68384  0.69783  1.0000
  H   H10       1.0  0.59934  0.31615  0.30216  1.0000
  H   H11       1.0  0.50791  0.52438  0.72402  1.0000
  H   H12       1.0  0.49209  0.47561  0.27598  1.0000
  H   H13       1.0  0.07970  0.33842  0.81534  1.0000
  H   H14       1.0  0.92030  0.66158  0.18466  1.0000
  H   H15       1.0  0.14726  0.43616  0.72384  1.0000
  H   H16       1.0  0.85274  0.56384  0.27616  1.0000
  H   H17       1.0  0.05003  0.13925  0.68154  1.0000
  H   H18       1.0  0.94997  0.86074  0.31845  1.0000
  H   H19       1.0  0.17872  0.91152  0.76146  1.0000
  H   H20       1.0  0.82129  0.08847  0.23853  1.0000
  H   H21       1.0  0.47901  0.76505  0.46673  1.0000
  H   H22       1.0  0.52099  0.23495  0.53326  1.0000
  H   H23       1.0  0.35190  0.97848  0.37179  1.0000
  H   H24       1.0  0.64810  0.02152  0.62821  1.0000
  H   H25       1.0  0.87479  0.25808  0.58486  1.0000
  H   H26       1.0  0.12521  0.74191  0.41514  1.0000
  H   H27       1.0  0.74152  0.46240  0.48487  1.0000
  H   H28       1.0  0.25848  0.53760  0.51514  1.0000
  H   H29       1.0  0.16513  0.41850  0.24339  1.0000
  H   H30       1.0  0.83487  0.58151  0.75662  1.0000
  H   H31       1.0  0.31975  0.20917  0.33203  1.0000
  H   H32       1.0  0.68025  0.79084  0.66797  1.0000
  Pb  Pb1       1.0  0.24786  0.53737  0.92564  1.0000
  Pb  Pb2       1.0  0.75215  0.46263  0.07436  1.0000
  C   C1        1.0  0.78374  0.87430  0.89667  1.0000
  C   C2        1.0  0.21626  0.12570  0.10333  1.0000
  C   C3        1.0  0.80384  0.01541  0.87403  1.0000
  C   C4        1.0  0.19616  0.98459  0.12598  1.0000
  C   C5        1.0  0.66723  0.11541  0.84723  1.0000
  C   C6        1.0  0.33277  0.88459  0.15277  1.0000
  C   C7        1.0  0.50903  0.07831  0.84294  1.0000
  C   C8        1.0  0.49097  0.92169  0.15707  1.0000
  C   C9        1.0  0.48896  0.93842  0.86821  1.0000
  C   C10       1.0  0.51104  0.06158  0.13179  1.0000
  C   C11       1.0  0.62518  0.83696  0.89508  1.0000
  C   C12       1.0  0.37482  0.16304  0.10492  1.0000
  C   C13       1.0  0.93510  0.76460  0.91702  1.0000
  C   C14       1.0  0.06491  0.23541  0.08298  1.0000
  C   C15       1.0  0.18951  0.08025  0.51843  1.0000
  C   C16       1.0  0.81049  0.91975  0.48156  1.0000
  C   C17       1.0  0.14284  0.05865  0.62991  1.0000
  C   C18       1.0  0.85717  0.94134  0.37009  1.0000
  C   C19       1.0  0.21798  0.93292  0.67584  1.0000
  C   C20       1.0  0.78202  0.06708  0.32415  1.0000
  C   C21       1.0  0.38342  0.85020  0.51236  1.0000
  C   C22       1.0  0.61658  0.14980  0.48764  1.0000
  C   C23       1.0  0.31242  0.97133  0.45914  1.0000
  C   C24       1.0  0.68758  0.02867  0.54086  1.0000
  C   C25       1.0  0.10930  0.21053  0.46574  1.0000
  C   C26       1.0  0.89069  0.78946  0.53426  1.0000
  C   C27       1.0  0.94634  0.28778  0.50949  1.0000
  C   C28       1.0  0.05366  0.71222  0.49052  1.0000
  C   C29       1.0  0.87005  0.40342  0.45332  1.0000
  C   C30       1.0  0.12995  0.59658  0.54668  1.0000
  C   C31       1.0  0.10557  0.37845  0.31918  1.0000
  C   C32       1.0  0.89443  0.62155  0.68082  1.0000
  C   C33       1.0  0.19093  0.26056  0.36905  1.0000
  C   C34       1.0  0.80906  0.73944  0.63095  1.0000
  S   S1        1.0  0.69090  0.29633  0.82552  1.0000
  S   S2        1.0  0.30910  0.70368  0.17448  1.0000
  N   N1        1.0  0.33794  0.82985  0.61902  1.0000
  N   N2        1.0  0.66206  0.17014  0.38098  1.0000
  N   N3        1.0  0.94605  0.44776  0.35901  1.0000
  N   N4        1.0  0.05395  0.55224  0.64100  1.0000
  O   O1        1.0  0.08140  0.79861  0.90217  1.0000
  O   O2        1.0  0.91860  0.20140  0.09782  1.0000
  O   O3        1.0  0.91386  0.63757  0.94427  1.0000
  O   O4        1.0  0.08615  0.36243  0.05572  1.0000
  O   O5        1.0  0.57207  0.38050  0.91674  1.0000
  O   O6        1.0  0.42792  0.61950  0.08326  1.0000
  O   O7        1.0  0.64184  0.33769  0.71934  1.0000
  O   O8        1.0  0.35816  0.66231  0.28066  1.0000
  O   O9        1.0  0.86913  0.29952  0.83340  1.0000
  O   O10       1.0  0.13087  0.70048  0.16661  1.0000
  O   O11       1.0  0.42908  0.61199  0.75609  1.0000
  O   O12       1.0  0.57093  0.38801  0.24391  1.0000
  O   O13       1.0  0.18491  0.37294  0.78636  1.0000
  O   O14       1.0  0.81509  0.62706  0.21364  1.0000
