data_image0
_chemical_formula_structural       H32Pb2C34S2N4O14
_chemical_formula_sum              "H32 Pb2 C34 S2 N4 O14"
_cell_length_a       8.07281
_cell_length_b       9.50006
_cell_length_c       12.4312
_cell_angle_alpha    89.9218
_cell_angle_beta     81.2801
_cell_angle_gamma    78.3231

_space_group_name_H-M_alt    "P 1"
_space_group_IT_number       1

loop_
  _space_group_symop_operation_xyz
  'x, y, z'

loop_
  _atom_site_type_symbol
  _atom_site_label
  _atom_site_symmetry_multiplicity
  _atom_site_fract_x
  _atom_site_fract_y
  _atom_site_fract_z
  _atom_site_occupancy
  H   H1        1.0  0.07537  0.45911  0.62262  1.0000
  H   H2        1.0  0.92463  0.54089  0.37738  1.0000
  H   H3        1.0  0.59908  0.34430  0.67982  1.0000
  H   H4        1.0  0.40092  0.65570  0.32018  1.0000
  H   H5        1.0  0.63783  0.59277  0.63099  1.0000
  H   H6        1.0  0.36217  0.40724  0.36902  1.0000
  H   H7        1.0  0.39402  0.77407  0.58580  1.0000
  H   H8        1.0  0.60598  0.22593  0.41420  1.0000
  H   H9        1.0  0.59926  0.81988  0.80278  1.0000
  H   H10       1.0  0.40074  0.18012  0.19722  1.0000
  H   H11       1.0  0.92154  0.16356  0.68813  1.0000
  H   H12       1.0  0.07846  0.83644  0.31187  1.0000
  H   H13       1.0  0.49376  0.98106  0.77746  1.0000
  H   H14       1.0  0.50625  0.01894  0.22253  1.0000
  H   H15       1.0  0.85573  0.06400  0.77800  1.0000
  H   H16       1.0  0.14428  0.93599  0.22200  1.0000
  H   H17       1.0  0.64181  0.52321  0.12661  1.0000
  H   H18       1.0  0.35820  0.47678  0.87339  1.0000
  H   H19       1.0  0.82616  0.59390  0.73953  1.0000
  H   H20       1.0  0.17383  0.40610  0.26047  1.0000
  H   H21       1.0  0.12589  0.24474  0.91687  1.0000
  H   H22       1.0  0.87411  0.75527  0.08313  1.0000
  H   H23       1.0  0.67683  0.29382  0.16525  1.0000
  H   H24       1.0  0.32317  0.70617  0.83475  1.0000
  H   H25       1.0  0.95538  0.36625  0.81943  1.0000
  H   H26       1.0  0.04461  0.63375  0.18056  1.0000
  H   H27       1.0  0.51490  0.73660  0.03135  1.0000
  H   H28       1.0  0.48510  0.26340  0.96865  1.0000
  H   H29       1.0  0.82931  0.08239  0.25319  1.0000
  H   H30       1.0  0.17069  0.91760  0.74681  1.0000
  H   H31       1.0  0.25760  0.03890  0.01645  1.0000
  H   H32       1.0  0.74240  0.96111  0.98355  1.0000
  Pb  Pb1       1.0  0.75039  0.96590  0.57628  1.0000
  Pb  Pb2       1.0  0.24963  0.03411  0.42372  1.0000
  C   C1        1.0  0.21775  0.62931  0.60350  1.0000
  C   C2        1.0  0.78225  0.37068  0.39650  1.0000
  C   C3        1.0  0.19736  0.48905  0.62666  1.0000
  C   C4        1.0  0.80265  0.51095  0.37334  1.0000
  C   C5        1.0  0.06568  0.73941  0.58343  1.0000
  C   C6        1.0  0.93432  0.26059  0.41657  1.0000
  C   C7        1.0  0.49360  0.42449  0.65730  1.0000
  C   C8        1.0  0.50640  0.57551  0.34270  1.0000
  C   C9        1.0  0.51421  0.56348  0.63124  1.0000
  C   C10       1.0  0.48579  0.43652  0.36877  1.0000
  C   C11       1.0  0.37727  0.66540  0.60446  1.0000
  C   C12       1.0  0.62273  0.33460  0.39554  1.0000
  C   C13       1.0  0.33448  0.38851  0.65354  1.0000
  C   C14       1.0  0.66552  0.61149  0.34645  1.0000
  C   C15       1.0  0.80977  0.42313  0.98121  1.0000
  C   C16       1.0  0.19023  0.57687  0.01879  1.0000
  C   C17       1.0  0.68386  0.53109  0.03977  1.0000
  C   C18       1.0  0.31614  0.46891  0.96023  1.0000
  C   C19       1.0  0.78474  0.57161  0.82447  1.0000
  C   C20       1.0  0.21525  0.42839  0.17553  1.0000
  C   C21       1.0  0.88935  0.29234  0.03379  1.0000
  C   C22       1.0  0.11065  0.70766  0.96621  1.0000
  C   C23       1.0  0.05309  0.21469  0.99113  1.0000
  C   C24       1.0  0.94691  0.78532  0.00887  1.0000
  C   C25       1.0  0.80614  0.24190  0.12910  1.0000
  C   C26       1.0  0.19386  0.75810  0.87090  1.0000
  C   C27       1.0  0.85987  0.44591  0.87050  1.0000
  C   C28       1.0  0.14012  0.55409  0.12950  1.0000
  C   C29       1.0  0.61309  0.65227  0.98644  1.0000
  C   C30       1.0  0.38691  0.34772  0.01356  1.0000
  C   C31       1.0  0.89050  0.12300  0.17866  1.0000
  C   C32       1.0  0.10950  0.87699  0.82134  1.0000
  C   C33       1.0  0.12849  0.09823  0.04703  1.0000
  C   C34       1.0  0.87151  0.90178  0.95297  1.0000
  S   S1        1.0  0.30857  0.20901  0.67693  1.0000
  S   S2        1.0  0.69143  0.79099  0.32307  1.0000
  N   N1        1.0  0.05075  0.05327  0.13994  1.0000
  N   N2        1.0  0.94926  0.94673  0.86006  1.0000
  N   N3        1.0  0.66153  0.67357  0.88048  1.0000
  N   N4        1.0  0.33846  0.32644  0.11952  1.0000
  O   O1        1.0  0.91900  0.70614  0.59802  1.0000
  O   O2        1.0  0.08100  0.29386  0.40198  1.0000
  O   O3        1.0  0.08642  0.86602  0.55673  1.0000
  O   O4        1.0  0.91358  0.13398  0.44327  1.0000
  O   O5        1.0  0.12776  0.20960  0.67316  1.0000
  O   O6        1.0  0.87224  0.79040  0.32684  1.0000
  O   O7        1.0  0.42201  0.12229  0.58453  1.0000
  O   O8        1.0  0.57799  0.87771  0.41547  1.0000
  O   O9        1.0  0.36383  0.16811  0.78198  1.0000
  O   O10       1.0  0.63618  0.83189  0.21802  1.0000
  O   O11       1.0  0.81692  0.12809  0.71603  1.0000
  O   O12       1.0  0.18308  0.87191  0.28397  1.0000
  O   O13       1.0  0.57143  0.89271  0.74506  1.0000
  O   O14       1.0  0.42858  0.10729  0.25494  1.0000
