data_image0
_chemical_formula_structural       Hg4H32C24S8N24
_chemical_formula_sum              "Hg4 H32 C24 S8 N24"
_cell_length_a       8.22356
_cell_length_b       10.0632
_cell_length_c       13.2734
_cell_angle_alpha    90.0002
_cell_angle_beta     89.9999
_cell_angle_gamma    90

_space_group_name_H-M_alt    "P 1"
_space_group_IT_number       1

loop_
  _space_group_symop_operation_xyz
  'x, y, z'

loop_
  _atom_site_type_symbol
  _atom_site_label
  _atom_site_symmetry_multiplicity
  _atom_site_fract_x
  _atom_site_fract_y
  _atom_site_fract_z
  _atom_site_occupancy
  Hg  Hg1       1.0  0.75000  0.57246  0.50000  1.0000
  Hg  Hg2       1.0  0.25000  0.92755  0.00000  1.0000
  Hg  Hg3       1.0  0.25000  0.42754  0.50000  1.0000
  Hg  Hg4       1.0  0.75000  0.07246  0.00000  1.0000
  H   H1        1.0  0.63424  0.31402  0.70139  1.0000
  H   H2        1.0  0.13425  0.18598  0.79861  1.0000
  H   H3        1.0  0.86576  0.31402  0.29861  1.0000
  H   H4        1.0  0.36575  0.18598  0.20139  1.0000
  H   H5        1.0  0.36576  0.68598  0.29861  1.0000
  H   H6        1.0  0.86575  0.81401  0.20139  1.0000
  H   H7        1.0  0.13424  0.68599  0.70139  1.0000
  H   H8        1.0  0.63425  0.81401  0.79861  1.0000
  H   H9        1.0  0.66411  0.14551  0.74323  1.0000
  H   H10       1.0  0.16411  0.35448  0.75677  1.0000
  H   H11       1.0  0.83589  0.14551  0.25677  1.0000
  H   H12       1.0  0.33589  0.35449  0.24323  1.0000
  H   H13       1.0  0.33589  0.85449  0.25677  1.0000
  H   H14       1.0  0.83588  0.64551  0.24322  1.0000
  H   H15       1.0  0.16411  0.85449  0.74323  1.0000
  H   H16       1.0  0.66411  0.64551  0.75678  1.0000
  H   H17       1.0  0.56904  0.17758  0.62448  1.0000
  H   H18       1.0  0.06904  0.32242  0.87552  1.0000
  H   H19       1.0  0.93096  0.17758  0.37552  1.0000
  H   H20       1.0  0.43096  0.32242  0.12448  1.0000
  H   H21       1.0  0.43096  0.82242  0.37552  1.0000
  H   H22       1.0  0.93096  0.67758  0.12448  1.0000
  H   H23       1.0  0.06904  0.82242  0.62448  1.0000
  H   H24       1.0  0.56904  0.67758  0.87552  1.0000
  H   H25       1.0  0.84760  0.00443  0.58733  1.0000
  H   H26       1.0  0.34760  0.49557  0.91268  1.0000
  H   H27       1.0  0.65241  0.00443  0.41267  1.0000
  H   H28       1.0  0.15240  0.49557  0.08732  1.0000
  H   H29       1.0  0.15241  0.99557  0.41267  1.0000
  H   H30       1.0  0.65239  0.50443  0.08732  1.0000
  H   H31       1.0  0.34760  0.99557  0.58732  1.0000
  H   H32       1.0  0.84760  0.50443  0.91268  1.0000
  C   C1        1.0  0.66151  0.21205  0.67788  1.0000
  C   C2        1.0  0.16151  0.28795  0.82213  1.0000
  C   C3        1.0  0.83849  0.21205  0.32213  1.0000
  C   C4        1.0  0.33849  0.28795  0.17787  1.0000
  C   C5        1.0  0.33849  0.78795  0.32213  1.0000
  C   C6        1.0  0.83849  0.71205  0.17787  1.0000
  C   C7        1.0  0.16151  0.78795  0.67787  1.0000
  C   C8        1.0  0.66151  0.71205  0.82213  1.0000
  C   C9        1.0  0.92163  0.31862  0.61350  1.0000
  C   C10       1.0  0.42163  0.18138  0.88651  1.0000
  C   C11       1.0  0.57837  0.31862  0.38650  1.0000
  C   C12       1.0  0.07837  0.18139  0.11349  1.0000
  C   C13       1.0  0.07837  0.68138  0.38651  1.0000
  C   C14       1.0  0.57837  0.81862  0.11349  1.0000
  C   C15       1.0  0.42163  0.68138  0.61350  1.0000
  C   C16       1.0  0.92163  0.81861  0.88651  1.0000
  C   C17       1.0  0.89877  0.10380  0.58987  1.0000
  C   C18       1.0  0.39877  0.39620  0.91014  1.0000
  C   C19       1.0  0.60124  0.10380  0.41013  1.0000
  C   C20       1.0  0.10123  0.39621  0.08986  1.0000
  C   C21       1.0  0.10124  0.89620  0.41013  1.0000
  C   C22       1.0  0.60123  0.60380  0.08986  1.0000
  C   C23       1.0  0.39877  0.89620  0.58986  1.0000
  C   C24       1.0  0.89877  0.60380  0.91014  1.0000
  S   S1        1.0  0.88790  0.48016  0.65171  1.0000
  S   S2        1.0  0.38790  0.01985  0.84829  1.0000
  S   S3        1.0  0.61210  0.48016  0.34829  1.0000
  S   S4        1.0  0.11210  0.01985  0.15171  1.0000
  S   S5        1.0  0.11210  0.51984  0.34829  1.0000
  S   S6        1.0  0.61210  0.98016  0.15171  1.0000
  S   S7        1.0  0.38790  0.51984  0.65171  1.0000
  S   S8        1.0  0.88790  0.98015  0.84829  1.0000
  N   N1        1.0  0.82010  0.21164  0.62922  1.0000
  N   N2        1.0  0.32011  0.28837  0.87078  1.0000
  N   N3        1.0  0.67990  0.21164  0.37078  1.0000
  N   N4        1.0  0.17989  0.28837  0.12922  1.0000
  N   N5        1.0  0.17990  0.78836  0.37078  1.0000
  N   N6        1.0  0.67989  0.71163  0.12922  1.0000
  N   N7        1.0  0.32010  0.78836  0.62922  1.0000
  N   N8        1.0  0.82011  0.71163  0.87078  1.0000
  N   N9        1.0  0.05525  0.27314  0.56725  1.0000
  N   N10       1.0  0.55525  0.22687  0.93276  1.0000
  N   N11       1.0  0.44475  0.27313  0.43276  1.0000
  N   N12       1.0  0.94475  0.22687  0.06724  1.0000
  N   N13       1.0  0.94475  0.72687  0.43276  1.0000
  N   N14       1.0  0.44474  0.77313  0.06724  1.0000
  N   N15       1.0  0.55525  0.72687  0.56724  1.0000
  N   N16       1.0  0.05526  0.77313  0.93276  1.0000
  N   N17       1.0  0.04116  0.13873  0.55199  1.0000
  N   N18       1.0  0.54116  0.36128  0.94802  1.0000
  N   N19       1.0  0.45884  0.13873  0.44801  1.0000
  N   N20       1.0  0.95884  0.36128  0.05198  1.0000
  N   N21       1.0  0.95884  0.86127  0.44801  1.0000
  N   N22       1.0  0.45884  0.63873  0.05198  1.0000
  N   N23       1.0  0.54115  0.86127  0.55198  1.0000
  N   N24       1.0  0.04116  0.63873  0.94802  1.0000
