data_image0
_chemical_formula_structural       Hg4H32C24S8N24
_chemical_formula_sum              "Hg4 H32 C24 S8 N24"
_cell_length_a       8.41966
_cell_length_b       10.062
_cell_length_c       12.9233
_cell_angle_alpha    89.9998
_cell_angle_beta     90.0001
_cell_angle_gamma    90

_space_group_name_H-M_alt    "P 1"
_space_group_IT_number       1

loop_
  _space_group_symop_operation_xyz
  'x, y, z'

loop_
  _atom_site_type_symbol
  _atom_site_label
  _atom_site_symmetry_multiplicity
  _atom_site_fract_x
  _atom_site_fract_y
  _atom_site_fract_z
  _atom_site_occupancy
  Hg  Hg1       1.0  0.75000  0.56994  0.50000  1.0000
  Hg  Hg2       1.0  0.25000  0.93006  1.00000  1.0000
  Hg  Hg3       1.0  0.25000  0.43007  0.50000  1.0000
  Hg  Hg4       1.0  0.75000  0.06994  1.00000  1.0000
  H   H1        1.0  0.85840  0.00478  0.41389  1.0000
  H   H2        1.0  0.14160  0.49522  0.91389  1.0000
  H   H3        1.0  0.35840  0.49522  0.08611  1.0000
  H   H4        1.0  0.64160  0.00478  0.58611  1.0000
  H   H5        1.0  0.14160  0.99522  0.58611  1.0000
  H   H6        1.0  0.85840  0.50478  0.08611  1.0000
  H   H7        1.0  0.64160  0.50478  0.91389  1.0000
  H   H8        1.0  0.35840  0.99522  0.41389  1.0000
  H   H9        1.0  0.63700  0.11027  0.30710  1.0000
  H   H10       1.0  0.36300  0.38973  0.80710  1.0000
  H   H11       1.0  0.13700  0.38973  0.19290  1.0000
  H   H12       1.0  0.86299  0.11027  0.69290  1.0000
  H   H13       1.0  0.36300  0.88973  0.69290  1.0000
  H   H14       1.0  0.63700  0.61026  0.19290  1.0000
  H   H15       1.0  0.86300  0.61027  0.80710  1.0000
  H   H16       1.0  0.13700  0.88973  0.30710  1.0000
  H   H17       1.0  0.67771  0.26954  0.25084  1.0000
  H   H18       1.0  0.32229  0.23046  0.75084  1.0000
  H   H19       1.0  0.17771  0.23046  0.24916  1.0000
  H   H20       1.0  0.82229  0.26954  0.74916  1.0000
  H   H21       1.0  0.32229  0.73046  0.74916  1.0000
  H   H22       1.0  0.67771  0.76954  0.24916  1.0000
  H   H23       1.0  0.82229  0.76954  0.75084  1.0000
  H   H24       1.0  0.17771  0.73046  0.25084  1.0000
  H   H25       1.0  0.58559  0.26035  0.37496  1.0000
  H   H26       1.0  0.41441  0.23965  0.87496  1.0000
  H   H27       1.0  0.08559  0.23966  0.12504  1.0000
  H   H28       1.0  0.91441  0.26035  0.62504  1.0000
  H   H29       1.0  0.41441  0.73966  0.62504  1.0000
  H   H30       1.0  0.58559  0.76035  0.12504  1.0000
  H   H31       1.0  0.91441  0.76035  0.87496  1.0000
  H   H32       1.0  0.08559  0.73965  0.37496  1.0000
  C   C1        1.0  0.92673  0.31964  0.38601  1.0000
  C   C2        1.0  0.07327  0.18036  0.88601  1.0000
  C   C3        1.0  0.42672  0.18036  0.11399  1.0000
  C   C4        1.0  0.57327  0.31964  0.61399  1.0000
  C   C5        1.0  0.07327  0.68036  0.61399  1.0000
  C   C6        1.0  0.92673  0.81964  0.11398  1.0000
  C   C7        1.0  0.57327  0.81964  0.88601  1.0000
  C   C8        1.0  0.42673  0.68036  0.38602  1.0000
  C   C9        1.0  0.90712  0.10460  0.41077  1.0000
  C   C10       1.0  0.09288  0.39539  0.91077  1.0000
  C   C11       1.0  0.40712  0.39540  0.08923  1.0000
  C   C12       1.0  0.59288  0.10460  0.58923  1.0000
  C   C13       1.0  0.09288  0.89540  0.58923  1.0000
  C   C14       1.0  0.90712  0.60460  0.08923  1.0000
  C   C15       1.0  0.59288  0.60460  0.91077  1.0000
  C   C16       1.0  0.40712  0.89540  0.41077  1.0000
  C   C17       1.0  0.67211  0.21302  0.32323  1.0000
  C   C18       1.0  0.32789  0.28698  0.82323  1.0000
  C   C19       1.0  0.17211  0.28698  0.17677  1.0000
  C   C20       1.0  0.82789  0.21302  0.67677  1.0000
  C   C21       1.0  0.32790  0.78698  0.67677  1.0000
  C   C22       1.0  0.67211  0.71302  0.17677  1.0000
  C   C23       1.0  0.82789  0.71302  0.82323  1.0000
  C   C24       1.0  0.17211  0.78698  0.32323  1.0000
  S   S1        1.0  0.88953  0.47980  0.34538  1.0000
  S   S2        1.0  0.11047  0.02020  0.84538  1.0000
  S   S3        1.0  0.38953  0.02020  0.15462  1.0000
  S   S4        1.0  0.61047  0.47980  0.65462  1.0000
  S   S5        1.0  0.11047  0.52020  0.65462  1.0000
  S   S6        1.0  0.88953  0.97980  0.15461  1.0000
  S   S7        1.0  0.61047  0.97980  0.84538  1.0000
  S   S8        1.0  0.38953  0.52020  0.34539  1.0000
  N   N1        1.0  0.05856  0.27533  0.43265  1.0000
  N   N2        1.0  0.94144  0.22467  0.93265  1.0000
  N   N3        1.0  0.55856  0.22467  0.06735  1.0000
  N   N4        1.0  0.44144  0.27533  0.56735  1.0000
  N   N5        1.0  0.94144  0.72467  0.56735  1.0000
  N   N6        1.0  0.05856  0.77533  0.06735  1.0000
  N   N7        1.0  0.44144  0.77533  0.93265  1.0000
  N   N8        1.0  0.55856  0.72467  0.43265  1.0000
  N   N9        1.0  0.04655  0.14078  0.44848  1.0000
  N   N10       1.0  0.95345  0.35921  0.94848  1.0000
  N   N11       1.0  0.54655  0.35922  0.05152  1.0000
  N   N12       1.0  0.45345  0.14079  0.55152  1.0000
  N   N13       1.0  0.95345  0.85921  0.55152  1.0000
  N   N14       1.0  0.04655  0.64078  0.05152  1.0000
  N   N15       1.0  0.45345  0.64078  0.94848  1.0000
  N   N16       1.0  0.54655  0.85922  0.44848  1.0000
  N   N17       1.0  0.82856  0.21173  0.37094  1.0000
  N   N18       1.0  0.17144  0.28826  0.87093  1.0000
  N   N19       1.0  0.32856  0.28826  0.12906  1.0000
  N   N20       1.0  0.67144  0.21174  0.62906  1.0000
  N   N21       1.0  0.17144  0.78826  0.62907  1.0000
  N   N22       1.0  0.82856  0.71174  0.12906  1.0000
  N   N23       1.0  0.67144  0.71174  0.87093  1.0000
  N   N24       1.0  0.32856  0.78826  0.37094  1.0000
