data_image0
_chemical_formula_structural       Zn4H48C36N8O16
_chemical_formula_sum              "Zn4 H48 C36 N8 O16"
_cell_length_a       7.4223
_cell_length_b       7.9459
_cell_length_c       18.6374
_cell_angle_alpha    88.5282
_cell_angle_beta     86.5926
_cell_angle_gamma    83.9406

_space_group_name_H-M_alt    "P 1"
_space_group_IT_number       1

loop_
  _space_group_symop_operation_xyz
  'x, y, z'

loop_
  _atom_site_type_symbol
  _atom_site_label
  _atom_site_symmetry_multiplicity
  _atom_site_fract_x
  _atom_site_fract_y
  _atom_site_fract_z
  _atom_site_occupancy
  Zn  Zn1       1.0  0.80775  0.18944  0.16461  1.0000
  Zn  Zn2       1.0  0.19225  0.81056  0.83539  1.0000
  Zn  Zn3       1.0  0.28930  0.01921  0.30372  1.0000
  Zn  Zn4       1.0  0.71070  0.98079  0.69628  1.0000
  H   H1        1.0  0.38580  0.78107  0.14044  1.0000
  H   H2        1.0  0.61420  0.21892  0.85956  1.0000
  H   H3        1.0  0.40574  0.91005  0.06080  1.0000
  H   H4        1.0  0.59427  0.08995  0.93920  1.0000
  H   H5        1.0  0.23246  0.96627  0.13040  1.0000
  H   H6        1.0  0.76754  0.03372  0.86959  1.0000
  H   H7        1.0  0.43533  0.66864  0.26960  1.0000
  H   H8        1.0  0.56467  0.33136  0.73039  1.0000
  H   H9        1.0  0.58210  0.55937  0.33302  1.0000
  H   H10       1.0  0.41789  0.44063  0.66698  1.0000
  H   H11       1.0  0.38249  0.47375  0.30900  1.0000
  H   H12       1.0  0.61750  0.52625  0.69099  1.0000
  H   H13       1.0  0.79736  0.73396  0.28689  1.0000
  H   H14       1.0  0.20264  0.26604  0.71311  1.0000
  H   H15       1.0  0.94461  0.63613  0.21850  1.0000
  H   H16       1.0  0.05539  0.36387  0.78150  1.0000
  H   H17       1.0  0.77236  0.80206  0.19588  1.0000
  H   H18       1.0  0.22764  0.19794  0.80412  1.0000
  H   H19       1.0  0.85868  0.46582  0.35980  1.0000
  H   H20       1.0  0.14133  0.53420  0.64020  1.0000
  H   H21       1.0  0.07126  0.54823  0.36390  1.0000
  H   H22       1.0  0.92875  0.45178  0.63610  1.0000
  H   H23       1.0  0.96203  0.46062  0.44337  1.0000
  H   H24       1.0  0.03798  0.53939  0.55663  1.0000
  H   H25       1.0  0.36007  0.44388  0.03950  1.0000
  H   H26       1.0  0.63994  0.55611  0.96050  1.0000
  H   H27       1.0  0.28203  0.37157  0.91668  1.0000
  H   H28       1.0  0.71798  0.62842  0.08332  1.0000
  H   H29       1.0  0.00461  0.21440  0.90372  1.0000
  H   H30       1.0  0.99539  0.78560  0.09628  1.0000
  H   H31       1.0  0.81937  0.14773  0.01473  1.0000
  H   H32       1.0  0.18062  0.85227  0.98527  1.0000
  H   H33       1.0  0.82376  0.88674  0.47156  1.0000
  H   H34       1.0  0.17624  0.11325  0.52844  1.0000
  H   H35       1.0  0.66250  0.67868  0.54608  1.0000
  H   H36       1.0  0.33749  0.32132  0.45391  1.0000
  H   H37       1.0  0.34573  0.62610  0.51729  1.0000
  H   H38       1.0  0.65427  0.37389  0.48271  1.0000
  H   H39       1.0  0.20878  0.78186  0.41215  1.0000
  H   H40       1.0  0.79122  0.21814  0.58785  1.0000
  H   H41       1.0  0.11600  0.32512  0.20342  1.0000
  H   H42       1.0  0.88399  0.67488  0.79658  1.0000
  H   H43       1.0  0.29541  0.42156  0.16363  1.0000
  H   H44       1.0  0.70459  0.57844  0.83637  1.0000
  H   H45       1.0  0.63121  0.11641  0.31680  1.0000
  H   H46       1.0  0.36879  0.88359  0.68320  1.0000
  H   H47       1.0  0.80811  0.09143  0.37552  1.0000
  H   H48       1.0  0.19189  0.90857  0.62448  1.0000
  C   C1        1.0  0.50056  0.01206  0.15542  1.0000
  C   C2        1.0  0.49944  0.98794  0.84458  1.0000
  C   C3        1.0  0.37287  0.91182  0.11881  1.0000
  C   C4        1.0  0.62713  0.08817  0.88119  1.0000
  C   C5        1.0  0.59361  0.44592  0.22805  1.0000
  C   C6        1.0  0.40638  0.55408  0.77195  1.0000
  C   C7        1.0  0.49489  0.54512  0.28868  1.0000
  C   C8        1.0  0.50510  0.45488  0.71132  1.0000
  C   C9        1.0  0.00246  0.88306  0.24640  1.0000
  C   C10       1.0  0.99754  0.11694  0.75360  1.0000
  C   C11       1.0  0.87033  0.75690  0.23529  1.0000
  C   C12       1.0  0.12968  0.24310  0.76471  1.0000
  C   C13       1.0  0.07657  0.27361  0.36748  1.0000
  C   C14       1.0  0.92343  0.72639  0.63252  1.0000
  C   C15       1.0  0.98954  0.44923  0.38516  1.0000
  C   C16       1.0  0.01047  0.55078  0.61485  1.0000
  C   C17       1.0  0.12990  0.33724  0.09221  1.0000
  C   C18       1.0  0.87010  0.66276  0.90779  1.0000
  C   C19       1.0  0.24139  0.37854  0.03116  1.0000
  C   C20       1.0  0.75861  0.62145  0.96884  1.0000
  C   C21       1.0  0.19762  0.33651  0.96352  1.0000
  C   C22       1.0  0.80239  0.66349  0.03648  1.0000
  C   C23       1.0  0.04345  0.25097  0.95588  1.0000
  C   C24       1.0  0.95655  0.74903  0.04412  1.0000
  C   C25       1.0  0.94006  0.21404  0.01693  1.0000
  C   C26       1.0  0.05994  0.78596  0.98307  1.0000
  C   C27       1.0  0.60217  0.94314  0.40063  1.0000
  C   C28       1.0  0.39783  0.05686  0.59937  1.0000
  C   C29       1.0  0.68893  0.85749  0.45921  1.0000
  C   C30       1.0  0.31107  0.14251  0.54079  1.0000
  C   C31       1.0  0.59835  0.74335  0.50045  1.0000
  C   C32       1.0  0.40164  0.25665  0.49955  1.0000
  C   C33       1.0  0.42180  0.71263  0.48471  1.0000
  C   C34       1.0  0.57820  0.28736  0.51529  1.0000
  C   C35       1.0  0.34537  0.79874  0.42706  1.0000
  C   C36       1.0  0.65463  0.20125  0.57294  1.0000
  N   N1        1.0  0.97982  0.25652  0.08386  1.0000
  N   N2        1.0  0.02018  0.74347  0.91614  1.0000
  N   N3        1.0  0.16929  0.38200  0.15865  1.0000
  N   N4        1.0  0.83070  0.61800  0.84135  1.0000
  N   N5        1.0  0.43244  0.91029  0.38502  1.0000
  N   N6        1.0  0.56755  0.08972  0.61498  1.0000
  N   N7        1.0  0.68642  0.05746  0.36047  1.0000
  N   N8        1.0  0.31358  0.94253  0.63953  1.0000
  O   O1        1.0  0.63579  0.05969  0.11723  1.0000
  O   O2        1.0  0.36421  0.94031  0.88277  1.0000
  O   O3        1.0  0.47753  0.04394  0.22226  1.0000
  O   O4        1.0  0.52247  0.95605  0.77774  1.0000
  O   O5        1.0  0.73162  0.34061  0.24489  1.0000
  O   O6        1.0  0.26838  0.65938  0.75511  1.0000
  O   O7        1.0  0.53924  0.46120  0.16523  1.0000
  O   O8        1.0  0.46076  0.53880  0.83477  1.0000
  O   O9        1.0  0.13340  0.83597  0.28644  1.0000
  O   O10       1.0  0.86660  0.16403  0.71356  1.0000
  O   O11       1.0  0.98872  0.02979  0.21684  1.0000
  O   O12       1.0  0.01128  0.97021  0.78316  1.0000
  O   O13       1.0  0.20188  0.26223  0.31541  1.0000
  O   O14       1.0  0.79812  0.73778  0.68459  1.0000
  O   O15       1.0  0.02680  0.14609  0.40125  1.0000
  O   O16       1.0  0.97320  0.85393  0.59876  1.0000
