data_image0
_chemical_formula_structural       Cd4H48C44N48O4
_chemical_formula_sum              "Cd4 H48 C44 N48 O4"
_cell_length_a       10.2385
_cell_length_b       11.8321
_cell_length_c       14.1909
_cell_angle_alpha    110.623
_cell_angle_beta     89.9999
_cell_angle_gamma    90.0001

_space_group_name_H-M_alt    "P 1"
_space_group_IT_number       1

loop_
  _space_group_symop_operation_xyz
  'x, y, z'

loop_
  _atom_site_type_symbol
  _atom_site_label
  _atom_site_symmetry_multiplicity
  _atom_site_fract_x
  _atom_site_fract_y
  _atom_site_fract_z
  _atom_site_occupancy
  Cd  Cd1       1.0  0.87444  0.81608  0.62804  1.0000
  Cd  Cd2       1.0  0.37444  0.68392  0.87195  1.0000
  Cd  Cd3       1.0  0.12556  0.18392  0.37196  1.0000
  Cd  Cd4       1.0  0.62556  0.31608  0.12804  1.0000
  H   H1        1.0  0.03346  0.53022  0.61192  1.0000
  H   H2        1.0  0.53346  0.96978  0.88808  1.0000
  H   H3        1.0  0.96654  0.46978  0.38808  1.0000
  H   H4        1.0  0.46654  0.03022  0.11192  1.0000
  H   H5        1.0  0.64364  0.63967  0.68571  1.0000
  H   H6        1.0  0.14364  0.86033  0.81429  1.0000
  H   H7        1.0  0.35636  0.36033  0.31429  1.0000
  H   H8        1.0  0.85636  0.13967  0.18571  1.0000
  H   H9        1.0  0.82782  0.13458  0.92095  1.0000
  H   H10       1.0  0.32782  0.36542  0.57905  1.0000
  H   H11       1.0  0.17218  0.86541  0.07905  1.0000
  H   H12       1.0  0.67218  0.63458  0.42095  1.0000
  H   H13       1.0  0.48624  0.32706  0.90845  1.0000
  H   H14       1.0  0.98623  0.17294  0.59155  1.0000
  H   H15       1.0  0.51377  0.67294  0.09155  1.0000
  H   H16       1.0  0.01377  0.82706  0.40845  1.0000
  H   H17       1.0  0.57123  0.47158  0.74038  1.0000
  H   H18       1.0  0.07123  0.02842  0.75962  1.0000
  H   H19       1.0  0.42877  0.52842  0.25962  1.0000
  H   H20       1.0  0.92877  0.97158  0.24038  1.0000
  H   H21       1.0  0.70114  0.42369  0.80020  1.0000
  H   H22       1.0  0.20114  0.07631  0.69980  1.0000
  H   H23       1.0  0.29886  0.57631  0.19980  1.0000
  H   H24       1.0  0.79886  0.92369  0.30020  1.0000
  H   H25       1.0  0.73992  0.24739  0.63393  1.0000
  H   H26       1.0  0.23992  0.25260  0.86607  1.0000
  H   H27       1.0  0.26008  0.75261  0.36607  1.0000
  H   H28       1.0  0.76008  0.74739  0.13393  1.0000
  H   H29       1.0  0.59768  0.29023  0.58519  1.0000
  H   H30       1.0  0.09768  0.20977  0.91481  1.0000
  H   H31       1.0  0.40232  0.70977  0.41481  1.0000
  H   H32       1.0  0.90232  0.79023  0.08519  1.0000
  H   H33       1.0  0.46210  0.25693  0.72062  1.0000
  H   H34       1.0  0.96210  0.24307  0.77938  1.0000
  H   H35       1.0  0.53790  0.74308  0.27938  1.0000
  H   H36       1.0  0.03790  0.75693  0.22062  1.0000
  H   H37       1.0  0.54978  0.12512  0.64956  1.0000
  H   H38       1.0  0.04978  0.37488  0.85044  1.0000
  H   H39       1.0  0.45022  0.87488  0.35044  1.0000
  H   H40       1.0  0.95022  0.62512  0.14956  1.0000
  H   H41       1.0  0.81210  0.06089  0.68327  1.0000
  H   H42       1.0  0.31210  0.43911  0.81673  1.0000
  H   H43       1.0  0.18789  0.93911  0.31674  1.0000
  H   H44       1.0  0.68790  0.56089  0.18327  1.0000
  H   H45       1.0  0.79881  0.00425  0.56472  1.0000
  H   H46       1.0  0.29881  0.49575  0.93528  1.0000
  H   H47       1.0  0.20119  0.99575  0.43528  1.0000
  H   H48       1.0  0.70119  0.50425  0.06472  1.0000
  C   C1        1.0  0.93241  0.53310  0.63561  1.0000
  C   C2        1.0  0.43240  0.96690  0.86439  1.0000
  C   C3        1.0  0.06759  0.46690  0.36439  1.0000
  C   C4        1.0  0.56760  0.03310  0.13561  1.0000
  C   C5        1.0  0.73590  0.59147  0.67262  1.0000
  C   C6        1.0  0.23590  0.90853  0.82738  1.0000
  C   C7        1.0  0.26410  0.40853  0.32738  1.0000
  C   C8        1.0  0.76410  0.09147  0.17262  1.0000
  C   C9        1.0  0.74638  0.17282  0.89348  1.0000
  C   C10       1.0  0.24638  0.32718  0.60652  1.0000
  C   C11       1.0  0.25362  0.82718  0.10652  1.0000
  C   C12       1.0  0.75362  0.67282  0.39347  1.0000
  C   C13       1.0  0.57238  0.26985  0.88956  1.0000
  C   C14       1.0  0.07238  0.23015  0.61044  1.0000
  C   C15       1.0  0.42762  0.73015  0.11044  1.0000
  C   C16       1.0  0.92762  0.76985  0.38956  1.0000
  C   C17       1.0  0.66307  0.42081  0.72697  1.0000
  C   C18       1.0  0.16307  0.07919  0.77303  1.0000
  C   C19       1.0  0.33693  0.57919  0.27303  1.0000
  C   C20       1.0  0.83693  0.92081  0.22697  1.0000
  C   C21       1.0  0.64443  0.29131  0.65519  1.0000
  C   C22       1.0  0.14444  0.20869  0.84481  1.0000
  C   C23       1.0  0.35556  0.70869  0.34481  1.0000
  C   C24       1.0  0.85556  0.79131  0.15519  1.0000
  C   C25       1.0  0.56025  0.21838  0.70175  1.0000
  C   C26       1.0  0.06025  0.28162  0.79825  1.0000
  C   C27       1.0  0.43975  0.78162  0.29825  1.0000
  C   C28       1.0  0.93975  0.71838  0.20175  1.0000
  C   C29       1.0  0.54466  0.85728  0.62795  1.0000
  C   C30       1.0  0.04465  0.64272  0.87205  1.0000
  C   C31       1.0  0.45535  0.14272  0.37205  1.0000
  C   C32       1.0  0.95535  0.35728  0.12795  1.0000
  C   C33       1.0  0.37470  0.94003  0.56389  1.0000
  C   C34       1.0  0.87470  0.55997  0.93611  1.0000
  C   C35       1.0  0.62530  0.05997  0.43611  1.0000
  C   C36       1.0  0.12530  0.44003  0.06389  1.0000
  C   C37       1.0  0.17297  0.71207  0.58717  1.0000
  C   C38       1.0  0.67297  0.78794  0.91283  1.0000
  C   C39       1.0  0.82703  0.28794  0.41282  1.0000
  C   C40       1.0  0.32703  0.21206  0.08718  1.0000
  C   C41       1.0  0.33675  0.61723  0.64051  1.0000
  C   C42       1.0  0.83675  0.88277  0.85949  1.0000
  C   C43       1.0  0.66325  0.38277  0.35949  1.0000
  C   C44       1.0  0.16325  0.11723  0.14051  1.0000
  N   N1        1.0  0.75453  0.48640  0.68673  1.0000
  N   N2        1.0  0.25453  0.01360  0.81327  1.0000
  N   N3        1.0  0.24547  0.51360  0.31327  1.0000
  N   N4        1.0  0.74547  0.98640  0.18673  1.0000
  N   N5        1.0  0.87956  0.44740  0.66364  1.0000
  N   N6        1.0  0.37956  0.05260  0.83636  1.0000
  N   N7        1.0  0.12044  0.55260  0.33636  1.0000
  N   N8        1.0  0.62044  0.94740  0.16364  1.0000
  N   N9        1.0  0.84756  0.62404  0.64024  1.0000
  N   N10       1.0  0.34755  0.87596  0.85976  1.0000
  N   N11       1.0  0.15245  0.37596  0.35976  1.0000
  N   N12       1.0  0.65245  0.12404  0.14024  1.0000
  N   N13       1.0  0.61620  0.21549  0.79534  1.0000
  N   N14       1.0  0.11620  0.28451  0.70466  1.0000
  N   N15       1.0  0.38380  0.78451  0.20466  1.0000
  N   N16       1.0  0.88380  0.71549  0.29534  1.0000
  N   N17       1.0  0.72770  0.15304  0.79624  1.0000
  N   N18       1.0  0.22770  0.34697  0.70376  1.0000
  N   N19       1.0  0.27230  0.84696  0.20376  1.0000
  N   N20       1.0  0.77230  0.65304  0.29624  1.0000
  N   N21       1.0  0.65286  0.24418  0.95336  1.0000
  N   N22       1.0  0.15286  0.25582  0.54664  1.0000
  N   N23       1.0  0.34714  0.75582  0.04664  1.0000
  N   N24       1.0  0.84714  0.74418  0.45336  1.0000
  N   N25       1.0  0.42572  0.86575  0.60196  1.0000
  N   N26       1.0  0.92572  0.63425  0.89803  1.0000
  N   N27       1.0  0.57428  0.13425  0.39803  1.0000
  N   N28       1.0  0.07428  0.36575  0.10197  1.0000
  N   N29       1.0  0.64855  0.83925  0.65621  1.0000
  N   N30       1.0  0.14855  0.66075  0.84378  1.0000
  N   N31       1.0  0.35145  0.16075  0.34378  1.0000
  N   N32       1.0  0.85145  0.33925  0.15622  1.0000
  N   N33       1.0  0.31613  0.00206  0.52903  1.0000
  N   N34       1.0  0.81614  0.49794  0.97096  1.0000
  N   N35       1.0  0.68386  0.99794  0.47097  1.0000
  N   N36       1.0  0.18387  0.50206  0.02903  1.0000
  N   N37       1.0  0.25181  0.62258  0.57516  1.0000
  N   N38       1.0  0.75181  0.87742  0.92484  1.0000
  N   N39       1.0  0.74818  0.37742  0.42484  1.0000
  N   N40       1.0  0.24819  0.12258  0.07517  1.0000
  N   N41       1.0  0.09604  0.78802  0.59124  1.0000
  N   N42       1.0  0.59604  0.71198  0.90876  1.0000
  N   N43       1.0  0.90395  0.21198  0.40876  1.0000
  N   N44       1.0  0.40395  0.28802  0.09124  1.0000
  N   N45       1.0  0.41645  0.60144  0.69523  1.0000
  N   N46       1.0  0.91645  0.89856  0.80477  1.0000
  N   N47       1.0  0.58354  0.39856  0.30477  1.0000
  N   N48       1.0  0.08354  0.10143  0.19523  1.0000
  O   O1        1.0  0.86172  0.01401  0.62128  1.0000
  O   O2        1.0  0.36172  0.48599  0.87873  1.0000
  O   O3        1.0  0.13828  0.98600  0.37873  1.0000
  O   O4        1.0  0.63828  0.51400  0.12127  1.0000
