data_image0
_chemical_formula_structural       Ga4H12C8O20
_chemical_formula_sum              "Ga4 H12 C8 O20"
_cell_length_a       6.87184
_cell_length_b       6.87183
_cell_length_c       10.0983
_cell_angle_alpha    100.155
_cell_angle_beta     100.154
_cell_angle_gamma    100.032

_space_group_name_H-M_alt    "P 1"
_space_group_IT_number       1

loop_
  _space_group_symop_operation_xyz
  'x, y, z'

loop_
  _atom_site_type_symbol
  _atom_site_label
  _atom_site_symmetry_multiplicity
  _atom_site_fract_x
  _atom_site_fract_y
  _atom_site_fract_z
  _atom_site_occupancy
  Ga  Ga1       1.0  0.75164  0.24728  0.74988  1.0000
  Ga  Ga2       1.0  0.75272  0.24836  0.25013  1.0000
  Ga  Ga3       1.0  0.75187  0.74737  0.74995  1.0000
  Ga  Ga4       1.0  0.25263  0.24812  0.25005  1.0000
  H   H1        1.0  0.22583  0.04919  0.64080  1.0000
  H   H2        1.0  0.95081  0.77417  0.35921  1.0000
  H   H3        1.0  0.44016  0.85134  0.40702  1.0000
  H   H4        1.0  0.14866  0.55985  0.59298  1.0000
  H   H5        1.0  0.06351  0.64296  0.09278  1.0000
  H   H6        1.0  0.35705  0.93648  0.90722  1.0000
  H   H7        1.0  0.80435  0.46477  0.57598  1.0000
  H   H8        1.0  0.53523  0.19565  0.42402  1.0000
  H   H9        1.0  0.70034  0.03019  0.92418  1.0000
  H   H10       1.0  0.96981  0.29967  0.07583  1.0000
  H   H11       1.0  0.27663  0.44548  0.85773  1.0000
  H   H12       1.0  0.55453  0.72336  0.14227  1.0000
  C   C1        1.0  0.07997  0.02880  0.67372  1.0000
  C   C2        1.0  0.97120  0.92003  0.32629  1.0000
  C   C3        1.0  0.53600  0.89707  0.51187  1.0000
  C   C4        1.0  0.10293  0.46400  0.48814  1.0000
  C   C5        1.0  0.96755  0.59754  0.98798  1.0000
  C   C6        1.0  0.40247  0.03244  0.01202  1.0000
  C   C7        1.0  0.42305  0.46576  0.82555  1.0000
  C   C8        1.0  0.53424  0.57694  0.17445  1.0000
  O   O1        1.0  0.77718  0.48038  0.66994  1.0000
  O   O2        1.0  0.51963  0.22282  0.33006  1.0000
  O   O3        1.0  0.01885  0.85828  0.70113  1.0000
  O   O4        1.0  0.14171  0.98115  0.29887  1.0000
  O   O5        1.0  0.72641  0.01428  0.82991  1.0000
  O   O6        1.0  0.98572  0.27359  0.17009  1.0000
  O   O7        1.0  0.56424  0.08526  0.56801  1.0000
  O   O8        1.0  0.91474  0.43576  0.43199  1.0000
  O   O9        1.0  0.60240  0.76031  0.56187  1.0000
  O   O10       1.0  0.23970  0.39760  0.43813  1.0000
  O   O11       1.0  0.99616  0.18006  0.67830  1.0000
  O   O12       1.0  0.81994  0.00383  0.32170  1.0000
  O   O13       1.0  0.93864  0.40928  0.93181  1.0000
  O   O14       1.0  0.59073  0.06135  0.06819  1.0000
  O   O15       1.0  0.90174  0.73460  0.93800  1.0000
  O   O16       1.0  0.26540  0.09824  0.06201  1.0000
  O   O17       1.0  0.48495  0.63657  0.79877  1.0000
  O   O18       1.0  0.36343  0.51504  0.20123  1.0000
  O   O19       1.0  0.50656  0.31432  0.82094  1.0000
  O   O20       1.0  0.68568  0.49344  0.17905  1.0000
