data_image0
_chemical_formula_structural       Al4H12C8O20
_chemical_formula_sum              "Al4 H12 C8 O20"
_cell_length_a       6.71865
_cell_length_b       6.71861
_cell_length_c       10.0543
_cell_angle_alpha    100.694
_cell_angle_beta     100.695
_cell_angle_gamma    97.1055

_space_group_name_H-M_alt    "P 1"
_space_group_IT_number       1

loop_
  _space_group_symop_operation_xyz
  'x, y, z'

loop_
  _atom_site_type_symbol
  _atom_site_label
  _atom_site_symmetry_multiplicity
  _atom_site_fract_x
  _atom_site_fract_y
  _atom_site_fract_z
  _atom_site_occupancy
  Al  Al1       1.0  0.78011  0.21757  0.74940  1.0000
  Al  Al2       1.0  0.78243  0.21989  0.25060  1.0000
  Al  Al3       1.0  0.78050  0.71771  0.74948  1.0000
  Al  Al4       1.0  0.28229  0.21950  0.25052  1.0000
  H   H1        1.0  0.26243  0.00164  0.65786  1.0000
  H   H2        1.0  0.99836  0.73757  0.34214  1.0000
  H   H3        1.0  0.47489  0.83239  0.41130  1.0000
  H   H4        1.0  0.16761  0.52511  0.58870  1.0000
  H   H5        1.0  0.08668  0.60260  0.08726  1.0000
  H   H6        1.0  0.39740  0.91333  0.91274  1.0000
  H   H7        1.0  0.82600  0.42913  0.57995  1.0000
  H   H8        1.0  0.57087  0.17400  0.42005  1.0000
  H   H9        1.0  0.73727  0.00710  0.91949  1.0000
  H   H10       1.0  0.99290  0.26273  0.08051  1.0000
  H   H11       1.0  0.29623  0.43306  0.83796  1.0000
  H   H12       1.0  0.56694  0.70377  0.16204  1.0000
  C   C1        1.0  0.10889  0.98657  0.68274  1.0000
  C   C2        1.0  0.01342  0.89111  0.31726  1.0000
  C   C3        1.0  0.57314  0.87488  0.51627  1.0000
  C   C4        1.0  0.12510  0.42687  0.48373  1.0000
  C   C5        1.0  0.98800  0.56006  0.98241  1.0000
  C   C6        1.0  0.43996  0.01200  0.01758  1.0000
  C   C7        1.0  0.45095  0.44866  0.81486  1.0000
  C   C8        1.0  0.55135  0.54905  0.18514  1.0000
  O   O1        1.0  0.80737  0.45011  0.67623  1.0000
  O   O2        1.0  0.54989  0.19263  0.32378  1.0000
  O   O3        1.0  0.03802  0.81306  0.70243  1.0000
  O   O4        1.0  0.18694  0.96198  0.29757  1.0000
  O   O5        1.0  0.75329  0.98529  0.82268  1.0000
  O   O6        1.0  0.01471  0.24671  0.17732  1.0000
  O   O7        1.0  0.61091  0.06711  0.57158  1.0000
  O   O8        1.0  0.93289  0.38909  0.42842  1.0000
  O   O9        1.0  0.63451  0.73198  0.56942  1.0000
  O   O10       1.0  0.26804  0.36549  0.43058  1.0000
  O   O11       1.0  0.02430  0.14587  0.68820  1.0000
  O   O12       1.0  0.85413  0.97570  0.31180  1.0000
  O   O13       1.0  0.94928  0.36775  0.92734  1.0000
  O   O14       1.0  0.63225  0.05072  0.07266  1.0000
  O   O15       1.0  0.92711  0.70317  0.92926  1.0000
  O   O16       1.0  0.29683  0.07290  0.07075  1.0000
  O   O17       1.0  0.52276  0.62253  0.79616  1.0000
  O   O18       1.0  0.37747  0.47724  0.20385  1.0000
  O   O19       1.0  0.53566  0.28945  0.81004  1.0000
  O   O20       1.0  0.71055  0.46434  0.18996  1.0000
