data_image0
_chemical_formula_structural       Cd4H40C28N48
_chemical_formula_sum              "Cd4 H40 C28 N48"
_cell_length_a       11.0155
_cell_length_b       11.0369
_cell_length_c       12.7648
_cell_angle_alpha    105.354
_cell_angle_beta     90.0002
_cell_angle_gamma    119.936

_space_group_name_H-M_alt    "P 1"
_space_group_IT_number       1

loop_
  _space_group_symop_operation_xyz
  'x, y, z'

loop_
  _atom_site_type_symbol
  _atom_site_label
  _atom_site_symmetry_multiplicity
  _atom_site_fract_x
  _atom_site_fract_y
  _atom_site_fract_z
  _atom_site_occupancy
  Cd  Cd1       1.0  0.84401  1.00000  0.75000  1.0000
  Cd  Cd2       1.0  0.15599  1.00000  0.25000  1.0000
  Cd  Cd3       1.0  1.00000  1.00000  0.50000  1.0000
  Cd  Cd4       1.0  1.00000  1.00000  1.00000  1.0000
  H   H1        1.0  0.62828  0.44964  0.98682  1.0000
  H   H2        1.0  0.17864  0.55036  0.51318  1.0000
  H   H3        1.0  0.37172  0.55036  0.01317  1.0000
  H   H4        1.0  0.82135  0.44963  0.48682  1.0000
  H   H5        1.0  0.49656  0.28634  0.88781  1.0000
  H   H6        1.0  0.21022  0.71367  0.61220  1.0000
  H   H7        1.0  0.50344  0.71366  0.11219  1.0000
  H   H8        1.0  0.78978  0.28633  0.38781  1.0000
  H   H9        1.0  0.73136  0.56446  0.84083  1.0000
  H   H10       1.0  0.16690  0.43554  0.65917  1.0000
  H   H11       1.0  0.26864  0.43554  0.15916  1.0000
  H   H12       1.0  0.83310  0.56446  0.34083  1.0000
  H   H13       1.0  0.54945  0.50689  0.83629  1.0000
  H   H14       1.0  0.04256  0.49312  0.66371  1.0000
  H   H15       1.0  0.45055  0.49311  0.16371  1.0000
  H   H16       1.0  0.95744  0.50688  0.33629  1.0000
  H   H17       1.0  0.61899  0.45367  0.64933  1.0000
  H   H18       1.0  0.16533  0.54633  0.85067  1.0000
  H   H19       1.0  0.38101  0.54632  0.35067  1.0000
  H   H20       1.0  0.83468  0.45367  0.14933  1.0000
  H   H21       1.0  0.67055  0.33898  0.68274  1.0000
  H   H22       1.0  0.33158  0.66102  0.81726  1.0000
  H   H23       1.0  0.32944  0.66101  0.31725  1.0000
  H   H24       1.0  0.66843  0.33898  0.18275  1.0000
  H   H25       1.0  0.99964  0.35315  0.88642  1.0000
  H   H26       1.0  0.64648  0.64684  0.61358  1.0000
  H   H27       1.0  0.00036  0.64684  0.11358  1.0000
  H   H28       1.0  0.35352  0.35316  0.38642  1.0000
  H   H29       1.0  0.55520  0.08585  0.83703  1.0000
  H   H30       1.0  0.46935  0.91415  0.66297  1.0000
  H   H31       1.0  0.44480  0.91415  0.16297  1.0000
  H   H32       1.0  0.53066  0.08585  0.33703  1.0000
  H   H33       1.0  0.21448  0.92927  0.63161  1.0000
  H   H34       1.0  0.28521  0.07073  0.86839  1.0000
  H   H35       1.0  0.78552  0.07073  0.36839  1.0000
  H   H36       1.0  0.71479  0.92927  0.13161  1.0000
  H   H37       1.0  0.34525  0.34548  0.59975  1.0000
  H   H38       1.0  0.99977  0.65452  0.90025  1.0000
  H   H39       1.0  0.65475  0.65452  0.40025  1.0000
  H   H40       1.0  0.00023  0.34548  0.09975  1.0000
  C   C1        1.0  0.60511  0.37974  0.90144  1.0000
  C   C2        1.0  0.22538  0.62027  0.59856  1.0000
  C   C3        1.0  0.39489  0.62027  0.09856  1.0000
  C   C4        1.0  0.77462  0.37973  0.40144  1.0000
  C   C5        1.0  0.62368  0.46728  0.82187  1.0000
  C   C6        1.0  0.15640  0.53272  0.67814  1.0000
  C   C7        1.0  0.37632  0.53272  0.17813  1.0000
  C   C8        1.0  0.84360  0.46728  0.32187  1.0000
  C   C9        1.0  0.59941  0.38201  0.70045  1.0000
  C   C10       1.0  0.21740  0.61799  0.79955  1.0000
  C   C11       1.0  0.40059  0.61799  0.29955  1.0000
  C   C12       1.0  0.78260  0.38201  0.20045  1.0000
  C   C13       1.0  0.88808  0.31759  0.88091  1.0000
  C   C14       1.0  0.57049  0.68241  0.61909  1.0000
  C   C15       1.0  0.11192  0.68241  0.11909  1.0000
  C   C16       1.0  0.42951  0.31759  0.38091  1.0000
  C   C17       1.0  0.66343  0.17852  0.85483  1.0000
  C   C18       1.0  0.48491  0.82148  0.64517  1.0000
  C   C19       1.0  0.33657  0.82148  0.14517  1.0000
  C   C20       1.0  0.51509  0.17852  0.35483  1.0000
  C   C21       1.0  0.27932  0.04319  0.63430  1.0000
  C   C22       1.0  0.23613  0.95681  0.86570  1.0000
  C   C23       1.0  0.72068  0.95681  0.36570  1.0000
  C   C24       1.0  0.76387  0.04319  0.13430  1.0000
  C   C25       1.0  0.34158  0.25210  0.61639  1.0000
  C   C26       1.0  0.08949  0.74790  0.88361  1.0000
  C   C27       1.0  0.65842  0.74790  0.38361  1.0000
  C   C28       1.0  0.91051  0.25210  0.11639  1.0000
  N   N1        1.0  0.69803  0.31965  0.88948  1.0000
  N   N2        1.0  0.37837  0.68035  0.61052  1.0000
  N   N3        1.0  0.30197  0.68035  0.11052  1.0000
  N   N4        1.0  0.62163  0.31965  0.38948  1.0000
  N   N5        1.0  0.84184  0.41048  0.90677  1.0000
  N   N6        1.0  0.43136  0.58952  0.59323  1.0000
  N   N7        1.0  0.15816  0.58952  0.09323  1.0000
  N   N8        1.0  0.56864  0.41048  0.40677  1.0000
  N   N9        1.0  0.78226  0.17340  0.84834  1.0000
  N   N10       1.0  0.60887  0.82660  0.65166  1.0000
  N   N11       1.0  0.21774  0.82660  0.15166  1.0000
  N   N12       1.0  0.39114  0.17340  0.34834  1.0000
  N   N13       1.0  0.45484  0.25697  0.66150  1.0000
  N   N14       1.0  0.19788  0.74304  0.83851  1.0000
  N   N15       1.0  0.54515  0.74303  0.33850  1.0000
  N   N16       1.0  0.80212  0.25697  0.16150  1.0000
  N   N17       1.0  0.41680  0.12421  0.67433  1.0000
  N   N18       1.0  0.29259  0.87580  0.82567  1.0000
  N   N19       1.0  0.58320  0.87579  0.32567  1.0000
  N   N20       1.0  0.70741  0.12420  0.17433  1.0000
  N   N21       1.0  0.22840  0.11707  0.59748  1.0000
  N   N22       1.0  0.11133  0.88293  0.90252  1.0000
  N   N23       1.0  0.77160  0.88293  0.40252  1.0000
  N   N24       1.0  0.88866  0.11707  0.09748  1.0000
  N   N25       1.0  0.91892  0.85992  0.62352  1.0000
  N   N26       1.0  0.05900  0.14008  0.87648  1.0000
  N   N27       1.0  0.08108  0.14008  0.37648  1.0000
  N   N28       1.0  0.94100  0.85992  0.12352  1.0000
  N   N29       1.0  0.92599  0.75774  0.63279  1.0000
  N   N30       1.0  0.16825  0.24226  0.86721  1.0000
  N   N31       1.0  0.07401  0.24226  0.36721  1.0000
  N   N32       1.0  0.83175  0.75774  0.13279  1.0000
  N   N33       1.0  0.93144  0.65785  0.64189  1.0000
  N   N34       1.0  0.27359  0.34215  0.85811  1.0000
  N   N35       1.0  0.06856  0.34215  0.35811  1.0000
  N   N36       1.0  0.72641  0.65785  0.14189  1.0000
  N   N37       1.0  0.93487  0.14812  0.63265  1.0000
  N   N38       1.0  0.78675  0.85188  0.86735  1.0000
  N   N39       1.0  0.06513  0.85187  0.36735  1.0000
  N   N40       1.0  0.21326  0.14812  0.13265  1.0000
  N   N41       1.0  0.85920  0.18949  0.60771  1.0000
  N   N42       1.0  0.66970  0.81051  0.89229  1.0000
  N   N43       1.0  0.14080  0.81051  0.39229  1.0000
  N   N44       1.0  0.33030  0.18949  0.10771  1.0000
  N   N45       1.0  0.78771  0.23190  0.58517  1.0000
  N   N46       1.0  0.55581  0.76810  0.91483  1.0000
  N   N47       1.0  0.21229  0.76810  0.41483  1.0000
  N   N48       1.0  0.44419  0.23190  0.08517  1.0000
