data_image0
_chemical_formula_structural       Cd6H36C24O36
_chemical_formula_sum              "Cd6 H36 C24 O36"
_cell_length_a       9.54047
_cell_length_b       9.72677
_cell_length_c       13.6781
_cell_angle_alpha    71.3327
_cell_angle_beta     69.5879
_cell_angle_gamma    60.6295

_space_group_name_H-M_alt    "P 1"
_space_group_IT_number       1

loop_
  _space_group_symop_operation_xyz
  'x, y, z'

loop_
  _atom_site_type_symbol
  _atom_site_label
  _atom_site_symmetry_multiplicity
  _atom_site_fract_x
  _atom_site_fract_y
  _atom_site_fract_z
  _atom_site_occupancy
  Cd  Cd1       1.0  0.48337  0.74997  0.25000  1.0000
  Cd  Cd2       1.0  0.51663  0.25002  0.75000  1.0000
  Cd  Cd3       1.0  0.98702  0.80427  0.70591  1.0000
  Cd  Cd4       1.0  0.49715  0.69577  0.79409  1.0000
  Cd  Cd5       1.0  0.01298  0.19573  0.29409  1.0000
  Cd  Cd6       1.0  0.50285  0.30423  0.20591  1.0000
  H   H1        1.0  0.90353  0.53011  0.78154  1.0000
  H   H2        1.0  0.21512  0.96996  0.71844  1.0000
  H   H3        1.0  0.09647  0.46989  0.21846  1.0000
  H   H4        1.0  0.78488  0.03004  0.28156  1.0000
  H   H5        1.0  0.09007  0.46875  0.78806  1.0000
  H   H6        1.0  0.34685  0.03129  0.71192  1.0000
  H   H7        1.0  0.90993  0.53125  0.21194  1.0000
  H   H8        1.0  0.65315  0.96871  0.28808  1.0000
  H   H9        1.0  0.30047  0.61419  0.58940  1.0000
  H   H10       1.0  0.50413  0.88580  0.91059  1.0000
  H   H11       1.0  0.69954  0.38580  0.41060  1.0000
  H   H12       1.0  0.49587  0.11420  0.08941  1.0000
  H   H13       1.0  0.22181  0.75080  0.50326  1.0000
  H   H14       1.0  0.47593  0.74919  0.99673  1.0000
  H   H15       1.0  0.77819  0.24920  0.49674  1.0000
  H   H16       1.0  0.52407  0.25081  0.00327  1.0000
  H   H17       1.0  0.93740  0.13512  0.65136  1.0000
  H   H18       1.0  0.72388  0.36490  0.84863  1.0000
  H   H19       1.0  0.06260  0.86488  0.34864  1.0000
  H   H20       1.0  0.27612  0.63510  0.15137  1.0000
  H   H21       1.0  0.09288  0.04793  0.56885  1.0000
  H   H22       1.0  0.70966  0.45210  0.93113  1.0000
  H   H23       1.0  0.90712  0.95206  0.43115  1.0000
  H   H24       1.0  0.29034  0.54790  0.06887  1.0000
  H   H25       1.0  0.99566  0.96420  0.90159  1.0000
  H   H26       1.0  0.86141  0.53582  0.59846  1.0000
  H   H27       1.0  0.00434  0.03580  0.09841  1.0000
  H   H28       1.0  0.13859  0.46418  0.40154  1.0000
  H   H29       1.0  0.82934  0.04101  0.00937  1.0000
  H   H30       1.0  0.87972  0.45901  0.49066  1.0000
  H   H31       1.0  0.17066  0.95899  0.99063  1.0000
  H   H32       1.0  0.12028  0.54099  0.50934  1.0000
  H   H33       1.0  0.03899  0.55158  0.03385  1.0000
  H   H34       1.0  0.62442  0.94843  0.46616  1.0000
  H   H35       1.0  0.96101  0.44842  0.96615  1.0000
  H   H36       1.0  0.37558  0.05157  0.53384  1.0000
  C   C1        1.0  0.74578  0.78633  0.08685  1.0000
  C   C2        1.0  0.61897  0.71368  0.41316  1.0000
  C   C3        1.0  0.25422  0.21367  0.91315  1.0000
  C   C4        1.0  0.38103  0.28632  0.58684  1.0000
  C   C5        1.0  0.89200  0.80063  0.00350  1.0000
  C   C6        1.0  0.69610  0.69940  0.49651  1.0000
  C   C7        1.0  0.10800  0.19937  0.99650  1.0000
  C   C8        1.0  0.30390  0.30060  0.50349  1.0000
  C   C9        1.0  0.75993  0.05500  0.87337  1.0000
  C   C10       1.0  0.68827  0.44503  0.62662  1.0000
  C   C11       1.0  0.24006  0.94500  0.12663  1.0000
  C   C12       1.0  0.31173  0.55497  0.37338  1.0000
  C   C13       1.0  0.87456  0.96743  0.94910  1.0000
  C   C14       1.0  0.79106  0.53259  0.55092  1.0000
  C   C15       1.0  0.12544  0.03257  0.05090  1.0000
  C   C16       1.0  0.20894  0.46741  0.44908  1.0000
  C   C17       1.0  0.18278  0.66420  0.90217  1.0000
  C   C18       1.0  0.74916  0.83581  0.59784  1.0000
  C   C19       1.0  0.81722  0.33580  0.09783  1.0000
  C   C20       1.0  0.25084  0.16419  0.40216  1.0000
  C   C21       1.0  0.03125  0.66666  0.98429  1.0000
  C   C22       1.0  0.68220  0.83334  0.51572  1.0000
  C   C23       1.0  0.96875  0.33334  0.01571  1.0000
  C   C24       1.0  0.31780  0.16666  0.48428  1.0000
  O   O1        1.0  0.60823  0.90873  0.09460  1.0000
  O   O2        1.0  0.61157  0.59128  0.40542  1.0000
  O   O3        1.0  0.39177  0.09127  0.90540  1.0000
  O   O4        1.0  0.38843  0.40872  0.59458  1.0000
  O   O5        1.0  0.76078  0.65024  0.14767  1.0000
  O   O6        1.0  0.55869  0.84977  0.35233  1.0000
  O   O7        1.0  0.23922  0.34976  0.85233  1.0000
  O   O8        1.0  0.44132  0.15023  0.64767  1.0000
  O   O9        1.0  0.66380  0.20458  0.87427  1.0000
  O   O10       1.0  0.74261  0.29546  0.62572  1.0000
  O   O11       1.0  0.33620  0.79542  0.12573  1.0000
  O   O12       1.0  0.25739  0.70454  0.37428  1.0000
  O   O13       1.0  0.76255  0.98418  0.80891  1.0000
  O   O14       1.0  0.55560  0.51584  0.69108  1.0000
  O   O15       1.0  0.23745  0.01582  0.19109  1.0000
  O   O16       1.0  0.44440  0.48416  0.30892  1.0000
  O   O17       1.0  0.31537  0.60648  0.93463  1.0000
  O   O18       1.0  0.85648  0.89354  0.56539  1.0000
  O   O19       1.0  0.68463  0.39352  0.06537  1.0000
  O   O20       1.0  0.14352  0.10646  0.43461  1.0000
  O   O21       1.0  0.00507  0.54672  0.74623  1.0000
  O   O22       1.0  0.29796  0.95334  0.75376  1.0000
  O   O23       1.0  0.99493  0.45328  0.25377  1.0000
  O   O24       1.0  0.70204  0.04666  0.24624  1.0000
  O   O25       1.0  0.23392  0.73186  0.57575  1.0000
  O   O26       1.0  0.54159  0.76814  0.92424  1.0000
  O   O27       1.0  0.76608  0.26814  0.42425  1.0000
  O   O28       1.0  0.45841  0.23187  0.07577  1.0000
  O   O29       1.0  0.17823  0.72019  0.80572  1.0000
  O   O30       1.0  0.70413  0.77982  0.69429  1.0000
  O   O31       1.0  0.82177  0.27981  0.19428  1.0000
  O   O32       1.0  0.29587  0.22018  0.30571  1.0000
  O   O33       1.0  0.04419  0.03851  0.64726  1.0000
  O   O34       1.0  0.72993  0.46153  0.85272  1.0000
  O   O35       1.0  0.95581  0.96149  0.35274  1.0000
  O   O36       1.0  0.27007  0.53847  0.14728  1.0000
