data_image0
_chemical_formula_structural       Ca2Zn2H20C12N2Cl6O4
_chemical_formula_sum              "Ca2 Zn2 H20 C12 N2 Cl6 O4"
_cell_length_a       6.84598
_cell_length_b       7.98696
_cell_length_c       10.7078
_cell_angle_alpha    86.1964
_cell_angle_beta     79.1073
_cell_angle_gamma    90.3578

_space_group_name_H-M_alt    "P 1"
_space_group_IT_number       1

loop_
  _space_group_symop_operation_xyz
  'x, y, z'

loop_
  _atom_site_type_symbol
  _atom_site_label
  _atom_site_symmetry_multiplicity
  _atom_site_fract_x
  _atom_site_fract_y
  _atom_site_fract_z
  _atom_site_occupancy
  Ca  Ca1       1.0  0.68447  0.17301  0.08635  1.0000
  Ca  Ca2       1.0  0.31553  0.82698  0.91365  1.0000
  Zn  Zn1       1.0  0.39527  0.26582  0.85203  1.0000
  Zn  Zn2       1.0  0.60473  0.73418  0.14797  1.0000
  H   H1        1.0  0.37385  0.39267  0.20489  1.0000
  H   H2        1.0  0.62615  0.60732  0.79511  1.0000
  H   H3        1.0  0.24987  0.04456  0.28679  1.0000
  H   H4        1.0  0.75013  0.95544  0.71322  1.0000
  H   H5        1.0  0.57663  0.37704  0.35961  1.0000
  H   H6        1.0  0.42337  0.62296  0.64039  1.0000
  H   H7        1.0  0.47870  0.17271  0.41146  1.0000
  H   H8        1.0  0.52129  0.82729  0.58854  1.0000
  H   H9        1.0  0.24143  0.49745  0.42320  1.0000
  H   H10       1.0  0.75857  0.50255  0.57680  1.0000
  H   H11       1.0  0.30456  0.37844  0.55528  1.0000
  H   H12       1.0  0.69544  0.62156  0.44471  1.0000
  H   H13       1.0  0.95339  0.31099  0.53057  1.0000
  H   H14       1.0  0.04660  0.68902  0.46942  1.0000
  H   H15       1.0  0.10703  0.13497  0.51355  1.0000
  H   H16       1.0  0.89296  0.86504  0.48645  1.0000
  H   H17       1.0  0.90948  0.15240  0.34096  1.0000
  H   H18       1.0  0.09052  0.84761  0.65903  1.0000
  H   H19       1.0  0.99687  0.36065  0.29367  1.0000
  H   H20       1.0  0.00313  0.63935  0.70632  1.0000
  C   C1        1.0  0.21799  0.17184  0.24881  1.0000
  C   C2        1.0  0.78201  0.82815  0.75119  1.0000
  C   C3        1.0  0.44261  0.29672  0.37182  1.0000
  C   C4        1.0  0.55738  0.70328  0.62818  1.0000
  C   C5        1.0  0.26767  0.36933  0.46042  1.0000
  C   C6        1.0  0.73233  0.63068  0.53958  1.0000
  C   C7        1.0  0.08176  0.25911  0.46858  1.0000
  C   C8        1.0  0.91824  0.74089  0.53142  1.0000
  C   C9        1.0  0.03647  0.23899  0.33577  1.0000
  C   C10       1.0  0.96353  0.76102  0.66422  1.0000
  C   C11       1.0  0.18762  0.14882  0.11322  1.0000
  C   C12       1.0  0.81238  0.85117  0.88678  1.0000
  N   N1        1.0  0.40093  0.27496  0.24253  1.0000
  N   N2        1.0  0.59907  0.72504  0.75746  1.0000
  Cl  Cl1       1.0  0.72895  0.30230  0.83491  1.0000
  Cl  Cl2       1.0  0.27105  0.69770  0.16510  1.0000
  Cl  Cl3       1.0  0.20932  0.49083  0.87688  1.0000
  Cl  Cl4       1.0  0.79067  0.50917  0.12313  1.0000
  Cl  Cl5       1.0  0.33609  0.07812  0.71722  1.0000
  Cl  Cl6       1.0  0.66391  0.92187  0.28279  1.0000
  O   O1        1.0  0.01978  0.14825  0.08511  1.0000
  O   O2        1.0  0.98023  0.85174  0.91489  1.0000
  O   O3        1.0  0.35082  0.12532  0.02940  1.0000
  O   O4        1.0  0.64918  0.87466  0.97061  1.0000
