data_image0
_chemical_formula_structural       Hg2H22C26Br4N4O2
_chemical_formula_sum              "Hg2 H22 C26 Br4 N4 O2"
_cell_length_a       9.73732
_cell_length_b       10.0263
_cell_length_c       10.6829
_cell_angle_alpha    71.9008
_cell_angle_beta     86.4254
_cell_angle_gamma    64.358

_space_group_name_H-M_alt    "P 1"
_space_group_IT_number       1

loop_
  _space_group_symop_operation_xyz
  'x, y, z'

loop_
  _atom_site_type_symbol
  _atom_site_label
  _atom_site_symmetry_multiplicity
  _atom_site_fract_x
  _atom_site_fract_y
  _atom_site_fract_z
  _atom_site_occupancy
  Hg  Hg1       1.0  0.82514  0.56988  0.62011  1.0000
  Hg  Hg2       1.0  0.17487  0.43010  0.37988  1.0000
  H   H1        1.0  0.54512  0.46086  0.24981  1.0000
  H   H2        1.0  0.45488  0.53917  0.75017  1.0000
  H   H3        1.0  0.74671  0.41210  0.41738  1.0000
  H   H4        1.0  0.25329  0.58790  0.58260  1.0000
  H   H5        1.0  0.49488  0.84313  0.46885  1.0000
  H   H6        1.0  0.50514  0.15687  0.53115  1.0000
  H   H7        1.0  0.28492  0.91099  0.30673  1.0000
  H   H8        1.0  0.71509  0.08902  0.69327  1.0000
  H   H9        1.0  0.99722  0.83996  0.05516  1.0000
  H   H10       1.0  0.00277  0.16004  0.94485  1.0000
  H   H11       1.0  0.94214  0.80445  0.85671  1.0000
  H   H12       1.0  0.05785  0.19555  0.14328  1.0000
  H   H13       1.0  0.99905  0.79878  0.62924  1.0000
  H   H14       1.0  0.00095  0.20121  0.37076  1.0000
  H   H15       1.0  0.20469  0.86750  0.52358  1.0000
  H   H16       1.0  0.79533  0.13249  0.47643  1.0000
  H   H17       1.0  0.35708  0.93730  0.64982  1.0000
  H   H18       1.0  0.64292  0.06269  0.35020  1.0000
  H   H19       1.0  0.29111  0.95636  0.87295  1.0000
  H   H20       1.0  0.70888  0.04363  0.12706  1.0000
  H   H21       1.0  0.19674  0.95379  0.12437  1.0000
  H   H22       1.0  0.80324  0.04623  0.87563  1.0000
  C   C1        1.0  0.53131  0.54846  0.29575  1.0000
  C   C2        1.0  0.46869  0.45156  0.70423  1.0000
  C   C3        1.0  0.64246  0.52119  0.38845  1.0000
  C   C4        1.0  0.35755  0.47882  0.61153  1.0000
  C   C5        1.0  0.50212  0.76217  0.41726  1.0000
  C   C6        1.0  0.49789  0.23783  0.58274  1.0000
  C   C7        1.0  0.38578  0.79940  0.32510  1.0000
  C   C8        1.0  0.61423  0.20062  0.67490  1.0000
  C   C9        1.0  0.40005  0.69083  0.26262  1.0000
  C   C10       1.0  0.59995  0.30918  0.73737  1.0000
  C   C11       1.0  0.27799  0.71766  0.16577  1.0000
  C   C12       1.0  0.72200  0.28235  0.83424  1.0000
  C   C13       1.0  0.05661  0.91298  0.00936  1.0000
  C   C14       1.0  0.94337  0.08702  0.99065  1.0000
  C   C15       1.0  0.10806  0.88789  0.87809  1.0000
  C   C16       1.0  0.89193  0.11210  0.12192  1.0000
  C   C17       1.0  0.02973  0.83934  0.80992  1.0000
  C   C18       1.0  0.97026  0.16066  0.19009  1.0000
  C   C19       1.0  0.06379  0.83276  0.68253  1.0000
  C   C20       1.0  0.93621  0.16723  0.31747  1.0000
  C   C21       1.0  0.18006  0.87019  0.62391  1.0000
  C   C22       1.0  0.81994  0.12981  0.37610  1.0000
  C   C23       1.0  0.26375  0.91141  0.69371  1.0000
  C   C24       1.0  0.73626  0.08858  0.30630  1.0000
  C   C25       1.0  0.22703  0.92133  0.81990  1.0000
  C   C26       1.0  0.77296  0.07867  0.18011  1.0000
  Br  Br1       1.0  0.00827  0.30025  0.61831  1.0000
  Br  Br2       1.0  0.99172  0.69974  0.38168  1.0000
  Br  Br3       1.0  0.69060  0.80815  0.68986  1.0000
  Br  Br4       1.0  0.30942  0.19184  0.31011  1.0000
  N   N1        1.0  0.62761  0.62579  0.44835  1.0000
  N   N2        1.0  0.37240  0.37421  0.55164  1.0000
  N   N3        1.0  0.18405  0.86873  0.10144  1.0000
  N   N4        1.0  0.81593  0.13128  0.89856  1.0000
  O   O1        1.0  0.26551  0.60690  0.14748  1.0000
  O   O2        1.0  0.73448  0.39310  0.85253  1.0000
