data_image0
_chemical_formula_structural       Hg2H22C26N4Cl4O2
_chemical_formula_sum              "Hg2 H22 C26 N4 Cl4 O2"
_cell_length_a       9.51373
_cell_length_b       9.76457
_cell_length_c       10.6315
_cell_angle_alpha    72.2643
_cell_angle_beta     85.9234
_cell_angle_gamma    64.7634

_space_group_name_H-M_alt    "P 1"
_space_group_IT_number       1

loop_
  _space_group_symop_operation_xyz
  'x, y, z'

loop_
  _atom_site_type_symbol
  _atom_site_label
  _atom_site_symmetry_multiplicity
  _atom_site_fract_x
  _atom_site_fract_y
  _atom_site_fract_z
  _atom_site_occupancy
  Hg  Hg1       1.0  0.82617  0.57064  0.62457  1.0000
  Hg  Hg2       1.0  0.17383  0.42936  0.37544  1.0000
  H   H1        1.0  0.54718  0.45069  0.25514  1.0000
  H   H2        1.0  0.45282  0.54931  0.74485  1.0000
  H   H3        1.0  0.74936  0.40622  0.42230  1.0000
  H   H4        1.0  0.25064  0.59378  0.57770  1.0000
  H   H5        1.0  0.49971  0.85494  0.46169  1.0000
  H   H6        1.0  0.50028  0.14505  0.53831  1.0000
  H   H7        1.0  0.29001  0.92060  0.29829  1.0000
  H   H8        1.0  0.71000  0.07940  0.70172  1.0000
  H   H9        1.0  0.99902  0.83510  0.05389  1.0000
  H   H10       1.0  0.00099  0.16490  0.94611  1.0000
  H   H11       1.0  0.29061  0.96882  0.86676  1.0000
  H   H12       1.0  0.70939  0.03119  0.13323  1.0000
  H   H13       1.0  0.35391  0.95959  0.63891  1.0000
  H   H14       1.0  0.64608  0.04042  0.36109  1.0000
  H   H15       1.0  0.20291  0.88196  0.51353  1.0000
  H   H16       1.0  0.79708  0.11805  0.48646  1.0000
  H   H17       1.0  0.99870  0.80107  0.62155  1.0000
  H   H18       1.0  0.00130  0.19894  0.37845  1.0000
  H   H19       1.0  0.94227  0.79957  0.85255  1.0000
  H   H20       1.0  0.05774  0.20043  0.14745  1.0000
  H   H21       1.0  0.20432  0.95592  0.11772  1.0000
  H   H22       1.0  0.79569  0.04408  0.88227  1.0000
  C   C1        1.0  0.53392  0.54346  0.29793  1.0000
  C   C2        1.0  0.46609  0.45654  0.70208  1.0000
  C   C3        1.0  0.64546  0.51830  0.39067  1.0000
  C   C4        1.0  0.35453  0.48170  0.60934  1.0000
  C   C5        1.0  0.50674  0.76934  0.41242  1.0000
  C   C6        1.0  0.49325  0.23065  0.58758  1.0000
  C   C7        1.0  0.39025  0.80513  0.31966  1.0000
  C   C8        1.0  0.60975  0.19486  0.68034  1.0000
  C   C9        1.0  0.40317  0.69009  0.26119  1.0000
  C   C10       1.0  0.59684  0.30990  0.73882  1.0000
  C   C11       1.0  0.28028  0.71517  0.16441  1.0000
  C   C12       1.0  0.71972  0.28483  0.83559  1.0000
  C   C13       1.0  0.05804  0.91198  0.00730  1.0000
  C   C14       1.0  0.94195  0.08803  0.99269  1.0000
  C   C15       1.0  0.10892  0.88996  0.87369  1.0000
  C   C16       1.0  0.89109  0.11004  0.12631  1.0000
  C   C17       1.0  0.22680  0.93118  0.81347  1.0000
  C   C18       1.0  0.77320  0.06883  0.18653  1.0000
  C   C19       1.0  0.26249  0.92618  0.68496  1.0000
  C   C20       1.0  0.73751  0.07383  0.31503  1.0000
  C   C21       1.0  0.17902  0.88145  0.61524  1.0000
  C   C22       1.0  0.82098  0.11856  0.38475  1.0000
  C   C23       1.0  0.06378  0.83642  0.67567  1.0000
  C   C24       1.0  0.93622  0.16358  0.32432  1.0000
  C   C25       1.0  0.03023  0.83877  0.80512  1.0000
  C   C26       1.0  0.96977  0.16123  0.19487  1.0000
  N   N1        1.0  0.18824  0.86829  0.09776  1.0000
  N   N2        1.0  0.81177  0.13171  0.90224  1.0000
  N   N3        1.0  0.63142  0.62865  0.44735  1.0000
  N   N4        1.0  0.36858  0.37134  0.55265  1.0000
  Cl  Cl1       1.0  0.99968  0.31271  0.61608  1.0000
  Cl  Cl2       1.0  0.00032  0.68729  0.38393  1.0000
  Cl  Cl3       1.0  0.69581  0.80892  0.68032  1.0000
  Cl  Cl4       1.0  0.30419  0.19108  0.31969  1.0000
  O   O1        1.0  0.26519  0.60122  0.14819  1.0000
  O   O2        1.0  0.73480  0.39878  0.85181  1.0000
