data_image0
_chemical_formula_structural       CuH20C22N4O6
_chemical_formula_sum              "Cu1 H20 C22 N4 O6"
_cell_length_a       5.01688
_cell_length_b       10.3496
_cell_length_c       11.3536
_cell_angle_alpha    61.7898
_cell_angle_beta     78.586
_cell_angle_gamma    85.6921

_space_group_name_H-M_alt    "P 1"
_space_group_IT_number       1

loop_
  _space_group_symop_operation_xyz
  'x, y, z'

loop_
  _atom_site_type_symbol
  _atom_site_label
  _atom_site_symmetry_multiplicity
  _atom_site_fract_x
  _atom_site_fract_y
  _atom_site_fract_z
  _atom_site_occupancy
  Cu  Cu1       1.0  0.00000  1.00000  1.00000  1.0000
  H   H1        1.0  0.53113  0.01499  0.39661  1.0000
  H   H2        1.0  0.46883  0.98504  0.60339  1.0000
  H   H3        1.0  0.24279  0.10193  0.32532  1.0000
  H   H4        1.0  0.75719  0.89809  0.67468  1.0000
  H   H5        1.0  0.45529  0.00078  0.25551  1.0000
  H   H6        1.0  0.54467  0.99923  0.74449  1.0000
  H   H7        1.0  0.79099  0.45355  0.64632  1.0000
  H   H8        1.0  0.20900  0.54645  0.35369  1.0000
  H   H9        1.0  0.68916  0.55614  0.48361  1.0000
  H   H10       1.0  0.31083  0.44386  0.51639  1.0000
  H   H11       1.0  0.51676  0.57796  0.62538  1.0000
  H   H12       1.0  0.48323  0.42205  0.37462  1.0000
  H   H13       1.0  0.01493  0.16784  0.14740  1.0000
  H   H14       1.0  0.98511  0.83216  0.85259  1.0000
  H   H15       1.0  0.82334  0.39374  0.14749  1.0000
  H   H16       1.0  0.17670  0.60625  0.85250  1.0000
  H   H17       1.0  0.32968  0.41562  0.86451  1.0000
  H   H18       1.0  0.67033  0.58436  0.13549  1.0000
  H   H19       1.0  0.54850  0.19396  0.87330  1.0000
  H   H20       1.0  0.45152  0.80604  0.12669  1.0000
  C   C1        1.0  0.95046  0.83205  0.27820  1.0000
  C   C2        1.0  0.04953  0.16794  0.72180  1.0000
  C   C3        1.0  0.01267  0.79615  0.41238  1.0000
  C   C4        1.0  0.98731  0.20387  0.58762  1.0000
  C   C5        1.0  0.19798  0.86968  0.44391  1.0000
  C   C6        1.0  0.80200  0.13034  0.55609  1.0000
  C   C7        1.0  0.90888  0.67933  0.53552  1.0000
  C   C8        1.0  0.09112  0.32067  0.46448  1.0000
  C   C9        1.0  0.36849  0.00400  0.35032  1.0000
  C   C10       1.0  0.63148  0.99601  0.64968  1.0000
  C   C11       1.0  0.71579  0.55872  0.57573  1.0000
  C   C12       1.0  0.28421  0.44129  0.42427  1.0000
  C   C13       1.0  0.86671  0.22929  0.08407  1.0000
  C   C14       1.0  0.13331  0.77070  0.91593  1.0000
  C   C15       1.0  0.75548  0.35654  0.08318  1.0000
  C   C16       1.0  0.24454  0.64345  0.91682  1.0000
  C   C17       1.0  0.55981  0.43132  0.00260  1.0000
  C   C18       1.0  0.44018  0.56865  0.99741  1.0000
  C   C19       1.0  0.48258  0.36806  0.92842  1.0000
  C   C20       1.0  0.51740  0.63192  0.07159  1.0000
  C   C21       1.0  0.60454  0.24119  0.93305  1.0000
  C   C22       1.0  0.39547  0.75880  0.06696  1.0000
  N   N1        1.0  0.20513  0.80340  0.57495  1.0000
  N   N2        1.0  0.79487  0.19661  0.42505  1.0000
  N   N3        1.0  0.79627  0.17294  0.00886  1.0000
  N   N4        1.0  0.20373  0.82705  0.99114  1.0000
  O   O1        1.0  0.09061  0.94428  0.17653  1.0000
  O   O2        1.0  0.90940  0.05571  0.82347  1.0000
  O   O3        1.0  0.78003  0.75926  0.26563  1.0000
  O   O4        1.0  0.21999  0.24072  0.73437  1.0000
  O   O5        1.0  0.01944  0.68062  0.63446  1.0000
  O   O6        1.0  0.98058  0.31938  0.36554  1.0000
