data_image0
_chemical_formula_structural       Cu4H48C48N8O24
_chemical_formula_sum              "Cu4 H48 C48 N8 O24"
_cell_length_a       10.1095
_cell_length_b       11.5811
_cell_length_c       12.4603
_cell_angle_alpha    90.0001
_cell_angle_beta     89.9998
_cell_angle_gamma    96.3657

_space_group_name_H-M_alt    "P 1"
_space_group_IT_number       1

loop_
  _space_group_symop_operation_xyz
  'x, y, z'

loop_
  _atom_site_type_symbol
  _atom_site_label
  _atom_site_symmetry_multiplicity
  _atom_site_fract_x
  _atom_site_fract_y
  _atom_site_fract_z
  _atom_site_occupancy
  Cu  Cu1       1.0  0.05267  0.08290  0.93674  1.0000
  Cu  Cu2       1.0  0.44733  0.41710  0.43674  1.0000
  Cu  Cu3       1.0  0.94732  0.91711  0.06327  1.0000
  Cu  Cu4       1.0  0.55267  0.58289  0.56327  1.0000
  H   H1        1.0  0.36750  0.63969  0.18736  1.0000
  H   H2        1.0  0.13248  0.86030  0.68736  1.0000
  H   H3        1.0  0.63250  0.36031  0.81263  1.0000
  H   H4        1.0  0.86752  0.13969  0.31264  1.0000
  H   H5        1.0  0.20926  0.65371  0.12553  1.0000
  H   H6        1.0  0.29073  0.84628  0.62553  1.0000
  H   H7        1.0  0.79073  0.34629  0.87446  1.0000
  H   H8        1.0  0.70928  0.15371  0.37447  1.0000
  H   H9        1.0  0.28014  0.76321  0.21205  1.0000
  H   H10       1.0  0.21984  0.73679  0.71205  1.0000
  H   H11       1.0  0.71985  0.23680  0.78795  1.0000
  H   H12       1.0  0.78016  0.26320  0.28795  1.0000
  H   H13       1.0  0.57133  0.95139  0.79563  1.0000
  H   H14       1.0  0.92866  0.54859  0.29562  1.0000
  H   H15       1.0  0.42865  0.04861  0.20437  1.0000
  H   H16       1.0  0.07135  0.45141  0.70437  1.0000
  H   H17       1.0  0.45846  0.04105  0.85726  1.0000
  H   H18       1.0  0.04155  0.45894  0.35726  1.0000
  H   H19       1.0  0.54154  0.95896  0.14273  1.0000
  H   H20       1.0  0.95846  0.54104  0.64273  1.0000
  H   H21       1.0  0.39704  0.93174  0.76640  1.0000
  H   H22       1.0  0.10295  0.56825  0.26639  1.0000
  H   H23       1.0  0.60295  0.06827  0.23359  1.0000
  H   H24       1.0  0.89706  0.43174  0.73359  1.0000
  H   H25       1.0  0.26787  0.52790  0.96897  1.0000
  H   H26       1.0  0.23213  0.97209  0.46897  1.0000
  H   H27       1.0  0.73215  0.47210  0.03104  1.0000
  H   H28       1.0  0.76787  0.02790  0.53103  1.0000
  H   H29       1.0  0.30104  0.58654  0.83735  1.0000
  H   H30       1.0  0.19896  0.91345  0.33735  1.0000
  H   H31       1.0  0.69897  0.41346  0.16265  1.0000
  H   H32       1.0  0.80105  0.08655  0.66265  1.0000
  H   H33       1.0  0.42868  0.52916  0.90848  1.0000
  H   H34       1.0  0.07132  0.97085  0.40847  1.0000
  H   H35       1.0  0.57133  0.47084  0.09152  1.0000
  H   H36       1.0  0.92868  0.02915  0.59152  1.0000
  H   H37       1.0  0.17069  0.06116  0.71139  1.0000
  H   H38       1.0  0.32930  0.43884  0.21140  1.0000
  H   H39       1.0  0.82932  0.93884  0.28861  1.0000
  H   H40       1.0  0.67069  0.56116  0.78861  1.0000
  H   H41       1.0  0.33646  0.11371  0.66926  1.0000
  H   H42       1.0  0.16354  0.38628  0.16927  1.0000
  H   H43       1.0  0.66354  0.88628  0.33074  1.0000
  H   H44       1.0  0.83647  0.61372  0.83074  1.0000
  H   H45       1.0  0.19952  0.16544  0.60428  1.0000
  H   H46       1.0  0.30047  0.33456  0.10429  1.0000
  H   H47       1.0  0.80048  0.83455  0.39573  1.0000
  H   H48       1.0  0.69953  0.66545  0.89572  1.0000
  C   C1        1.0  0.21128  0.89766  0.98846  1.0000
  C   C2        1.0  0.28872  0.60234  0.48845  1.0000
  C   C3        1.0  0.78870  0.10235  0.01156  1.0000
  C   C4        1.0  0.71130  0.39766  0.51156  1.0000
  C   C5        1.0  0.33683  0.84443  0.98799  1.0000
  C   C6        1.0  0.16316  0.65557  0.48799  1.0000
  C   C7        1.0  0.66315  0.15558  0.01199  1.0000
  C   C8        1.0  0.83685  0.34442  0.51200  1.0000
  C   C9        1.0  0.37206  0.76156  0.05857  1.0000
  C   C10       1.0  0.12794  0.73843  0.55856  1.0000
  C   C11       1.0  0.62793  0.23844  0.94142  1.0000
  C   C12       1.0  0.87207  0.26156  0.44142  1.0000
  C   C13       1.0  0.30454  0.70033  0.15111  1.0000
  C   C14       1.0  0.19544  0.79966  0.65109  1.0000
  C   C15       1.0  0.69545  0.29968  0.84890  1.0000
  C   C16       1.0  0.80456  0.20033  0.34890  1.0000
  C   C17       1.0  0.45073  0.86921  0.91980  1.0000
  C   C18       1.0  0.04926  0.63078  0.41978  1.0000
  C   C19       1.0  0.54925  0.13079  0.08020  1.0000
  C   C20       1.0  0.95075  0.36922  0.58020  1.0000
  C   C21       1.0  0.47145  0.95322  0.82936  1.0000
  C   C22       1.0  0.02854  0.54676  0.32935  1.0000
  C   C23       1.0  0.52853  0.04678  0.17064  1.0000
  C   C24       1.0  0.97147  0.45323  0.67064  1.0000
  C   C25       1.0  0.39525  0.39806  0.66606  1.0000
  C   C26       1.0  0.10475  0.10193  0.16606  1.0000
  C   C27       1.0  0.60478  0.60194  0.33395  1.0000
  C   C28       1.0  0.89522  0.89807  0.83395  1.0000
  C   C29       1.0  0.31238  0.34621  0.75441  1.0000
  C   C30       1.0  0.18762  0.15379  0.25441  1.0000
  C   C31       1.0  0.68763  0.65379  0.24560  1.0000
  C   C32       1.0  0.81237  0.84621  0.74559  1.0000
  C   C33       1.0  0.28018  0.40163  0.84705  1.0000
  C   C34       1.0  0.21982  0.09837  0.34704  1.0000
  C   C35       1.0  0.71983  0.59837  0.15296  1.0000
  C   C36       1.0  0.78018  0.90164  0.65296  1.0000
  C   C37       1.0  0.32106  0.51759  0.89359  1.0000
  C   C38       1.0  0.17894  0.98241  0.39359  1.0000
  C   C39       1.0  0.67895  0.48241  0.10641  1.0000
  C   C40       1.0  0.82106  0.01760  0.60641  1.0000
  C   C41       1.0  0.23722  0.23411  0.75924  1.0000
  C   C42       1.0  0.26278  0.26588  0.25924  1.0000
  C   C43       1.0  0.76278  0.76588  0.24077  1.0000
  C   C44       1.0  0.73721  0.73412  0.74077  1.0000
  C   C45       1.0  0.23508  0.13660  0.68179  1.0000
  C   C46       1.0  0.26492  0.36340  0.18180  1.0000
  C   C47       1.0  0.76493  0.86339  0.31821  1.0000
  C   C48       1.0  0.73508  0.63661  0.81820  1.0000
  N   N1        1.0  0.54607  0.80556  0.94591  1.0000
  N   N2        1.0  0.95391  0.69443  0.44590  1.0000
  N   N3        1.0  0.45391  0.19446  0.05409  1.0000
  N   N4        1.0  0.04609  0.30555  0.55410  1.0000
  N   N5        1.0  0.16508  0.22430  0.84757  1.0000
  N   N6        1.0  0.33493  0.27570  0.34757  1.0000
  N   N7        1.0  0.83493  0.77570  0.15243  1.0000
  N   N8        1.0  0.66508  0.72430  0.65243  1.0000
  O   O1        1.0  0.20662  0.98780  0.93037  1.0000
  O   O2        1.0  0.29338  0.51220  0.43037  1.0000
  O   O3        1.0  0.79336  0.01222  0.06964  1.0000
  O   O4        1.0  0.70664  0.48779  0.56964  1.0000
  O   O5        1.0  0.11896  0.84895  0.04864  1.0000
  O   O6        1.0  0.38104  0.65105  0.54864  1.0000
  O   O7        1.0  0.88103  0.15106  0.95134  1.0000
  O   O8        1.0  0.61897  0.34895  0.45135  1.0000
  O   O9        1.0  0.38370  0.34612  0.57606  1.0000
  O   O10       1.0  0.11630  0.15387  0.07606  1.0000
  O   O11       1.0  0.61634  0.65387  0.42394  1.0000
  O   O12       1.0  0.88366  0.84614  0.92394  1.0000
  O   O13       1.0  0.46800  0.49309  0.68723  1.0000
  O   O14       1.0  0.03200  0.00691  0.18723  1.0000
  O   O15       1.0  0.53200  0.50691  0.31278  1.0000
  O   O16       1.0  0.96800  0.99310  0.81278  1.0000
  O   O17       1.0  0.49640  0.73693  0.03507  1.0000
  O   O18       1.0  0.00359  0.76306  0.53506  1.0000
  O   O19       1.0  0.50360  0.26309  0.96494  1.0000
  O   O20       1.0  0.99641  0.23692  0.46494  1.0000
  O   O21       1.0  0.19088  0.33073  0.90354  1.0000
  O   O22       1.0  0.30913  0.16926  0.40354  1.0000
  O   O23       1.0  0.80912  0.66926  0.09646  1.0000
  O   O24       1.0  0.69088  0.83073  0.59646  1.0000
