data_image0
_chemical_formula_structural       Zn4H22C36S4N6O8
_chemical_formula_sum              "Zn4 H22 C36 S4 N6 O8"
_cell_length_a       7.23235
_cell_length_b       10.6451
_cell_length_c       12.3981
_cell_angle_alpha    86.4464
_cell_angle_beta     89.1479
_cell_angle_gamma    80.7702

_space_group_name_H-M_alt    "P 1"
_space_group_IT_number       1

loop_
  _space_group_symop_operation_xyz
  'x, y, z'

loop_
  _atom_site_type_symbol
  _atom_site_label
  _atom_site_symmetry_multiplicity
  _atom_site_fract_x
  _atom_site_fract_y
  _atom_site_fract_z
  _atom_site_occupancy
  Zn  Zn1       1.0  0.07905  0.17125  0.37671  1.0000
  Zn  Zn2       1.0  0.92096  0.82875  0.62329  1.0000
  Zn  Zn3       1.0  0.43211  0.17091  0.69383  1.0000
  Zn  Zn4       1.0  0.56789  0.82909  0.30617  1.0000
  H   H1        1.0  0.96202  0.26861  0.15552  1.0000
  H   H2        1.0  0.03798  0.73140  0.84448  1.0000
  H   H3        1.0  0.46578  0.22010  0.31869  1.0000
  H   H4        1.0  0.53422  0.77989  0.68132  1.0000
  H   H5        1.0  0.09226  0.39009  0.99934  1.0000
  H   H6        1.0  0.90775  0.60991  0.00066  1.0000
  H   H7        1.0  0.60848  0.35237  0.17985  1.0000
  H   H8        1.0  0.39152  0.64763  0.82016  1.0000
  H   H9        1.0  0.33867  0.49005  0.92123  1.0000
  H   H10       1.0  0.66134  0.50996  0.07877  1.0000
  H   H11       1.0  0.69878  0.32006  0.43949  1.0000
  H   H12       1.0  0.30123  0.67994  0.56051  1.0000
  H   H13       1.0  0.58201  0.44919  0.59707  1.0000
  H   H14       1.0  0.41799  0.55081  0.40293  1.0000
  H   H15       1.0  0.81894  0.49148  0.73180  1.0000
  H   H16       1.0  0.18106  0.50853  0.26819  1.0000
  H   H17       1.0  0.42092  0.73483  0.10895  1.0000
  H   H18       1.0  0.57907  0.26516  0.89105  1.0000
  H   H19       1.0  0.11231  0.76731  0.01102  1.0000
  H   H20       1.0  0.88769  0.23268  0.98899  1.0000
  H   H21       1.0  0.83484  0.89976  0.09666  1.0000
  H   H22       1.0  0.16516  0.10024  0.90334  1.0000
  C   C1        1.0  0.10562  0.28727  0.15500  1.0000
  C   C2        1.0  0.89437  0.71273  0.84500  1.0000
  C   C3        1.0  0.38639  0.26298  0.24823  1.0000
  C   C4        1.0  0.61361  0.73702  0.75177  1.0000
  C   C5        1.0  0.17765  0.35572  0.07004  1.0000
  C   C6        1.0  0.82235  0.64429  0.92996  1.0000
  C   C7        1.0  0.46600  0.33451  0.16875  1.0000
  C   C8        1.0  0.53400  0.66549  0.83125  1.0000
  C   C9        1.0  0.35875  0.38649  0.07792  1.0000
  C   C10       1.0  0.64126  0.61351  0.92208  1.0000
  C   C11       1.0  0.42342  0.47185  0.99478  1.0000
  C   C12       1.0  0.57660  0.52816  0.00522  1.0000
  C   C13       1.0  0.79330  0.34257  0.50036  1.0000
  C   C14       1.0  0.20670  0.65743  0.49964  1.0000
  C   C15       1.0  0.73063  0.41373  0.58750  1.0000
  C   C16       1.0  0.26937  0.58627  0.41249  1.0000
  C   C17       1.0  0.86221  0.43550  0.66251  1.0000
  C   C18       1.0  0.13780  0.56450  0.33749  1.0000
  C   C19       1.0  0.05151  0.38577  0.65082  1.0000
  C   C20       1.0  0.94850  0.61424  0.34917  1.0000
  C   C21       1.0  0.10616  0.31475  0.55965  1.0000
  C   C22       1.0  0.89385  0.68526  0.44034  1.0000
  C   C23       1.0  0.18600  0.41070  0.73637  1.0000
  C   C24       1.0  0.81399  0.58930  0.26363  1.0000
  C   C25       1.0  0.29505  0.79174  0.14030  1.0000
  C   C26       1.0  0.70495  0.20825  0.85970  1.0000
  C   C27       1.0  0.12447  0.80961  0.08759  1.0000
  C   C28       1.0  0.87553  0.19039  0.91241  1.0000
  C   C29       1.0  0.97187  0.88390  0.13501  1.0000
  C   C30       1.0  0.02813  0.11609  0.86499  1.0000
  C   C31       1.0  0.99131  0.93949  0.23251  1.0000
  C   C32       1.0  0.00868  0.06051  0.76749  1.0000
  C   C33       1.0  0.16951  0.91604  0.28390  1.0000
  C   C34       1.0  0.83049  0.08396  0.71609  1.0000
  C   C35       1.0  0.82178  0.02503  0.27351  1.0000
  C   C36       1.0  0.17822  0.97497  0.72649  1.0000
  S   S1        1.0  0.22327  0.96514  0.40842  1.0000
  S   S2        1.0  0.77673  0.03486  0.59158  1.0000
  S   S3        1.0  0.33456  0.24979  0.52620  1.0000
  S   S4        1.0  0.66544  0.75021  0.47379  1.0000
  N   N1        1.0  0.31597  0.84371  0.23454  1.0000
  N   N2        1.0  0.68402  0.15628  0.76546  1.0000
  N   N3        1.0  0.97563  0.29497  0.48720  1.0000
  N   N4        1.0  0.02437  0.70503  0.51279  1.0000
  N   N5        1.0  0.20647  0.24374  0.24382  1.0000
  N   N6        1.0  0.79353  0.75626  0.75618  1.0000
  O   O1        1.0  0.83874  0.13178  0.31000  1.0000
  O   O2        1.0  0.16126  0.86821  0.69001  1.0000
  O   O3        1.0  0.66157  0.99229  0.26213  1.0000
  O   O4        1.0  0.33843  0.00770  0.73788  1.0000
  O   O5        1.0  0.30034  0.31475  0.77861  1.0000
  O   O6        1.0  0.69966  0.68525  0.22139  1.0000
  O   O7        1.0  0.17319  0.52197  0.76573  1.0000
  O   O8        1.0  0.82680  0.47803  0.23428  1.0000
