data_image0
_chemical_formula_structural       Cd4H36C44N8O20
_chemical_formula_sum              "Cd4 H36 C44 N8 O20"
_cell_length_a       8.47617
_cell_length_b       11.5342
_cell_length_c       12.5756
_cell_angle_alpha    106.431
_cell_angle_beta     90
_cell_angle_gamma    90

_space_group_name_H-M_alt    "P 1"
_space_group_IT_number       1

loop_
  _space_group_symop_operation_xyz
  'x, y, z'

loop_
  _atom_site_type_symbol
  _atom_site_label
  _atom_site_symmetry_multiplicity
  _atom_site_fract_x
  _atom_site_fract_y
  _atom_site_fract_z
  _atom_site_occupancy
  Cd  Cd1       1.0  0.27669  0.10727  0.64504  1.0000
  Cd  Cd2       1.0  0.77669  0.39273  0.85496  1.0000
  Cd  Cd3       1.0  0.72331  0.89273  0.35496  1.0000
  Cd  Cd4       1.0  0.22331  0.60727  0.14504  1.0000
  H   H1        1.0  0.51273  0.83297  0.84233  1.0000
  H   H2        1.0  0.01273  0.66703  0.65767  1.0000
  H   H3        1.0  0.48727  0.16703  0.15767  1.0000
  H   H4        1.0  0.98727  0.33297  0.34233  1.0000
  H   H5        1.0  0.73431  0.74727  0.92328  1.0000
  H   H6        1.0  0.23431  0.75273  0.57671  1.0000
  H   H7        1.0  0.26569  0.25273  0.07672  1.0000
  H   H8        1.0  0.76569  0.24727  0.42328  1.0000
  H   H9        1.0  0.05681  0.97944  0.81129  1.0000
  H   H10       1.0  0.55681  0.52056  0.68871  1.0000
  H   H11       1.0  0.94319  0.02056  0.18871  1.0000
  H   H12       1.0  0.44319  0.47944  0.31129  1.0000
  H   H13       1.0  0.83480  0.06047  0.72980  1.0000
  H   H14       1.0  0.33480  0.43954  0.77020  1.0000
  H   H15       1.0  0.16519  0.93953  0.27020  1.0000
  H   H16       1.0  0.66520  0.56047  0.22980  1.0000
  H   H17       1.0  0.91759  0.69996  0.00848  1.0000
  H   H18       1.0  0.41759  0.80004  0.49152  1.0000
  H   H19       1.0  0.08241  0.30004  0.99152  1.0000
  H   H20       1.0  0.58241  0.19996  0.50848  1.0000
  H   H21       1.0  0.40065  0.78341  0.00103  1.0000
  H   H22       1.0  0.90065  0.71659  0.49897  1.0000
  H   H23       1.0  0.59935  0.21659  0.99896  1.0000
  H   H24       1.0  0.09935  0.28341  0.50104  1.0000
  H   H25       1.0  0.24076  0.90286  0.87214  1.0000
  H   H26       1.0  0.74076  0.59714  0.62786  1.0000
  H   H27       1.0  0.75924  0.09714  0.12786  1.0000
  H   H28       1.0  0.25924  0.40286  0.37214  1.0000
  H   H29       1.0  0.16767  0.30756  0.81249  1.0000
  H   H30       1.0  0.66767  0.19244  0.68751  1.0000
  H   H31       1.0  0.83234  0.69244  0.18751  1.0000
  H   H32       1.0  0.33234  0.80756  0.31249  1.0000
  H   H33       1.0  0.33686  0.27076  0.84678  1.0000
  H   H34       1.0  0.83686  0.22923  0.65322  1.0000
  H   H35       1.0  0.66314  0.72924  0.15322  1.0000
  H   H36       1.0  0.16314  0.77076  0.34678  1.0000
  C   C1        1.0  0.52103  0.00439  0.73528  1.0000
  C   C2        1.0  0.02103  0.49561  0.76472  1.0000
  C   C3        1.0  0.47897  0.99561  0.26472  1.0000
  C   C4        1.0  0.97897  0.50439  0.23528  1.0000
  C   C5        1.0  0.65754  0.95384  0.78224  1.0000
  C   C6        1.0  0.15754  0.54616  0.71776  1.0000
  C   C7        1.0  0.34246  0.04616  0.21776  1.0000
  C   C8        1.0  0.84246  0.45384  0.28224  1.0000
  C   C9        1.0  0.63232  0.86531  0.83718  1.0000
  C   C10       1.0  0.13232  0.63469  0.66282  1.0000
  C   C11       1.0  0.36768  0.13469  0.16283  1.0000
  C   C12       1.0  0.86768  0.36532  0.33717  1.0000
  C   C13       1.0  0.75697  0.81784  0.88314  1.0000
  C   C14       1.0  0.25697  0.68216  0.61686  1.0000
  C   C15       1.0  0.24303  0.18216  0.11686  1.0000
  C   C16       1.0  0.74303  0.31784  0.38314  1.0000
  C   C17       1.0  0.91059  0.85983  0.87516  1.0000
  C   C18       1.0  0.41059  0.64017  0.62484  1.0000
  C   C19       1.0  0.08941  0.14017  0.12484  1.0000
  C   C20       1.0  0.58941  0.35983  0.37516  1.0000
  C   C21       1.0  0.93814  0.94664  0.81885  1.0000
  C   C22       1.0  0.43814  0.55336  0.68115  1.0000
  C   C23       1.0  0.06186  0.05336  0.18115  1.0000
  C   C24       1.0  0.56186  0.44664  0.31885  1.0000
  C   C25       1.0  0.81207  0.99257  0.77270  1.0000
  C   C26       1.0  0.31207  0.50743  0.72730  1.0000
  C   C27       1.0  0.18793  0.00743  0.22730  1.0000
  C   C28       1.0  0.68792  0.49257  0.27270  1.0000
  C   C29       1.0  0.02746  0.73746  0.98900  1.0000
  C   C30       1.0  0.52746  0.76255  0.51100  1.0000
  C   C31       1.0  0.97254  0.26254  0.01100  1.0000
  C   C32       1.0  0.47254  0.23745  0.48900  1.0000
  C   C33       1.0  0.27591  0.78396  0.98273  1.0000
  C   C34       1.0  0.77591  0.71604  0.51727  1.0000
  C   C35       1.0  0.72409  0.21604  0.01727  1.0000
  C   C36       1.0  0.22409  0.28396  0.48273  1.0000
  C   C37       1.0  0.19717  0.84472  0.92001  1.0000
  C   C38       1.0  0.69717  0.65528  0.57999  1.0000
  C   C39       1.0  0.80283  0.15527  0.07999  1.0000
  C   C40       1.0  0.30283  0.34472  0.42001  1.0000
  C   C41       1.0  0.94940  0.05868  0.52094  1.0000
  C   C42       1.0  0.44940  0.44132  0.97906  1.0000
  C   C43       1.0  0.05060  0.94132  0.47906  1.0000
  C   C44       1.0  0.55060  0.55868  0.02094  1.0000
  N   N1        1.0  0.16917  0.71753  0.02507  1.0000
  N   N2        1.0  0.66917  0.78247  0.47493  1.0000
  N   N3        1.0  0.83083  0.28247  0.97493  1.0000
  N   N4        1.0  0.33083  0.21753  0.52507  1.0000
  N   N5        1.0  0.03864  0.81490  0.92455  1.0000
  N   N6        1.0  0.53864  0.68511  0.57545  1.0000
  N   N7        1.0  0.96136  0.18511  0.07545  1.0000
  N   N8        1.0  0.46136  0.31489  0.42455  1.0000
  O   O1        1.0  0.38192  0.97071  0.74890  1.0000
  O   O2        1.0  0.88192  0.52929  0.75110  1.0000
  O   O3        1.0  0.61808  0.02929  0.25110  1.0000
  O   O4        1.0  0.11808  0.47071  0.24890  1.0000
  O   O5        1.0  0.54697  0.08160  0.68014  1.0000
  O   O6        1.0  0.04697  0.41840  0.81986  1.0000
  O   O7        1.0  0.45303  0.91840  0.31986  1.0000
  O   O8        1.0  0.95303  0.58160  0.18014  1.0000
  O   O9        1.0  0.23430  0.23584  0.81392  1.0000
  O   O10       1.0  0.73430  0.26416  0.68608  1.0000
  O   O11       1.0  0.76570  0.76416  0.18608  1.0000
  O   O12       1.0  0.26570  0.73584  0.31392  1.0000
  O   O13       1.0  0.00162  0.14100  0.60349  1.0000
  O   O14       1.0  0.50162  0.35900  0.89651  1.0000
  O   O15       1.0  0.99838  0.85900  0.39652  1.0000
  O   O16       1.0  0.49838  0.64100  0.10348  1.0000
  O   O17       1.0  0.82155  0.06601  0.47153  1.0000
  O   O18       1.0  0.32155  0.43399  0.02847  1.0000
  O   O19       1.0  0.17845  0.93399  0.52847  1.0000
  O   O20       1.0  0.67845  0.56601  0.97153  1.0000
