data_image0
_chemical_formula_structural       FeH14C20N10Cl2
_chemical_formula_sum              "Fe1 H14 C20 N10 Cl2"
_cell_length_a       7.46795
_cell_length_b       7.99248
_cell_length_c       9.14477
_cell_angle_alpha    112.935
_cell_angle_beta     96.6151
_cell_angle_gamma    103.876

_space_group_name_H-M_alt    "P 1"
_space_group_IT_number       1

loop_
  _space_group_symop_operation_xyz
  'x, y, z'

loop_
  _atom_site_type_symbol
  _atom_site_label
  _atom_site_symmetry_multiplicity
  _atom_site_fract_x
  _atom_site_fract_y
  _atom_site_fract_z
  _atom_site_occupancy
  Fe  Fe1       1.0  0.00001  0.50003  0.50000  1.0000
  H   H1        1.0  0.59983  0.71748  0.33244  1.0000
  H   H2        1.0  0.40014  0.28256  0.66752  1.0000
  H   H3        1.0  0.40505  0.57190  0.48135  1.0000
  H   H4        1.0  0.59495  0.42810  0.51860  1.0000
  H   H5        1.0  0.98967  0.80717  0.39486  1.0000
  H   H6        1.0  0.01035  0.19290  0.60522  1.0000
  H   H7        1.0  0.06610  0.45320  0.12597  1.0000
  H   H8        1.0  0.93406  0.54687  0.87400  1.0000
  H   H9        1.0  0.20474  0.34162  0.88270  1.0000
  H   H10       1.0  0.79536  0.65830  0.11726  1.0000
  H   H11       1.0  0.33364  0.06284  0.82409  1.0000
  H   H12       1.0  0.66627  0.93695  0.17586  1.0000
  H   H13       1.0  0.32694  0.90789  0.01529  1.0000
  H   H14       1.0  0.67293  0.09200  0.98475  1.0000
  C   C1        1.0  0.46626  0.74628  0.35016  1.0000
  C   C2        1.0  0.53372  0.25374  0.64983  1.0000
  C   C3        1.0  0.35672  0.65907  0.42960  1.0000
  C   C4        1.0  0.64328  0.34094  0.57038  1.0000
  C   C5        1.0  0.12864  0.79193  0.38506  1.0000
  C   C6        1.0  0.87136  0.20813  0.61498  1.0000
  C   C7        1.0  0.24990  0.89436  0.32201  1.0000
  C   C8        1.0  0.75008  0.10569  0.67802  1.0000
  C   C9        1.0  0.19503  0.04633  0.29677  1.0000
  C   C10       1.0  0.80493  0.95371  0.70326  1.0000
  C   C11       1.0  0.13617  0.25450  0.20927  1.0000
  C   C12       1.0  0.86385  0.74553  0.79072  1.0000
  C   C13       1.0  0.13005  0.33928  0.10055  1.0000
  C   C14       1.0  0.87005  0.66073  0.89943  1.0000
  C   C15       1.0  0.20347  0.27282  0.96506  1.0000
  C   C16       1.0  0.79659  0.72709  0.03490  1.0000
  C   C17       1.0  0.27674  0.11666  0.93157  1.0000
  C   C18       1.0  0.72323  0.88321  0.06841  1.0000
  C   C19       1.0  0.27848  0.03114  0.03492  1.0000
  C   C20       1.0  0.72146  0.96878  0.96510  1.0000
  N   N1        1.0  0.41593  0.86515  0.29509  1.0000
  N   N2        1.0  0.58405  0.13490  0.70493  1.0000
  N   N3        1.0  0.12075  0.15930  0.40338  1.0000
  N   N4        1.0  0.87923  0.84076  0.59665  1.0000
  N   N5        1.0  0.08380  0.28873  0.35331  1.0000
  N   N6        1.0  0.91620  0.71133  0.64669  1.0000
  N   N7        1.0  0.21160  0.10251  0.17304  1.0000
  N   N8        1.0  0.78839  0.89751  0.82699  1.0000
  N   N9        1.0  0.18023  0.67192  0.43955  1.0000
  N   N10       1.0  0.81977  0.32811  0.56047  1.0000
  Cl  Cl1       1.0  0.23772  0.56244  0.71872  1.0000
  Cl  Cl2       1.0  0.76230  0.43760  0.28129  1.0000
