data_image0
_chemical_formula_structural       Ca2P4H32C16O18
_chemical_formula_sum              "Ca2 P4 H32 C16 O18"
_cell_length_a       7.06268
_cell_length_b       9.06664
_cell_length_c       11.8098
_cell_angle_alpha    103.673
_cell_angle_beta     107.42
_cell_angle_gamma    90.0017

_space_group_name_H-M_alt    "P 1"
_space_group_IT_number       1

loop_
  _space_group_symop_operation_xyz
  'x, y, z'

loop_
  _atom_site_type_symbol
  _atom_site_label
  _atom_site_symmetry_multiplicity
  _atom_site_fract_x
  _atom_site_fract_y
  _atom_site_fract_z
  _atom_site_occupancy
  Ca  Ca1       1.0  0.21693  0.24997  0.99998  1.0000
  Ca  Ca2       1.0  0.78307  0.75003  0.00002  1.0000
  P   P1        1.0  0.48497  0.40473  0.81201  1.0000
  P   P2        1.0  0.67338  0.09532  0.18788  1.0000
  P   P3        1.0  0.51503  0.59527  0.18799  1.0000
  P   P4        1.0  0.32662  0.90469  0.81212  1.0000
  H   H1        1.0  0.61767  0.23467  0.67639  1.0000
  H   H2        1.0  0.94210  0.26527  0.32353  1.0000
  H   H3        1.0  0.38233  0.76532  0.32361  1.0000
  H   H4        1.0  0.05790  0.73473  0.67647  1.0000
  H   H5        1.0  0.35366  0.22291  0.62154  1.0000
  H   H6        1.0  0.73284  0.27722  0.37825  1.0000
  H   H7        1.0  0.64634  0.77708  0.37846  1.0000
  H   H8        1.0  0.26716  0.72278  0.62175  1.0000
  H   H9        1.0  0.17767  0.38396  0.49309  1.0000
  H   H10       1.0  0.68478  0.11642  0.50666  1.0000
  H   H11       1.0  0.82233  0.61604  0.50691  1.0000
  H   H12       1.0  0.31522  0.88358  0.49334  1.0000
  H   H13       1.0  0.18493  0.55279  0.35649  1.0000
  H   H14       1.0  0.82816  0.94773  0.64347  1.0000
  H   H15       1.0  0.81507  0.44721  0.64351  1.0000
  H   H16       1.0  0.17184  0.05227  0.35653  1.0000
  H   H17       1.0  0.36283  0.63257  0.82550  1.0000
  H   H18       1.0  0.53777  0.86750  0.17458  1.0000
  H   H19       1.0  0.63717  0.36743  0.17450  1.0000
  H   H20       1.0  0.46223  0.13250  0.82542  1.0000
  H   H21       1.0  0.78085  0.32297  0.97420  1.0000
  H   H22       1.0  0.80672  0.17699  0.02574  1.0000
  H   H23       1.0  0.21915  0.67703  0.02580  1.0000
  H   H24       1.0  0.19328  0.82301  0.97426  1.0000
  H   H25       1.0  0.28288  0.06249  0.17718  1.0000
  H   H26       1.0  0.10544  0.43735  0.82266  1.0000
  H   H27       1.0  0.71712  0.93751  0.82282  1.0000
  H   H28       1.0  0.89456  0.56265  0.17734  1.0000
  H   H29       1.0  0.04848  0.07702  0.14514  1.0000
  H   H30       1.0  0.90315  0.42279  0.85468  1.0000
  H   H31       1.0  0.95152  0.92298  0.85486  1.0000
  H   H32       1.0  0.09685  0.57721  0.14532  1.0000
  C   C1        1.0  0.48745  0.30249  0.66066  1.0000
  C   C2        1.0  0.82745  0.19757  0.33919  1.0000
  C   C3        1.0  0.51254  0.69751  0.33934  1.0000
  C   C4        1.0  0.17256  0.80243  0.66081  1.0000
  C   C5        1.0  0.49553  0.40326  0.57748  1.0000
  C   C6        1.0  0.91833  0.09673  0.42241  1.0000
  C   C7        1.0  0.50447  0.59673  0.42252  1.0000
  C   C8        1.0  0.08167  0.90328  0.57759  1.0000
  C   C9        1.0  0.31954  0.43468  0.49595  1.0000
  C   C10       1.0  0.82371  0.06554  0.50389  1.0000
  C   C11       1.0  0.68046  0.56532  0.50405  1.0000
  C   C12       1.0  0.17629  0.93446  0.49611  1.0000
  C   C13       1.0  0.32344  0.52966  0.41933  1.0000
  C   C14       1.0  0.90398  0.97061  0.58064  1.0000
  C   C15       1.0  0.67656  0.47034  0.58067  1.0000
  C   C16       1.0  0.09602  0.02939  0.41936  1.0000
  O   O1        1.0  0.43059  0.28719  0.87399  1.0000
  O   O2        1.0  0.55700  0.21283  0.12586  1.0000
  O   O3        1.0  0.56941  0.71281  0.12602  1.0000
  O   O4        1.0  0.44301  0.78717  0.87414  1.0000
  O   O5        1.0  0.31148  0.51605  0.79298  1.0000
  O   O6        1.0  0.51895  0.98403  0.20696  1.0000
  O   O7        1.0  0.68852  0.48395  0.20702  1.0000
  O   O8        1.0  0.48105  0.01597  0.79303  1.0000
  O   O9        1.0  0.68474  0.49546  0.88331  1.0000
  O   O10       1.0  0.80182  0.00453  0.11666  1.0000
  O   O11       1.0  0.31526  0.50454  0.11668  1.0000
  O   O12       1.0  0.19818  0.99547  0.88334  1.0000
  O   O13       1.0  0.87640  0.25002  0.99999  1.0000
  O   O14       1.0  0.12360  0.74998  0.00001  1.0000
  O   O15       1.0  0.17672  0.13089  0.15569  1.0000
  O   O16       1.0  0.02076  0.36888  0.84409  1.0000
  O   O17       1.0  0.82328  0.86911  0.84431  1.0000
  O   O18       1.0  0.97923  0.63111  0.15591  1.0000
