data_image0
_chemical_formula_structural       Ni4H24C26S8N16O2
_chemical_formula_sum              "Ni4 H24 C26 S8 N16 O2"
_cell_length_a       8.6626
_cell_length_b       9.10822
_cell_length_c       13.8637
_cell_angle_alpha    89.3677
_cell_angle_beta     85.3031
_cell_angle_gamma    64.6296

_space_group_name_H-M_alt    "P 1"
_space_group_IT_number       1

loop_
  _space_group_symop_operation_xyz
  'x, y, z'

loop_
  _atom_site_type_symbol
  _atom_site_label
  _atom_site_symmetry_multiplicity
  _atom_site_fract_x
  _atom_site_fract_y
  _atom_site_fract_z
  _atom_site_occupancy
  Ni  Ni1       1.0  0.37120  0.60298  0.32230  1.0000
  Ni  Ni2       1.0  0.63012  0.39726  0.67682  1.0000
  Ni  Ni3       1.0  0.09766  0.84641  0.17959  1.0000
  Ni  Ni4       1.0  0.89907  0.15542  0.82195  1.0000
  H   H1        1.0  0.35052  0.80669  0.49785  1.0000
  H   H2        1.0  0.64747  0.19254  0.50050  1.0000
  H   H3        1.0  0.20671  0.10310  0.54618  1.0000
  H   H4        1.0  0.79142  0.89601  0.45260  1.0000
  H   H5        1.0  0.99352  0.29479  0.43450  1.0000
  H   H6        1.0  0.00516  0.70481  0.56406  1.0000
  H   H7        1.0  0.94578  0.16725  0.28422  1.0000
  H   H8        1.0  0.05320  0.83308  0.71412  1.0000
  H   H9        1.0  0.31414  0.91376  0.02081  1.0000
  H   H10       1.0  0.68863  0.08768  0.98094  1.0000
  H   H11       1.0  0.63259  0.82672  0.97346  1.0000
  H   H12       1.0  0.37096  0.17314  0.02785  1.0000
  H   H13       1.0  0.84093  0.64351  0.08814  1.0000
  H   H14       1.0  0.16178  0.35392  0.91284  1.0000
  H   H15       1.0  0.71465  0.56144  0.23915  1.0000
  H   H16       1.0  0.28791  0.43452  0.76090  1.0000
  H   H17       1.0  0.50711  0.27272  0.29662  1.0000
  H   H18       1.0  0.49154  0.72712  0.70348  1.0000
  H   H19       1.0  0.54543  0.20201  0.14987  1.0000
  H   H20       1.0  0.45583  0.79615  0.85032  1.0000
  H   H21       1.0  0.66247  0.32153  0.12557  1.0000
  H   H22       1.0  0.33823  0.67701  0.87398  1.0000
  H   H23       1.0  0.43383  0.41336  0.12584  1.0000
  H   H24       1.0  0.56694  0.58494  0.87500  1.0000
  C   C1        1.0  0.25828  0.89603  0.45390  1.0000
  C   C2        1.0  0.73989  0.10353  0.54450  1.0000
  C   C3        1.0  0.17666  0.06096  0.48009  1.0000
  C   C4        1.0  0.82151  0.93846  0.51855  1.0000
  C   C5        1.0  0.06174  0.16463  0.41894  1.0000
  C   C6        1.0  0.93687  0.83498  0.57960  1.0000
  C   C7        1.0  0.03533  0.09619  0.33584  1.0000
  C   C8        1.0  0.96362  0.90392  0.66239  1.0000
  C   C9        1.0  0.41407  0.83496  0.06504  1.0000
  C   C10       1.0  0.58904  0.16531  0.93623  1.0000
  C   C11       1.0  0.58840  0.78757  0.04042  1.0000
  C   C12       1.0  0.41478  0.21188  0.96064  1.0000
  C   C13       1.0  0.70293  0.68586  0.10256  1.0000
  C   C14       1.0  0.29977  0.31212  0.89822  1.0000
  C   C15       1.0  0.63487  0.63978  0.18573  1.0000
  C   C16       1.0  0.36779  0.35730  0.81469  1.0000
  C   C17       1.0  0.02086  0.84577  0.94692  1.0000
  C   C18       1.0  0.97606  0.15987  0.05469  1.0000
  C   C19       1.0  0.71745  0.95299  0.26372  1.0000
  C   C20       1.0  0.27393  0.04936  0.73952  1.0000
  C   C21       1.0  0.13831  0.51460  0.22261  1.0000
  C   C22       1.0  0.86488  0.48271  0.77716  1.0000
  C   C23       1.0  0.35402  0.45343  0.53304  1.0000
  C   C24       1.0  0.64787  0.54929  0.46466  1.0000
  C   C25       1.0  0.54371  0.32196  0.15981  1.0000
  C   C26       1.0  0.45770  0.67612  0.84043  1.0000
  S   S1        1.0  0.10062  0.70445  0.02551  1.0000
  S   S2        1.0  0.89535  0.30361  0.97788  1.0000
  S   S3        1.0  0.52916  0.02582  0.32361  1.0000
  S   S4        1.0  0.46118  0.97802  0.67869  1.0000
  S   S5        1.0  0.09390  0.36930  0.19434  1.0000
  S   S6        1.0  0.91162  0.62630  0.80587  1.0000
  S   S7        1.0  0.24194  0.48518  0.43954  1.0000
  S   S8        1.0  0.76027  0.51752  0.55796  1.0000
  N   N1        1.0  0.23088  0.83849  0.37171  1.0000
  N   N2        1.0  0.76778  0.16142  0.62647  1.0000
  N   N3        1.0  0.12102  0.93776  0.31334  1.0000
  N   N4        1.0  0.87814  0.06230  0.68465  1.0000
  N   N5        1.0  0.35665  0.78345  0.14494  1.0000
  N   N6        1.0  0.64621  0.21623  0.85584  1.0000
  N   N7        1.0  0.46625  0.68715  0.20446  1.0000
  N   N8        1.0  0.53622  0.31083  0.79580  1.0000
  N   N9        1.0  0.96236  0.94411  0.88729  1.0000
  N   N10       1.0  0.03500  0.05664  0.11155  1.0000
  N   N11       1.0  0.85337  0.90037  0.21904  1.0000
  N   N12       1.0  0.13910  0.10193  0.78544  1.0000
  N   N13       1.0  0.17743  0.62267  0.24193  1.0000
  N   N14       1.0  0.82367  0.37612  0.75759  1.0000
  N   N15       1.0  0.43540  0.43077  0.60069  1.0000
  N   N16       1.0  0.56768  0.57283  0.39636  1.0000
  O   O1        1.0  0.53123  0.35780  0.26170  1.0000
  O   O2        1.0  0.47243  0.63948  0.73842  1.0000
