data_image0
_chemical_formula_structural       Cu4H40C20N8Cl8O4
_chemical_formula_sum              "Cu4 H40 C20 N8 Cl8 O4"
_cell_length_a       6.51111
_cell_length_b       8.55019
_cell_length_c       16.5775
_cell_angle_alpha    89.9939
_cell_angle_beta     90.0258
_cell_angle_gamma    112.737

_space_group_name_H-M_alt    "P 1"
_space_group_IT_number       1

loop_
  _space_group_symop_operation_xyz
  'x, y, z'

loop_
  _atom_site_type_symbol
  _atom_site_label
  _atom_site_symmetry_multiplicity
  _atom_site_fract_x
  _atom_site_fract_y
  _atom_site_fract_z
  _atom_site_occupancy
  Cu  Cu1       1.0  1.00000  0.50000  0.50000  1.0000
  Cu  Cu2       1.0  0.00000  1.00000  1.00000  1.0000
  Cu  Cu3       1.0  0.50000  0.50000  0.50000  1.0000
  Cu  Cu4       1.0  0.50000  1.00000  1.00000  1.0000
  H   H1        1.0  0.84619  0.97548  0.57684  1.0000
  H   H2        1.0  0.84669  0.47556  0.92319  1.0000
  H   H3        1.0  0.15380  0.02452  0.42316  1.0000
  H   H4        1.0  0.15330  0.52444  0.07681  1.0000
  H   H5        1.0  0.98929  0.20058  0.58782  1.0000
  H   H6        1.0  0.98958  0.70066  0.91225  1.0000
  H   H7        1.0  0.01071  0.79942  0.41218  1.0000
  H   H8        1.0  0.01041  0.29933  0.08775  1.0000
  H   H9        1.0  0.29520  0.00437  0.59712  1.0000
  H   H10       1.0  0.29546  0.50398  0.90294  1.0000
  H   H11       1.0  0.70479  0.99563  0.40288  1.0000
  H   H12       1.0  0.70453  0.49602  0.09706  1.0000
  H   H13       1.0  0.42728  0.85823  0.58249  1.0000
  H   H14       1.0  0.42796  0.35806  0.91752  1.0000
  H   H15       1.0  0.57272  0.14178  0.41751  1.0000
  H   H16       1.0  0.57204  0.64194  0.08248  1.0000
  H   H17       1.0  0.88146  0.17988  0.73260  1.0000
  H   H18       1.0  0.88152  0.68001  0.76746  1.0000
  H   H19       1.0  0.11855  0.82012  0.26740  1.0000
  H   H20       1.0  0.11848  0.32000  0.23254  1.0000
  H   H21       1.0  0.01146  0.03656  0.71389  1.0000
  H   H22       1.0  0.01169  0.53678  0.78615  1.0000
  H   H23       1.0  0.98855  0.96344  0.28611  1.0000
  H   H24       1.0  0.98831  0.46323  0.21385  1.0000
  H   H25       1.0  0.29154  0.82606  0.72021  1.0000
  H   H26       1.0  0.29177  0.32590  0.77977  1.0000
  H   H27       1.0  0.70846  0.17394  0.27979  1.0000
  H   H28       1.0  0.70824  0.67410  0.22022  1.0000
  H   H29       1.0  0.42533  0.04570  0.73974  1.0000
  H   H30       1.0  0.42529  0.54558  0.76031  1.0000
  H   H31       1.0  0.57467  0.95430  0.26026  1.0000
  H   H32       1.0  0.57471  0.45442  0.23968  1.0000
  H   H33       1.0  0.65900  0.90510  0.79612  1.0000
  H   H34       1.0  0.65914  0.40529  0.70386  1.0000
  H   H35       1.0  0.34100  0.09490  0.20388  1.0000
  H   H36       1.0  0.34086  0.59472  0.29614  1.0000
  H   H37       1.0  0.64942  0.79645  0.70366  1.0000
  H   H38       1.0  0.64987  0.29653  0.79629  1.0000
  H   H39       1.0  0.35058  0.20355  0.29634  1.0000
  H   H40       1.0  0.35013  0.70347  0.20371  1.0000
  C   C1        1.0  0.85073  0.08852  0.60995  1.0000
  C   C2        1.0  0.85105  0.58859  0.89009  1.0000
  C   C3        1.0  0.14928  0.91149  0.39005  1.0000
  C   C4        1.0  0.14895  0.41141  0.10991  1.0000
  C   C5        1.0  0.43508  0.97188  0.61538  1.0000
  C   C6        1.0  0.43543  0.47166  0.88465  1.0000
  C   C7        1.0  0.56492  0.02812  0.38462  1.0000
  C   C8        1.0  0.56457  0.52833  0.11535  1.0000
  C   C9        1.0  0.86166  0.06190  0.70083  1.0000
  C   C10       1.0  0.86186  0.56202  0.79920  1.0000
  C   C11       1.0  0.13835  0.93810  0.29917  1.0000
  C   C12       1.0  0.13814  0.43798  0.20080  1.0000
  C   C13       1.0  0.43989  0.93974  0.70609  1.0000
  C   C14       1.0  0.44005  0.43962  0.79394  1.0000
  C   C15       1.0  0.56011  0.06026  0.29391  1.0000
  C   C16       1.0  0.55995  0.56037  0.20606  1.0000
  C   C17       1.0  0.65259  0.91553  0.73024  1.0000
  C   C18       1.0  0.65282  0.41560  0.76975  1.0000
  C   C19       1.0  0.34740  0.08447  0.26976  1.0000
  C   C20       1.0  0.34718  0.58440  0.23024  1.0000
  N   N1        1.0  0.65811  0.25378  0.56202  1.0000
  N   N2        1.0  0.65816  0.75369  0.93798  1.0000
  N   N3        1.0  0.34190  0.74622  0.43798  1.0000
  N   N4        1.0  0.34183  0.24631  0.06202  1.0000
  N   N5        1.0  0.64335  0.11020  0.59150  1.0000
  N   N6        1.0  0.64363  0.61011  0.90854  1.0000
  N   N7        1.0  0.35665  0.88981  0.40850  1.0000
  N   N8        1.0  0.35636  0.38988  0.09146  1.0000
  Cl  Cl1       1.0  0.73475  0.48076  0.40145  1.0000
  Cl  Cl2       1.0  0.73500  0.98077  0.09837  1.0000
  Cl  Cl3       1.0  0.26524  0.51924  0.59855  1.0000
  Cl  Cl4       1.0  0.26500  0.01923  0.90162  1.0000
  Cl  Cl5       1.0  0.88399  0.67246  0.57644  1.0000
  Cl  Cl6       1.0  0.88393  0.17248  0.92346  1.0000
  Cl  Cl7       1.0  0.11601  0.32755  0.42356  1.0000
  Cl  Cl8       1.0  0.11606  0.82751  0.07654  1.0000
  O   O1        1.0  0.47399  0.27066  0.55029  1.0000
  O   O2        1.0  0.47400  0.77040  0.94964  1.0000
  O   O3        1.0  0.52601  0.72935  0.44971  1.0000
  O   O4        1.0  0.52600  0.22960  0.05036  1.0000
