data_image0
_chemical_formula_structural       Mn2H40C52N4Cl4O12
_chemical_formula_sum              "Mn2 H40 C52 N4 Cl4 O12"
_cell_length_a       9.63103
_cell_length_b       11.6379
_cell_length_c       12.6792
_cell_angle_alpha    117.338
_cell_angle_beta     98.0866
_cell_angle_gamma    90.0012

_space_group_name_H-M_alt    "P 1"
_space_group_IT_number       1

loop_
  _space_group_symop_operation_xyz
  'x, y, z'

loop_
  _atom_site_type_symbol
  _atom_site_label
  _atom_site_symmetry_multiplicity
  _atom_site_fract_x
  _atom_site_fract_y
  _atom_site_fract_z
  _atom_site_occupancy
  Mn  Mn1       1.0  0.24991  0.97129  0.99994  1.0000
  Mn  Mn2       1.0  0.75009  0.02871  0.00004  1.0000
  H   H1        1.0  0.35748  0.52114  0.24777  1.0000
  H   H2        1.0  0.14220  0.27392  0.75249  1.0000
  H   H3        1.0  0.64253  0.47885  0.75223  1.0000
  H   H4        1.0  0.85780  0.72608  0.24750  1.0000
  H   H5        1.0  0.38409  0.31835  0.26135  1.0000
  H   H6        1.0  0.11585  0.05755  0.73899  1.0000
  H   H7        1.0  0.61592  0.68164  0.73864  1.0000
  H   H8        1.0  0.88416  0.94246  0.26101  1.0000
  H   H9        1.0  0.78427  0.47438  0.49084  1.0000
  H   H10       1.0  0.71584  0.98340  0.50924  1.0000
  H   H11       1.0  0.21574  0.52561  0.50916  1.0000
  H   H12       1.0  0.28416  0.01661  0.49077  1.0000
  H   H13       1.0  0.75780  0.68054  0.47395  1.0000
  H   H14       1.0  0.74202  0.20647  0.52605  1.0000
  H   H15       1.0  0.24220  0.31946  0.52605  1.0000
  H   H16       1.0  0.25798  0.79353  0.47396  1.0000
  H   H17       1.0  0.40401  0.18530  0.32812  1.0000
  H   H18       1.0  0.09628  0.85763  0.67223  1.0000
  H   H19       1.0  0.59598  0.81471  0.67188  1.0000
  H   H20       1.0  0.90372  0.14237  0.32777  1.0000
  H   H21       1.0  0.53828  0.09847  0.36230  1.0000
  H   H22       1.0  0.96218  0.73637  0.63778  1.0000
  H   H23       1.0  0.46171  0.90153  0.63770  1.0000
  H   H24       1.0  0.03782  0.26364  0.36221  1.0000
  H   H25       1.0  0.22196  0.85697  0.17805  1.0000
  H   H26       1.0  0.27823  0.67864  0.82165  1.0000
  H   H27       1.0  0.77804  0.14303  0.82194  1.0000
  H   H28       1.0  0.72177  0.32136  0.17834  1.0000
  H   H29       1.0  0.21422  0.64585  0.18470  1.0000
  H   H30       1.0  0.28583  0.46087  0.81498  1.0000
  H   H31       1.0  0.78578  0.35416  0.81531  1.0000
  H   H32       1.0  0.71417  0.53913  0.18502  1.0000
  H   H33       1.0  0.05641  0.42705  0.07449  1.0000
  H   H34       1.0  0.44360  0.35236  0.92557  1.0000
  H   H35       1.0  0.94359  0.57295  0.92552  1.0000
  H   H36       1.0  0.55640  0.64764  0.07444  1.0000
  H   H37       1.0  0.05948  0.20764  0.06379  1.0000
  H   H38       1.0  0.44053  0.14387  0.93665  1.0000
  H   H39       1.0  0.94052  0.79236  0.93621  1.0000
  H   H40       1.0  0.55946  0.85613  0.06335  1.0000
  C   C1        1.0  0.55577  0.61253  0.36047  1.0000
  C   C2        1.0  0.94402  0.25223  0.63958  1.0000
  C   C3        1.0  0.44424  0.38747  0.63954  1.0000
  C   C4        1.0  0.05598  0.74778  0.36043  1.0000
  C   C5        1.0  0.45144  0.51128  0.30066  1.0000
  C   C6        1.0  0.04836  0.21100  0.69952  1.0000
  C   C7        1.0  0.54857  0.48872  0.69934  1.0000
  C   C8        1.0  0.95164  0.78901  0.30048  1.0000
  C   C9        1.0  0.46680  0.39635  0.30898  1.0000
  C   C10       1.0  0.03316  0.08774  0.69125  1.0000
  C   C11       1.0  0.53320  0.60365  0.69102  1.0000
  C   C12       1.0  0.96685  0.91227  0.30876  1.0000
  C   C13       1.0  0.58649  0.38402  0.37890  1.0000
  C   C14       1.0  0.91361  0.00528  0.62119  1.0000
  C   C15       1.0  0.41351  0.61597  0.62110  1.0000
  C   C16       1.0  0.08639  0.99473  0.37881  1.0000
  C   C17       1.0  0.69153  0.48635  0.43774  1.0000
  C   C18       1.0  0.80851  0.04861  0.56232  1.0000
  C   C19       1.0  0.30848  0.51364  0.56226  1.0000
  C   C20       1.0  0.19148  0.95140  0.43769  1.0000
  C   C21       1.0  0.67672  0.60069  0.42880  1.0000
  C   C22       1.0  0.82315  0.17188  0.57122  1.0000
  C   C23       1.0  0.32328  0.39931  0.57120  1.0000
  C   C24       1.0  0.17684  0.82812  0.42879  1.0000
  C   C25       1.0  0.51513  0.16494  0.32343  1.0000
  C   C26       1.0  0.98514  0.84177  0.67674  1.0000
  C   C27       1.0  0.48486  0.83506  0.67658  1.0000
  C   C28       1.0  0.01486  0.15824  0.32326  1.0000
  C   C29       1.0  0.53860  0.09436  0.19188  1.0000
  C   C30       1.0  0.96144  0.90269  0.80819  1.0000
  C   C31       1.0  0.46140  0.90564  0.80812  1.0000
  C   C32       1.0  0.03854  0.09732  0.19181  1.0000
  C   C33       1.0  0.23356  0.76612  0.09935  1.0000
  C   C34       1.0  0.26657  0.66655  0.90035  1.0000
  C   C35       1.0  0.76644  0.23388  0.90065  1.0000
  C   C36       1.0  0.73343  0.33344  0.09965  1.0000
  C   C37       1.0  0.22998  0.64820  0.10237  1.0000
  C   C38       1.0  0.27006  0.54559  0.89731  1.0000
  C   C39       1.0  0.77002  0.35180  0.89763  1.0000
  C   C40       1.0  0.72994  0.45442  0.10270  1.0000
  C   C41       1.0  0.25000  0.53483  0.99984  1.0000
  C   C42       1.0  0.75001  0.46517  0.00016  1.0000
  C   C43       1.0  0.24998  0.40818  0.99995  1.0000
  C   C44       1.0  0.75002  0.59182  0.00005  1.0000
  C   C45       1.0  0.14283  0.36683  0.04163  1.0000
  C   C46       1.0  0.35716  0.32511  0.95847  1.0000
  C   C47       1.0  0.85716  0.63317  0.95837  1.0000
  C   C48       1.0  0.64284  0.67489  0.04154  1.0000
  C   C49       1.0  0.14489  0.24537  0.03759  1.0000
  C   C50       1.0  0.35512  0.20783  0.96276  1.0000
  C   C51       1.0  0.85511  0.75463  0.96241  1.0000
  C   C52       1.0  0.64488  0.79217  0.03724  1.0000
  N   N1        1.0  0.25008  0.77534  0.99985  1.0000
  N   N2        1.0  0.74992  0.22465  0.00014  1.0000
  N   N3        1.0  0.25000  0.16694  0.00022  1.0000
  N   N4        1.0  0.75000  0.83306  0.99978  1.0000
  Cl  Cl1       1.0  0.53632  0.75498  0.34783  1.0000
  Cl  Cl2       1.0  0.96336  0.40732  0.65218  1.0000
  Cl  Cl3       1.0  0.46369  0.24502  0.65218  1.0000
  Cl  Cl4       1.0  0.03664  0.59269  0.34782  1.0000
  O   O1        1.0  0.60862  0.27752  0.39642  1.0000
  O   O2        1.0  0.89165  0.88118  0.60359  1.0000
  O   O3        1.0  0.39137  0.72247  0.60355  1.0000
  O   O4        1.0  0.10837  0.11884  0.39640  1.0000
  O   O5        1.0  0.44037  0.01134  0.11961  1.0000
  O   O6        1.0  0.05936  0.89163  0.88046  1.0000
  O   O7        1.0  0.55965  0.98862  0.88039  1.0000
  O   O8        1.0  0.94063  0.10838  0.11954  1.0000
  O   O9        1.0  0.65474  0.11692  0.16692  1.0000
  O   O10       1.0  0.84540  0.95053  0.83309  1.0000
  O   O11       1.0  0.34523  0.88311  0.83308  1.0000
  O   O12       1.0  0.15459  0.04948  0.16689  1.0000
