data_image0
_chemical_formula_structural       Zn6H28C42N24O8
_chemical_formula_sum              "Zn6 H28 C42 N24 O8"
_cell_length_a       9.78611
_cell_length_b       11.3848
_cell_length_c       12.2892
_cell_angle_alpha    108.241
_cell_angle_beta     103.701
_cell_angle_gamma    105.383

_space_group_name_H-M_alt    "P 1"
_space_group_IT_number       1

loop_
  _space_group_symop_operation_xyz
  'x, y, z'

loop_
  _atom_site_type_symbol
  _atom_site_label
  _atom_site_symmetry_multiplicity
  _atom_site_fract_x
  _atom_site_fract_y
  _atom_site_fract_z
  _atom_site_occupancy
  Zn  Zn1       1.0  0.20833  0.85120  0.07367  1.0000
  Zn  Zn2       1.0  0.79167  0.14879  0.92633  1.0000
  Zn  Zn3       1.0  0.84931  0.72840  0.10719  1.0000
  Zn  Zn4       1.0  0.15070  0.27160  0.89281  1.0000
  Zn  Zn5       1.0  0.56962  0.83009  0.19990  1.0000
  Zn  Zn6       1.0  0.43038  0.16992  0.80010  1.0000
  H   H1        1.0  0.73039  0.65009  0.82004  1.0000
  H   H2        1.0  0.26961  0.34990  0.17996  1.0000
  H   H3        1.0  0.63782  0.46569  0.61385  1.0000
  H   H4        1.0  0.36218  0.53430  0.38615  1.0000
  H   H5        1.0  0.79274  0.32937  0.56054  1.0000
  H   H6        1.0  0.20727  0.67062  0.43946  1.0000
  H   H7        1.0  0.03735  0.37769  0.71564  1.0000
  H   H8        1.0  0.96265  0.62231  0.28437  1.0000
  H   H9        1.0  0.58386  0.66542  0.35750  1.0000
  H   H10       1.0  0.41614  0.33458  0.64251  1.0000
  H   H11       1.0  0.68162  0.67926  0.56894  1.0000
  H   H12       1.0  0.31839  0.32074  0.43106  1.0000
  H   H13       1.0  0.95787  0.79064  0.69027  1.0000
  H   H14       1.0  0.04213  0.20937  0.30973  1.0000
  H   H15       1.0  0.13439  0.88196  0.59550  1.0000
  H   H16       1.0  0.86561  0.11804  0.40450  1.0000
  H   H17       1.0  0.84657  0.29646  0.20243  1.0000
  H   H18       1.0  0.15344  0.70354  0.79757  1.0000
  H   H19       1.0  0.75222  0.46445  0.31002  1.0000
  H   H20       1.0  0.24778  0.53556  0.68997  1.0000
  H   H21       1.0  0.50588  0.38798  0.33900  1.0000
  H   H22       1.0  0.49412  0.61201  0.66099  1.0000
  H   H23       1.0  0.35849  0.14698  0.26649  1.0000
  H   H24       1.0  0.64151  0.85302  0.73351  1.0000
  H   H25       1.0  0.64523  0.96704  0.43740  1.0000
  H   H26       1.0  0.35477  0.03297  0.56260  1.0000
  H   H27       1.0  0.47112  0.94234  0.35997  1.0000
  H   H28       1.0  0.52888  0.05766  0.64003  1.0000
  C   C1        1.0  0.93351  0.61599  0.88684  1.0000
  C   C2        1.0  0.06649  0.38401  0.11316  1.0000
  C   C3        1.0  0.79508  0.58742  0.79699  1.0000
  C   C4        1.0  0.20492  0.41257  0.20301  1.0000
  C   C5        1.0  0.74427  0.48451  0.68222  1.0000
  C   C6        1.0  0.25573  0.51549  0.31779  1.0000
  C   C7        1.0  0.82995  0.40670  0.65198  1.0000
  C   C8        1.0  0.17005  0.59329  0.34802  1.0000
  C   C9        1.0  0.96563  0.43236  0.73959  1.0000
  C   C10       1.0  0.03437  0.56763  0.26041  1.0000
  C   C11       1.0  0.01768  0.53315  0.85750  1.0000
  C   C12       1.0  0.98232  0.46685  0.14250  1.0000
  C   C13       1.0  0.16305  0.55952  0.94484  1.0000
  C   C14       1.0  0.83695  0.44048  0.05516  1.0000
  C   C15       1.0  0.80129  0.76741  0.35569  1.0000
  C   C16       1.0  0.19872  0.23259  0.64431  1.0000
  C   C17       1.0  0.70444  0.71315  0.41088  1.0000
  C   C18       1.0  0.29556  0.28684  0.58912  1.0000
  C   C19       1.0  0.75982  0.72205  0.52922  1.0000
  C   C20       1.0  0.24019  0.27795  0.47078  1.0000
  C   C21       1.0  0.91494  0.78478  0.59770  1.0000
  C   C22       1.0  0.08506  0.21522  0.40230  1.0000
  C   C23       1.0  0.01304  0.83629  0.54469  1.0000
  C   C24       1.0  0.98697  0.16371  0.45531  1.0000
  C   C25       1.0  0.95993  0.82878  0.42451  1.0000
  C   C26       1.0  0.04007  0.17123  0.57549  1.0000
  C   C27       1.0  0.06970  0.87632  0.37148  1.0000
  C   C28       1.0  0.93030  0.12369  0.62852  1.0000
  C   C29       1.0  0.71129  0.03203  0.10618  1.0000
  C   C30       1.0  0.28871  0.96797  0.89382  1.0000
  C   C31       1.0  0.65366  0.12783  0.16875  1.0000
  C   C32       1.0  0.34634  0.87217  0.83125  1.0000
  C   C33       1.0  0.73725  0.26453  0.21324  1.0000
  C   C34       1.0  0.26276  0.73547  0.78676  1.0000
  C   C35       1.0  0.68564  0.35862  0.27430  1.0000
  C   C36       1.0  0.31436  0.64138  0.72569  1.0000
  C   C37       1.0  0.54747  0.31482  0.29119  1.0000
  C   C38       1.0  0.45253  0.68519  0.70881  1.0000
  C   C39       1.0  0.46406  0.17991  0.25037  1.0000
  C   C40       1.0  0.53593  0.82009  0.74962  1.0000
  C   C41       1.0  0.51598  0.08231  0.19051  1.0000
  C   C42       1.0  0.48402  0.91769  0.80949  1.0000
  N   N1        1.0  0.25659  0.68070  0.02879  1.0000
  N   N2        1.0  0.74340  0.31930  0.97121  1.0000
  N   N3        1.0  0.38295  0.66600  0.08505  1.0000
  N   N4        1.0  0.61705  0.33400  0.91495  1.0000
  N   N5        1.0  0.37011  0.54166  0.04049  1.0000
  N   N6        1.0  0.62989  0.45835  0.95951  1.0000
  N   N7        1.0  0.23355  0.47260  0.95229  1.0000
  N   N8        1.0  0.76645  0.52740  0.04771  1.0000
  N   N9        1.0  0.04126  0.84840  0.25134  1.0000
  N   N10       1.0  0.95874  0.15160  0.74867  1.0000
  N   N11       1.0  0.17484  0.89749  0.23953  1.0000
  N   N12       1.0  0.82516  0.10251  0.76047  1.0000
  N   N13       1.0  0.28217  0.95421  0.34737  1.0000
  N   N14       1.0  0.71783  0.04579  0.65263  1.0000
  N   N15       1.0  0.22056  0.94306  0.43121  1.0000
  N   N16       1.0  0.77944  0.05694  0.56879  1.0000
  N   N17       1.0  0.79579  0.04351  0.03394  1.0000
  N   N18       1.0  0.20420  0.95649  0.96606  1.0000
  N   N19       1.0  0.83134  0.93430  0.00203  1.0000
  N   N20       1.0  0.16866  0.06570  0.99797  1.0000
  N   N21       1.0  0.77050  0.85884  0.05252  1.0000
  N   N22       1.0  0.22950  0.14116  0.94748  1.0000
  N   N23       1.0  0.69443  0.91589  0.11645  1.0000
  N   N24       1.0  0.30558  0.08411  0.88355  1.0000
  O   O1        1.0  0.98241  0.71680  0.99577  1.0000
  O   O2        1.0  0.01759  0.28320  0.00423  1.0000
  O   O3        1.0  0.74266  0.76101  0.24306  1.0000
  O   O4        1.0  0.25734  0.23899  0.75694  1.0000
  O   O5        1.0  0.55144  0.90409  0.36279  1.0000
  O   O6        1.0  0.44856  0.09591  0.63721  1.0000
  O   O7        1.0  0.44106  0.95306  0.15584  1.0000
  O   O8        1.0  0.55894  0.04694  0.84416  1.0000
