data_image0
_chemical_formula_structural       Cd2H20C24N8O14
_chemical_formula_sum              "Cd2 H20 C24 N8 O14"
_cell_length_a       7.45829
_cell_length_b       9.9592
_cell_length_c       10.2637
_cell_angle_alpha    108.907
_cell_angle_beta     90.0004
_cell_angle_gamma    89.9999

_space_group_name_H-M_alt    "P 1"
_space_group_IT_number       1

loop_
  _space_group_symop_operation_xyz
  'x, y, z'

loop_
  _atom_site_type_symbol
  _atom_site_label
  _atom_site_symmetry_multiplicity
  _atom_site_fract_x
  _atom_site_fract_y
  _atom_site_fract_z
  _atom_site_occupancy
  Cd  Cd1       1.0  0.58558  0.68499  0.07891  1.0000
  Cd  Cd2       1.0  0.08558  0.31501  0.92109  1.0000
  H   H1        1.0  0.55405  0.03755  0.22863  1.0000
  H   H2        1.0  0.05405  0.96246  0.77137  1.0000
  H   H3        1.0  0.59274  0.13076  0.66899  1.0000
  H   H4        1.0  0.09274  0.86924  0.33101  1.0000
  H   H5        1.0  0.55193  0.21557  0.46705  1.0000
  H   H6        1.0  0.05193  0.78444  0.53295  1.0000
  H   H7        1.0  0.76006  0.27128  0.29483  1.0000
  H   H8        1.0  0.26005  0.72872  0.70517  1.0000
  H   H9        1.0  0.70483  0.67218  0.71200  1.0000
  H   H10       1.0  0.20482  0.32782  0.28800  1.0000
  H   H11       1.0  0.64606  0.92734  0.75811  1.0000
  H   H12       1.0  0.14606  0.07266  0.24189  1.0000
  H   H13       1.0  0.69328  0.37739  0.11080  1.0000
  H   H14       1.0  0.19329  0.62262  0.88920  1.0000
  H   H15       1.0  0.75254  0.42976  0.54332  1.0000
  H   H16       1.0  0.25253  0.57024  0.45668  1.0000
  H   H17       1.0  0.46499  0.92266  0.99459  1.0000
  H   H18       1.0  0.96499  0.07734  0.00541  1.0000
  H   H19       1.0  0.27891  0.86179  0.02205  1.0000
  H   H20       1.0  0.77891  0.13821  0.97795  1.0000
  C   C1        1.0  0.57540  0.00452  0.31908  1.0000
  C   C2        1.0  0.07539  0.99548  0.68093  1.0000
  C   C3        1.0  0.59554  0.05645  0.56416  1.0000
  C   C4        1.0  0.09554  0.94355  0.43584  1.0000
  C   C5        1.0  0.69185  0.61768  0.48892  1.0000
  C   C6        1.0  0.19184  0.38232  0.51108  1.0000
  C   C7        1.0  0.57359  0.10361  0.45253  1.0000
  C   C8        1.0  0.07358  0.89639  0.54746  1.0000
  C   C9        1.0  0.66036  0.66845  0.37644  1.0000
  C   C10       1.0  0.16036  0.33155  0.62356  1.0000
  C   C11       1.0  0.72900  0.38392  0.32315  1.0000
  C   C12       1.0  0.22900  0.61609  0.67686  1.0000
  C   C13       1.0  0.62318  0.91043  0.54185  1.0000
  C   C14       1.0  0.12318  0.08957  0.45815  1.0000
  C   C15       1.0  0.68523  0.71388  0.62709  1.0000
  C   C16       1.0  0.18522  0.28611  0.37290  1.0000
  C   C17       1.0  0.62680  0.81803  0.40329  1.0000
  C   C18       1.0  0.12680  0.18198  0.59671  1.0000
  C   C19       1.0  0.65100  0.85476  0.65260  1.0000
  C   C20       1.0  0.15100  0.14525  0.34741  1.0000
  C   C21       1.0  0.69299  0.44267  0.21865  1.0000
  C   C22       1.0  0.19299  0.55732  0.78135  1.0000
  C   C23       1.0  0.72759  0.47127  0.45865  1.0000
  C   C24       1.0  0.22758  0.52872  0.54134  1.0000
  N   N1        1.0  0.22309  0.55356  0.16608  1.0000
  N   N2        1.0  0.72308  0.44644  0.83392  1.0000
  N   N3        1.0  0.60065  0.86634  0.29549  1.0000
  N   N4        1.0  0.10065  0.13367  0.70451  1.0000
  N   N5        1.0  0.66032  0.58006  0.24451  1.0000
  N   N6        1.0  0.16032  0.41995  0.75549  1.0000
  N   N7        1.0  0.93798  0.83239  0.04097  1.0000
  N   N8        1.0  0.43797  0.16761  0.95903  1.0000
  O   O1        1.0  0.09544  0.46519  0.15610  1.0000
  O   O2        1.0  0.59543  0.53481  0.84390  1.0000
  O   O3        1.0  0.25898  0.64588  0.27776  1.0000
  O   O4        1.0  0.75898  0.35412  0.72225  1.0000
  O   O5        1.0  0.31377  0.54232  0.05665  1.0000
  O   O6        1.0  0.81377  0.45768  0.94335  1.0000
  O   O7        1.0  0.40574  0.83516  0.99843  1.0000
  O   O8        1.0  0.90574  0.16484  0.00157  1.0000
  O   O9        1.0  0.78348  0.82860  0.98714  1.0000
  O   O10       1.0  0.28348  0.17140  0.01286  1.0000
  O   O11       1.0  0.05647  0.91538  0.01748  1.0000
  O   O12       1.0  0.55647  0.08462  0.98253  1.0000
  O   O13       1.0  0.97418  0.75782  0.11460  1.0000
  O   O14       1.0  0.47417  0.24218  0.88540  1.0000
