data_image0
_chemical_formula_structural       Gd2Zn2H20C30N2O20
_chemical_formula_sum              "Gd2 Zn2 H20 C30 N2 O20"
_cell_length_a       7.78641
_cell_length_b       10.2075
_cell_length_c       11.6357
_cell_angle_alpha    70.1092
_cell_angle_beta     74.7652
_cell_angle_gamma    79.8019

_space_group_name_H-M_alt    "P 1"
_space_group_IT_number       1

loop_
  _space_group_symop_operation_xyz
  'x, y, z'

loop_
  _atom_site_type_symbol
  _atom_site_label
  _atom_site_symmetry_multiplicity
  _atom_site_fract_x
  _atom_site_fract_y
  _atom_site_fract_z
  _atom_site_occupancy
  Gd  Gd1       1.0  0.36518  0.45002  0.67705  1.0000
  Gd  Gd2       1.0  0.63482  0.54998  0.32294  1.0000
  Zn  Zn1       1.0  0.34457  0.24618  0.46299  1.0000
  Zn  Zn2       1.0  0.65543  0.75382  0.53701  1.0000
  H   H1        1.0  0.94993  0.10236  0.83347  1.0000
  H   H2        1.0  0.05007  0.89763  0.16653  1.0000
  H   H3        1.0  0.71492  0.95892  0.99654  1.0000
  H   H4        1.0  0.28508  0.04108  0.00346  1.0000
  H   H5        1.0  0.53816  0.04558  0.17203  1.0000
  H   H6        1.0  0.46183  0.95442  0.82797  1.0000
  H   H7        1.0  0.82663  0.41280  0.02320  1.0000
  H   H8        1.0  0.17337  0.58720  0.97680  1.0000
  H   H9        1.0  0.73995  0.90607  0.73876  1.0000
  H   H10       1.0  0.26005  0.09393  0.26124  1.0000
  H   H11       1.0  0.04870  0.80673  0.76930  1.0000
  H   H12       1.0  0.95131  0.19327  0.23070  1.0000
  H   H13       1.0  0.30425  0.95748  0.65302  1.0000
  H   H14       1.0  0.69576  0.04252  0.34698  1.0000
  H   H15       1.0  0.27472  0.48448  0.44597  1.0000
  H   H16       1.0  0.72528  0.51552  0.55403  1.0000
  H   H17       1.0  0.54373  0.25205  0.88217  1.0000
  H   H18       1.0  0.45628  0.74796  0.11783  1.0000
  H   H19       1.0  0.42093  0.36958  0.93154  1.0000
  H   H20       1.0  0.57909  0.63042  0.06846  1.0000
  C   C1        1.0  0.05097  0.34331  0.82614  1.0000
  C   C2        1.0  0.94904  0.65668  0.17387  1.0000
  C   C3        1.0  0.89975  0.26613  0.91779  1.0000
  C   C4        1.0  0.10025  0.73387  0.08221  1.0000
  C   C5        1.0  0.86745  0.13908  0.90974  1.0000
  C   C6        1.0  0.13254  0.86092  0.09026  1.0000
  C   C7        1.0  0.73673  0.05984  0.00051  1.0000
  C   C8        1.0  0.26326  0.94016  0.99949  1.0000
  C   C9        1.0  0.63674  0.10848  0.09895  1.0000
  C   C10       1.0  0.36325  0.89152  0.90105  1.0000
  C   C11       1.0  0.66435  0.23782  0.10586  1.0000
  C   C12       1.0  0.33563  0.76219  0.89414  1.0000
  C   C13       1.0  0.56056  0.28820  0.21367  1.0000
  C   C14       1.0  0.43943  0.71181  0.78632  1.0000
  C   C15       1.0  0.79756  0.31582  0.01546  1.0000
  C   C16       1.0  0.20244  0.68418  0.98454  1.0000
  C   C17       1.0  0.96705  0.31775  0.44660  1.0000
  C   C18       1.0  0.03295  0.68226  0.55340  1.0000
  C   C19       1.0  0.97681  0.17725  0.54639  1.0000
  C   C20       1.0  0.02319  0.82275  0.45361  1.0000
  C   C21       1.0  0.82595  0.10512  0.61272  1.0000
  C   C22       1.0  0.17405  0.89488  0.38728  1.0000
  C   C23       1.0  0.63817  0.17166  0.60408  1.0000
  C   C24       1.0  0.36184  0.82833  0.39592  1.0000
  C   C25       1.0  0.85306  0.96851  0.69216  1.0000
  C   C26       1.0  0.14695  0.03149  0.30784  1.0000
  C   C27       1.0  0.02475  0.91275  0.70828  1.0000
  C   C28       1.0  0.97525  0.08725  0.29172  1.0000
  C   C29       1.0  0.16707  0.99429  0.64418  1.0000
  C   C30       1.0  0.83294  0.00571  0.35582  1.0000
  N   N1        1.0  0.14202  0.12222  0.56385  1.0000
  N   N2        1.0  0.85798  0.87778  0.43615  1.0000
  O   O1        1.0  0.09409  0.44937  0.84209  1.0000
  O   O2        1.0  0.90591  0.55062  0.15790  1.0000
  O   O3        1.0  0.13927  0.29626  0.73574  1.0000
  O   O4        1.0  0.86075  0.70372  0.26427  1.0000
  O   O5        1.0  0.58378  0.40792  0.21411  1.0000
  O   O6        1.0  0.41622  0.59208  0.78589  1.0000
  O   O7        1.0  0.45685  0.20440  0.30070  1.0000
  O   O8        1.0  0.54313  0.79561  0.69929  1.0000
  O   O9        1.0  0.10887  0.37652  0.39360  1.0000
  O   O10       1.0  0.89114  0.62348  0.60640  1.0000
  O   O11       1.0  0.81311  0.36435  0.42295  1.0000
  O   O12       1.0  0.18689  0.63566  0.57706  1.0000
  O   O13       1.0  0.57397  0.25516  0.66805  1.0000
  O   O14       1.0  0.42603  0.74484  0.33195  1.0000
  O   O15       1.0  0.55733  0.13245  0.54208  1.0000
  O   O16       1.0  0.44268  0.86754  0.45792  1.0000
  O   O17       1.0  0.38347  0.43191  0.47147  1.0000
  O   O18       1.0  0.61652  0.56809  0.52852  1.0000
  O   O19       1.0  0.42594  0.30500  0.88511  1.0000
  O   O20       1.0  0.57407  0.69500  0.11488  1.0000
