data_image0
_chemical_formula_structural       Dy2Zn2H20C30N2O20
_chemical_formula_sum              "Dy2 Zn2 H20 C30 N2 O20"
_cell_length_a       7.78759
_cell_length_b       10.1649
_cell_length_c       11.5589
_cell_angle_alpha    69.7818
_cell_angle_beta     74.6905
_cell_angle_gamma    79.6297

_space_group_name_H-M_alt    "P 1"
_space_group_IT_number       1

loop_
  _space_group_symop_operation_xyz
  'x, y, z'

loop_
  _atom_site_type_symbol
  _atom_site_label
  _atom_site_symmetry_multiplicity
  _atom_site_fract_x
  _atom_site_fract_y
  _atom_site_fract_z
  _atom_site_occupancy
  Dy  Dy1       1.0  0.36531  0.94989  0.17676  1.0000
  Dy  Dy2       1.0  0.63468  0.05011  0.82323  1.0000
  Zn  Zn1       1.0  0.34172  0.74610  0.96552  1.0000
  Zn  Zn2       1.0  0.65828  0.25390  0.03448  1.0000
  H   H1        1.0  0.27812  0.98687  0.94506  1.0000
  H   H2        1.0  0.72190  0.01313  0.05494  1.0000
  H   H3        1.0  0.54092  0.75037  0.38189  1.0000
  H   H4        1.0  0.45910  0.24964  0.61812  1.0000
  H   H5        1.0  0.42266  0.87236  0.42793  1.0000
  H   H6        1.0  0.57733  0.12764  0.57207  1.0000
  H   H7        1.0  0.95397  0.60148  0.33432  1.0000
  H   H8        1.0  0.04604  0.39849  0.66570  1.0000
  H   H9        1.0  0.71841  0.45773  0.49908  1.0000
  H   H10       1.0  0.28160  0.54225  0.50095  1.0000
  H   H11       1.0  0.53841  0.54722  0.67354  1.0000
  H   H12       1.0  0.46159  0.45277  0.32648  1.0000
  H   H13       1.0  0.82462  0.91760  0.51998  1.0000
  H   H14       1.0  0.17536  0.08240  0.48001  1.0000
  H   H15       1.0  0.73838  0.40238  0.24265  1.0000
  H   H16       1.0  0.26162  0.59763  0.75736  1.0000
  H   H17       1.0  0.04753  0.30180  0.27181  1.0000
  H   H18       1.0  0.95247  0.69821  0.72820  1.0000
  H   H19       1.0  0.30281  0.45382  0.15358  1.0000
  H   H20       1.0  0.69719  0.54618  0.84642  1.0000
  C   C1        1.0  0.05221  0.84543  0.32405  1.0000
  C   C2        1.0  0.94779  0.15456  0.67595  1.0000
  C   C3        1.0  0.90026  0.76836  0.41612  1.0000
  C   C4        1.0  0.09972  0.23164  0.58389  1.0000
  C   C5        1.0  0.86971  0.63955  0.40985  1.0000
  C   C6        1.0  0.13029  0.36044  0.59017  1.0000
  C   C7        1.0  0.73866  0.56011  0.50158  1.0000
  C   C8        1.0  0.26134  0.43988  0.49844  1.0000
  C   C9        1.0  0.63691  0.61029  0.59936  1.0000
  C   C10       1.0  0.36308  0.38971  0.40064  1.0000
  C   C11       1.0  0.66315  0.74122  0.60469  1.0000
  C   C12       1.0  0.33684  0.25879  0.39531  1.0000
  C   C13       1.0  0.55875  0.79218  0.71283  1.0000
  C   C14       1.0  0.44123  0.20783  0.28717  1.0000
  C   C15       1.0  0.79634  0.81957  0.51318  1.0000
  C   C16       1.0  0.20364  0.18044  0.48683  1.0000
  C   C17       1.0  0.96369  0.81840  0.94797  1.0000
  C   C18       1.0  0.03632  0.18160  0.05202  1.0000
  C   C19       1.0  0.97408  0.67617  0.04809  1.0000
  C   C20       1.0  0.02592  0.32383  0.95190  1.0000
  C   C21       1.0  0.82357  0.60320  0.11522  1.0000
  C   C22       1.0  0.17643  0.39680  0.88477  1.0000
  C   C23       1.0  0.63559  0.67042  0.10673  1.0000
  C   C24       1.0  0.36441  0.32957  0.89325  1.0000
  C   C25       1.0  0.85118  0.46537  0.19515  1.0000
  C   C26       1.0  0.14882  0.53463  0.80485  1.0000
  C   C27       1.0  0.02325  0.40886  0.21062  1.0000
  C   C28       1.0  0.97675  0.59115  0.78938  1.0000
  C   C29       1.0  0.16529  0.49102  0.14548  1.0000
  C   C30       1.0  0.83472  0.50899  0.85452  1.0000
  N   N1        1.0  0.13958  0.62049  0.06520  1.0000
  N   N2        1.0  0.86043  0.37951  0.93479  1.0000
  O   O1        1.0  0.09504  0.95212  0.33953  1.0000
  O   O2        1.0  0.90496  0.04787  0.66048  1.0000
  O   O3        1.0  0.14250  0.79736  0.23398  1.0000
  O   O4        1.0  0.85750  0.20263  0.76602  1.0000
  O   O5        1.0  0.58201  0.91260  0.71278  1.0000
  O   O6        1.0  0.41796  0.08743  0.28721  1.0000
  O   O7        1.0  0.45490  0.70799  0.80070  1.0000
  O   O8        1.0  0.54509  0.29201  0.19929  1.0000
  O   O9        1.0  0.10461  0.87895  0.89645  1.0000
  O   O10       1.0  0.89540  0.12105  0.10354  1.0000
  O   O11       1.0  0.80992  0.86416  0.92293  1.0000
  O   O12       1.0  0.19009  0.13584  0.07707  1.0000
  O   O13       1.0  0.57324  0.75697  0.16844  1.0000
  O   O14       1.0  0.42674  0.24301  0.83156  1.0000
  O   O15       1.0  0.55268  0.62888  0.04724  1.0000
  O   O16       1.0  0.44736  0.37112  0.95271  1.0000
  O   O17       1.0  0.38580  0.93211  0.97137  1.0000
  O   O18       1.0  0.61421  0.06788  0.02864  1.0000
  O   O19       1.0  0.42310  0.80388  0.38594  1.0000
  O   O20       1.0  0.57692  0.19613  0.61405  1.0000
