data_image0
_chemical_formula_structural       Nd2Zn2H24C30N2O22
_chemical_formula_sum              "Nd2 Zn2 H24 C30 N2 O22"
_cell_length_a       7.73707
_cell_length_b       10.5993
_cell_length_c       11.7255
_cell_angle_alpha    71.7135
_cell_angle_beta     74.7656
_cell_angle_gamma    80.1028

_space_group_name_H-M_alt    "P 1"
_space_group_IT_number       1

loop_
  _space_group_symop_operation_xyz
  'x, y, z'

loop_
  _atom_site_type_symbol
  _atom_site_label
  _atom_site_symmetry_multiplicity
  _atom_site_fract_x
  _atom_site_fract_y
  _atom_site_fract_z
  _atom_site_occupancy
  Nd  Nd1       1.0  0.88734  0.94961  0.18504  1.0000
  Nd  Nd2       1.0  0.11266  0.05039  0.81496  1.0000
  Zn  Zn1       1.0  0.84869  0.74419  0.96284  1.0000
  Zn  Zn2       1.0  0.15131  0.25581  0.03716  1.0000
  H   H1        1.0  0.77508  0.97116  0.97496  1.0000
  H   H2        1.0  0.22492  0.02884  0.02504  1.0000
  H   H3        1.0  0.95960  0.73637  0.45228  1.0000
  H   H4        1.0  0.04040  0.26363  0.54772  1.0000
  H   H5        1.0  0.78093  0.83697  0.45990  1.0000
  H   H6        1.0  0.21907  0.16303  0.54010  1.0000
  H   H7        1.0  0.17415  0.91794  0.33654  1.0000
  H   H8        1.0  0.82584  0.08206  0.66347  1.0000
  H   H9        1.0  0.27664  0.01134  0.20986  1.0000
  H   H10       1.0  0.72336  0.98866  0.79014  1.0000
  H   H11       1.0  0.44760  0.60905  0.32483  1.0000
  H   H12       1.0  0.55240  0.39095  0.67517  1.0000
  H   H13       1.0  0.21257  0.47056  0.47909  1.0000
  H   H14       1.0  0.78743  0.52945  0.52090  1.0000
  H   H15       1.0  0.04412  0.53997  0.66602  1.0000
  H   H16       1.0  0.95588  0.46004  0.33397  1.0000
  H   H17       1.0  0.34580  0.88242  0.54397  1.0000
  H   H18       1.0  0.65420  0.11758  0.45603  1.0000
  H   H19       1.0  0.24215  0.41783  0.22481  1.0000
  H   H20       1.0  0.75785  0.58216  0.77519  1.0000
  H   H21       1.0  0.55656  0.32460  0.24720  1.0000
  H   H22       1.0  0.44345  0.67539  0.75279  1.0000
  H   H23       1.0  0.80739  0.47419  0.13990  1.0000
  H   H24       1.0  0.19261  0.52580  0.86010  1.0000
  C   C1        1.0  0.55500  0.83461  0.33315  1.0000
  C   C2        1.0  0.44500  0.16539  0.66684  1.0000
  C   C3        1.0  0.40951  0.75421  0.42412  1.0000
  C   C4        1.0  0.59049  0.24579  0.57588  1.0000
  C   C5        1.0  0.37112  0.63840  0.40610  1.0000
  C   C6        1.0  0.62887  0.36160  0.59390  1.0000
  C   C7        1.0  0.23896  0.56228  0.49226  1.0000
  C   C8        1.0  0.76104  0.43773  0.50773  1.0000
  C   C9        1.0  0.14334  0.60151  0.59662  1.0000
  C   C10       1.0  0.85666  0.39849  0.40338  1.0000
  C   C11       1.0  0.17996  0.71828  0.61462  1.0000
  C   C12       1.0  0.82004  0.28173  0.38538  1.0000
  C   C13       1.0  0.08431  0.76246  0.72685  1.0000
  C   C14       1.0  0.91568  0.23754  0.27315  1.0000
  C   C15       1.0  0.31417  0.79354  0.52854  1.0000
  C   C16       1.0  0.68583  0.20646  0.47146  1.0000
  C   C17       1.0  0.45972  0.81908  0.95355  1.0000
  C   C18       1.0  0.54027  0.18092  0.04646  1.0000
  C   C19       1.0  0.47174  0.68354  0.04733  1.0000
  C   C20       1.0  0.52826  0.31646  0.95267  1.0000
  C   C21       1.0  0.32291  0.61134  0.11086  1.0000
  C   C22       1.0  0.67708  0.38866  0.88915  1.0000
  C   C23       1.0  0.13095  0.66766  0.10697  1.0000
  C   C24       1.0  0.86905  0.33234  0.89304  1.0000
  C   C25       1.0  0.35431  0.47948  0.18217  1.0000
  C   C26       1.0  0.64569  0.52052  0.81783  1.0000
  C   C27       1.0  0.52813  0.42725  0.19409  1.0000
  C   C28       1.0  0.47187  0.57275  0.80592  1.0000
  C   C29       1.0  0.66842  0.50803  0.13398  1.0000
  C   C30       1.0  0.33159  0.49196  0.86602  1.0000
  N   N1        1.0  0.63965  0.63129  0.06090  1.0000
  N   N2        1.0  0.36035  0.36871  0.93910  1.0000
  O   O1        1.0  0.59439  0.93520  0.35655  1.0000
  O   O2        1.0  0.40561  0.06480  0.64345  1.0000
  O   O3        1.0  0.63979  0.79824  0.23808  1.0000
  O   O4        1.0  0.36021  0.20176  0.76192  1.0000
  O   O5        1.0  0.14631  0.85501  0.74553  1.0000
  O   O6        1.0  0.85369  0.14500  0.25447  1.0000
  O   O7        1.0  0.94939  0.70153  0.79836  1.0000
  O   O8        1.0  0.05061  0.29847  0.20164  1.0000
  O   O9        1.0  0.60867  0.86565  0.89455  1.0000
  O   O10       1.0  0.39133  0.13435  0.10546  1.0000
  O   O11       1.0  0.30538  0.87404  0.93949  1.0000
  O   O12       1.0  0.69462  0.12596  0.06052  1.0000
  O   O13       1.0  0.05454  0.73480  0.18164  1.0000
  O   O14       1.0  0.94547  0.26520  0.81837  1.0000
  O   O15       1.0  0.06041  0.63388  0.03596  1.0000
  O   O16       1.0  0.93959  0.36612  0.96404  1.0000
  O   O17       1.0  0.88805  0.91582  0.98488  1.0000
  O   O18       1.0  0.11196  0.08418  0.01512  1.0000
  O   O19       1.0  0.90557  0.82490  0.41501  1.0000
  O   O20       1.0  0.09443  0.17511  0.58499  1.0000
  O   O21       1.0  0.17968  0.95055  0.24857  1.0000
  O   O22       1.0  0.82032  0.04945  0.75144  1.0000
