data_image0
_chemical_formula_structural       CoH10C8S2N4O6
_chemical_formula_sum              "Co1 H10 C8 S2 N4 O6"
_cell_length_a       6.92813
_cell_length_b       6.85103
_cell_length_c       7.34348
_cell_angle_alpha    86.5034
_cell_angle_beta     106.321
_cell_angle_gamma    116.021

_space_group_name_H-M_alt    "P 1"
_space_group_IT_number       1

loop_
  _space_group_symop_operation_xyz
  'x, y, z'

loop_
  _atom_site_type_symbol
  _atom_site_label
  _atom_site_symmetry_multiplicity
  _atom_site_fract_x
  _atom_site_fract_y
  _atom_site_fract_z
  _atom_site_occupancy
  Co  Co1       1.0  1.00000  1.00000  1.00000  1.0000
  H   H1        1.0  0.92480  0.02977  0.60008  1.0000
  H   H2        1.0  0.07521  0.97023  0.39992  1.0000
  H   H3        1.0  0.57270  0.38166  0.60763  1.0000
  H   H4        1.0  0.42730  0.61835  0.39237  1.0000
  H   H5        1.0  0.80823  0.40077  0.13204  1.0000
  H   H6        1.0  0.19177  0.59923  0.86796  1.0000
  H   H7        1.0  0.69488  0.67462  0.12167  1.0000
  H   H8        1.0  0.30512  0.32538  0.87832  1.0000
  H   H9        1.0  0.64636  0.63933  0.89528  1.0000
  H   H10       1.0  0.35364  0.36067  0.10471  1.0000
  C   C1        1.0  0.75289  0.19996  0.62872  1.0000
  C   C2        1.0  0.24712  0.80004  0.37127  1.0000
  C   C3        1.0  0.67227  0.40326  0.36148  1.0000
  C   C4        1.0  0.32773  0.59674  0.63852  1.0000
  C   C5        1.0  0.79217  0.34421  0.27050  1.0000
  C   C6        1.0  0.20782  0.65580  0.72950  1.0000
  C   C7        1.0  0.88400  0.20348  0.35407  1.0000
  C   C8        1.0  0.11600  0.79652  0.64593  1.0000
  S   S1        1.0  0.73583  0.11866  0.84899  1.0000
  S   S2        1.0  0.26417  0.88134  0.15102  1.0000
  N   N1        1.0  0.85887  0.13813  0.53274  1.0000
  N   N2        1.0  0.14113  0.86187  0.46726  1.0000
  N   N3        1.0  0.65660  0.32859  0.53960  1.0000
  N   N4        1.0  0.34340  0.67141  0.46041  1.0000
  O   O1        1.0  0.57189  0.52346  0.29050  1.0000
  O   O2        1.0  0.42811  0.47654  0.70950  1.0000
  O   O3        1.0  0.99003  0.13041  0.28318  1.0000
  O   O4        1.0  0.00997  0.86958  0.71683  1.0000
  O   O5        1.0  0.76534  0.71409  0.01497  1.0000
  O   O6        1.0  0.23466  0.28590  0.98503  1.0000
