data_image0
_chemical_formula_structural       La2H70C40O18
_chemical_formula_sum              "La2 H70 C40 O18"
_cell_length_a       8.48316
_cell_length_b       8.88579
_cell_length_c       15.3055
_cell_angle_alpha    97.0281
_cell_angle_beta     99.3139
_cell_angle_gamma    98.1367

_space_group_name_H-M_alt    "P 1"
_space_group_IT_number       1

loop_
  _space_group_symop_operation_xyz
  'x, y, z'

loop_
  _atom_site_type_symbol
  _atom_site_label
  _atom_site_symmetry_multiplicity
  _atom_site_fract_x
  _atom_site_fract_y
  _atom_site_fract_z
  _atom_site_occupancy
  La  La1       1.0  0.25317  0.51623  0.99992  1.0000
  La  La2       1.0  0.74683  0.48377  0.00009  1.0000
  H   H1        1.0  0.22261  0.93455  0.01294  1.0000
  H   H2        1.0  0.77738  0.06544  0.98706  1.0000
  H   H3        1.0  0.15073  0.14677  0.97683  1.0000
  H   H4        1.0  0.84927  0.85323  0.02317  1.0000
  H   H5        1.0  0.30912  0.18615  0.04658  1.0000
  H   H6        1.0  0.69088  0.81385  0.95342  1.0000
  H   H7        1.0  0.71190  0.42137  0.22504  1.0000
  H   H8        1.0  0.28810  0.57862  0.77497  1.0000
  H   H9        1.0  0.54419  0.31557  0.25913  1.0000
  H   H10       1.0  0.45581  0.68442  0.74087  1.0000
  H   H11       1.0  0.47902  0.56613  0.33148  1.0000
  H   H12       1.0  0.52098  0.43387  0.66852  1.0000
  H   H13       1.0  0.65866  0.66348  0.30545  1.0000
  H   H14       1.0  0.34133  0.33652  0.69455  1.0000
  H   H15       1.0  0.64317  0.40730  0.42302  1.0000
  H   H16       1.0  0.35683  0.59270  0.57698  1.0000
  H   H17       1.0  0.82212  0.50317  0.39671  1.0000
  H   H18       1.0  0.17788  0.49683  0.60329  1.0000
  H   H19       1.0  0.59003  0.66017  0.49718  1.0000
  H   H20       1.0  0.40996  0.33983  0.50283  1.0000
  H   H21       1.0  0.77089  0.75347  0.47143  1.0000
  H   H22       1.0  0.22911  0.24652  0.52857  1.0000
  H   H23       1.0  0.74779  0.50049  0.59089  1.0000
  H   H24       1.0  0.25221  0.49951  0.40910  1.0000
  H   H25       1.0  0.92824  0.58567  0.56124  1.0000
  H   H26       1.0  0.07176  0.41433  0.43876  1.0000
  H   H27       1.0  0.71202  0.75644  0.66660  1.0000
  H   H28       1.0  0.28798  0.24356  0.33340  1.0000
  H   H29       1.0  0.88707  0.84485  0.63247  1.0000
  H   H30       1.0  0.11292  0.15514  0.36753  1.0000
  H   H31       1.0  0.87639  0.60017  0.75774  1.0000
  H   H32       1.0  0.12360  0.39982  0.24226  1.0000
  H   H33       1.0  0.05193  0.67695  0.71942  1.0000
  H   H34       1.0  0.94806  0.32304  0.28058  1.0000
  H   H35       1.0  0.85569  0.85744  0.83473  1.0000
  H   H36       1.0  0.14431  0.14255  0.16527  1.0000
  H   H37       1.0  0.01793  0.94475  0.79046  1.0000
  H   H38       1.0  0.98208  0.05525  0.20955  1.0000
  H   H39       1.0  0.64279  0.08438  0.16114  1.0000
  H   H40       1.0  0.35721  0.91563  0.83886  1.0000
  H   H41       1.0  0.68781  0.89526  0.17099  1.0000
  H   H42       1.0  0.31218  0.10474  0.82901  1.0000
  H   H43       1.0  0.46354  0.06029  0.27435  1.0000
  H   H44       1.0  0.53646  0.93971  0.72565  1.0000
  H   H45       1.0  0.50372  0.87309  0.28424  1.0000
  H   H46       1.0  0.49628  0.12691  0.71576  1.0000
  H   H47       1.0  0.79758  0.97655  0.33980  1.0000
  H   H48       1.0  0.20242  0.02345  0.66020  1.0000
  H   H49       1.0  0.76216  0.16436  0.32794  1.0000
  H   H50       1.0  0.23784  0.83564  0.67206  1.0000
  H   H51       1.0  0.61184  0.96212  0.45204  1.0000
  H   H52       1.0  0.38817  0.03788  0.54796  1.0000
  H   H53       1.0  0.57405  0.14839  0.43945  1.0000
  H   H54       1.0  0.42596  0.85161  0.56055  1.0000
  H   H55       1.0  0.86993  0.25374  0.49615  1.0000
  H   H56       1.0  0.13008  0.74627  0.50384  1.0000
  H   H57       1.0  0.90732  0.06690  0.50891  1.0000
  H   H58       1.0  0.09269  0.93310  0.49109  1.0000
  H   H59       1.0  0.67610  0.23433  0.60467  1.0000
  H   H60       1.0  0.32391  0.76568  0.39533  1.0000
  H   H61       1.0  0.71602  0.04895  0.61797  1.0000
  H   H62       1.0  0.28399  0.95106  0.38203  1.0000
  H   H63       1.0  0.97099  0.34303  0.66496  1.0000
  H   H64       1.0  0.02902  0.65698  0.33504  1.0000
  H   H65       1.0  0.00926  0.15809  0.68041  1.0000
  H   H66       1.0  0.99074  0.84192  0.31959  1.0000
  H   H67       1.0  0.76439  0.32073  0.76952  1.0000
  H   H68       1.0  0.23561  0.67927  0.23048  1.0000
  H   H69       1.0  0.81542  0.14172  0.78863  1.0000
  H   H70       1.0  0.18458  0.85828  0.21136  1.0000
  C   C1        1.0  0.47876  0.45214  0.16022  1.0000
  C   C2        1.0  0.52124  0.54786  0.83979  1.0000
  C   C3        1.0  0.59208  0.42817  0.24198  1.0000
  C   C4        1.0  0.40792  0.57182  0.75802  1.0000
  C   C5        1.0  0.60240  0.55320  0.32159  1.0000
  C   C6        1.0  0.39760  0.44680  0.67841  1.0000
  C   C7        1.0  0.69934  0.51829  0.40737  1.0000
  C   C8        1.0  0.30066  0.48171  0.59263  1.0000
  C   C9        1.0  0.71268  0.64327  0.48705  1.0000
  C   C10       1.0  0.28732  0.35672  0.51296  1.0000
  C   C11       1.0  0.80813  0.60798  0.57321  1.0000
  C   C12       1.0  0.19186  0.39202  0.42679  1.0000
  C   C13       1.0  0.83133  0.73685  0.65187  1.0000
  C   C14       1.0  0.16867  0.26314  0.34813  1.0000
  C   C15       1.0  0.93593  0.70303  0.73559  1.0000
  C   C16       1.0  0.06407  0.29696  0.26440  1.0000
  C   C17       1.0  0.96843  0.83647  0.81186  1.0000
  C   C18       1.0  0.03157  0.16352  0.18813  1.0000
  C   C19       1.0  0.08445  0.81439  0.89290  1.0000
  C   C20       1.0  0.91555  0.18559  0.10709  1.0000
  C   C21       1.0  0.44701  0.90142  0.10599  1.0000
  C   C22       1.0  0.55299  0.09858  0.89401  1.0000
  C   C23       1.0  0.59600  0.97010  0.17572  1.0000
  C   C24       1.0  0.40400  0.02991  0.82428  1.0000
  C   C25       1.0  0.55703  0.98630  0.27074  1.0000
  C   C26       1.0  0.44297  0.01370  0.72926  1.0000
  C   C27       1.0  0.70598  0.05286  0.34279  1.0000
  C   C28       1.0  0.29402  0.94714  0.65721  1.0000
  C   C29       1.0  0.66742  0.07374  0.43724  1.0000
  C   C30       1.0  0.33258  0.92626  0.56276  1.0000
  C   C31       1.0  0.81408  0.14170  0.51052  1.0000
  C   C32       1.0  0.18593  0.85831  0.48948  1.0000
  C   C33       1.0  0.77125  0.16141  0.60407  1.0000
  C   C34       1.0  0.22876  0.83859  0.39593  1.0000
  C   C35       1.0  0.91455  0.23123  0.67903  1.0000
  C   C36       1.0  0.08546  0.76877  0.32097  1.0000
  C   C37       1.0  0.86383  0.25333  0.77048  1.0000
  C   C38       1.0  0.13618  0.74667  0.22952  1.0000
  C   C39       1.0  0.99650  0.33142  0.84747  1.0000
  C   C40       1.0  0.00350  0.66858  0.15253  1.0000
  O   O1        1.0  0.52411  0.43910  0.08331  1.0000
  O   O2        1.0  0.47589  0.56090  0.91669  1.0000
  O   O3        1.0  0.33927  0.48202  0.16618  1.0000
  O   O4        1.0  0.66073  0.51798  0.83382  1.0000
  O   O5        1.0  0.14125  0.69312  0.89792  1.0000
  O   O6        1.0  0.85875  0.30688  0.10207  1.0000
  O   O7        1.0  0.12111  0.93306  0.95623  1.0000
  O   O8        1.0  0.87889  0.06693  0.04377  1.0000
  O   O9        1.0  0.42246  0.75964  0.07678  1.0000
  O   O10       1.0  0.57753  0.24037  0.92322  1.0000
  O   O11       1.0  0.34824  0.99251  0.08140  1.0000
  O   O12       1.0  0.65175  0.00750  0.91860  1.0000
  O   O13       1.0  0.14372  0.34787  0.84044  1.0000
  O   O14       1.0  0.85628  0.65212  0.15957  1.0000
  O   O15       1.0  0.95508  0.38089  0.92284  1.0000
  O   O16       1.0  0.04492  0.61911  0.07717  1.0000
  O   O17       1.0  0.22416  0.23423  0.01466  1.0000
  O   O18       1.0  0.77585  0.76577  0.98534  1.0000
