data_image0
_chemical_formula_structural       Cd8H48C56N16Cl16
_chemical_formula_sum              "Cd8 H48 C56 N16 Cl16"
_cell_length_a       7.17018
_cell_length_b       11.7897
_cell_length_c       21.1803
_cell_angle_alpha    89.9997
_cell_angle_beta     90.0002
_cell_angle_gamma    90.0002

_space_group_name_H-M_alt    "P 1"
_space_group_IT_number       1

loop_
  _space_group_symop_operation_xyz
  'x, y, z'

loop_
  _atom_site_type_symbol
  _atom_site_label
  _atom_site_symmetry_multiplicity
  _atom_site_fract_x
  _atom_site_fract_y
  _atom_site_fract_z
  _atom_site_occupancy
  Cd  Cd1       1.0  0.63380  0.38217  0.46032  1.0000
  Cd  Cd2       1.0  0.36620  0.11783  0.96033  1.0000
  Cd  Cd3       1.0  0.13380  0.61783  0.03968  1.0000
  Cd  Cd4       1.0  0.86620  0.88217  0.53967  1.0000
  Cd  Cd5       1.0  0.36620  0.61782  0.53967  1.0000
  Cd  Cd6       1.0  0.63380  0.88217  0.03968  1.0000
  Cd  Cd7       1.0  0.86620  0.38217  0.96033  1.0000
  Cd  Cd8       1.0  0.13381  0.11783  0.46033  1.0000
  H   H1        1.0  0.93762  0.43444  0.29617  1.0000
  H   H2        1.0  0.06238  0.06555  0.79617  1.0000
  H   H3        1.0  0.43761  0.56556  0.20383  1.0000
  H   H4        1.0  0.56239  0.93445  0.70383  1.0000
  H   H5        1.0  0.06238  0.56555  0.70382  1.0000
  H   H6        1.0  0.93761  0.93445  0.20383  1.0000
  H   H7        1.0  0.56238  0.43445  0.79618  1.0000
  H   H8        1.0  0.43762  0.06555  0.29617  1.0000
  H   H9        1.0  0.86859  0.53246  0.19512  1.0000
  H   H10       1.0  0.13141  0.96754  0.69512  1.0000
  H   H11       1.0  0.36858  0.46754  0.30488  1.0000
  H   H12       1.0  0.63142  0.03246  0.80488  1.0000
  H   H13       1.0  0.13141  0.46754  0.80488  1.0000
  H   H14       1.0  0.86859  0.03247  0.30488  1.0000
  H   H15       1.0  0.63140  0.53246  0.69512  1.0000
  H   H16       1.0  0.36858  0.96753  0.19512  1.0000
  H   H17       1.0  0.70347  0.71535  0.40034  1.0000
  H   H18       1.0  0.29653  0.78465  0.90034  1.0000
  H   H19       1.0  0.20347  0.28465  0.09966  1.0000
  H   H20       1.0  0.79653  0.21535  0.59966  1.0000
  H   H21       1.0  0.29653  0.28465  0.59966  1.0000
  H   H22       1.0  0.70347  0.21535  0.09966  1.0000
  H   H23       1.0  0.79653  0.71535  0.90034  1.0000
  H   H24       1.0  0.20347  0.78465  0.40034  1.0000
  H   H25       1.0  0.63769  0.81473  0.29992  1.0000
  H   H26       1.0  0.36232  0.68526  0.79992  1.0000
  H   H27       1.0  0.13769  0.18526  0.20008  1.0000
  H   H28       1.0  0.86231  0.31474  0.70008  1.0000
  H   H29       1.0  0.36231  0.18526  0.70009  1.0000
  H   H30       1.0  0.63769  0.31474  0.20008  1.0000
  H   H31       1.0  0.86231  0.81474  0.79991  1.0000
  H   H32       1.0  0.13768  0.68526  0.29992  1.0000
  H   H33       1.0  0.89090  0.56984  0.44791  1.0000
  H   H34       1.0  0.10910  0.93015  0.94791  1.0000
  H   H35       1.0  0.39090  0.43016  0.05209  1.0000
  H   H36       1.0  0.60910  0.06984  0.55209  1.0000
  H   H37       1.0  0.10910  0.43015  0.55209  1.0000
  H   H38       1.0  0.89090  0.06984  0.05209  1.0000
  H   H39       1.0  0.60910  0.56985  0.94791  1.0000
  H   H40       1.0  0.39090  0.93016  0.44791  1.0000
  H   H41       1.0  0.97344  0.45734  0.40935  1.0000
  H   H42       1.0  0.02656  0.04265  0.90935  1.0000
  H   H43       1.0  0.47344  0.54265  0.09065  1.0000
  H   H44       1.0  0.52656  0.95735  0.59065  1.0000
  H   H45       1.0  0.02656  0.54265  0.59065  1.0000
  H   H46       1.0  0.97344  0.95735  0.09065  1.0000
  H   H47       1.0  0.52656  0.45735  0.90935  1.0000
  H   H48       1.0  0.47344  0.04265  0.40935  1.0000
  C   C1        1.0  0.70682  0.73707  0.18422  1.0000
  C   C2        1.0  0.29318  0.76293  0.68422  1.0000
  C   C3        1.0  0.20683  0.26293  0.31579  1.0000
  C   C4        1.0  0.79318  0.23707  0.81578  1.0000
  C   C5        1.0  0.29318  0.26293  0.81578  1.0000
  C   C6        1.0  0.70682  0.23707  0.31578  1.0000
  C   C7        1.0  0.79317  0.73708  0.68422  1.0000
  C   C8        1.0  0.20682  0.76293  0.18422  1.0000
  C   C9        1.0  0.74838  0.67982  0.24115  1.0000
  C   C10       1.0  0.25162  0.82018  0.74114  1.0000
  C   C11       1.0  0.24838  0.32018  0.25886  1.0000
  C   C12       1.0  0.75163  0.17983  0.75886  1.0000
  C   C13       1.0  0.25162  0.32018  0.75886  1.0000
  C   C14       1.0  0.74838  0.17983  0.25886  1.0000
  C   C15       1.0  0.75162  0.67982  0.74114  1.0000
  C   C16       1.0  0.24837  0.82018  0.24115  1.0000
  C   C17       1.0  0.82634  0.56853  0.35483  1.0000
  C   C18       1.0  0.17367  0.93147  0.85483  1.0000
  C   C19       1.0  0.32633  0.43147  0.14517  1.0000
  C   C20       1.0  0.67367  0.06853  0.64517  1.0000
  C   C21       1.0  0.17367  0.43147  0.64517  1.0000
  C   C22       1.0  0.82633  0.06853  0.14517  1.0000
  C   C23       1.0  0.67367  0.56853  0.85483  1.0000
  C   C24       1.0  0.32634  0.93147  0.35483  1.0000
  C   C25       1.0  0.87084  0.51729  0.29669  1.0000
  C   C26       1.0  0.12916  0.98270  0.79669  1.0000
  C   C27       1.0  0.37084  0.48270  0.20331  1.0000
  C   C28       1.0  0.62917  0.01730  0.70331  1.0000
  C   C29       1.0  0.12916  0.48270  0.70331  1.0000
  C   C30       1.0  0.87084  0.01729  0.20331  1.0000
  C   C31       1.0  0.62916  0.51730  0.79669  1.0000
  C   C32       1.0  0.37084  0.98270  0.29669  1.0000
  C   C33       1.0  0.83288  0.57179  0.24016  1.0000
  C   C34       1.0  0.16713  0.92821  0.74016  1.0000
  C   C35       1.0  0.33287  0.42821  0.25984  1.0000
  C   C36       1.0  0.66713  0.07179  0.75984  1.0000
  C   C37       1.0  0.16712  0.42822  0.75984  1.0000
  C   C38       1.0  0.83287  0.07179  0.25984  1.0000
  C   C39       1.0  0.66711  0.57179  0.74016  1.0000
  C   C40       1.0  0.33287  0.92821  0.24016  1.0000
  C   C41       1.0  0.73992  0.67573  0.35546  1.0000
  C   C42       1.0  0.26009  0.82427  0.85546  1.0000
  C   C43       1.0  0.23992  0.32427  0.14454  1.0000
  C   C44       1.0  0.76008  0.17574  0.64454  1.0000
  C   C45       1.0  0.26008  0.32427  0.64454  1.0000
  C   C46       1.0  0.73992  0.17573  0.14454  1.0000
  C   C47       1.0  0.76008  0.67574  0.85546  1.0000
  C   C48       1.0  0.23992  0.82427  0.35546  1.0000
  C   C49       1.0  0.70214  0.73110  0.29933  1.0000
  C   C50       1.0  0.29787  0.76890  0.79932  1.0000
  C   C51       1.0  0.20214  0.26889  0.20068  1.0000
  C   C52       1.0  0.79786  0.23111  0.70067  1.0000
  C   C53       1.0  0.29786  0.26890  0.70068  1.0000
  C   C54       1.0  0.70214  0.23111  0.20067  1.0000
  C   C55       1.0  0.79786  0.73111  0.79932  1.0000
  C   C56       1.0  0.20213  0.76889  0.29933  1.0000
  N   N1        1.0  0.66851  0.78635  0.13824  1.0000
  N   N2        1.0  0.33148  0.71365  0.63823  1.0000
  N   N3        1.0  0.16851  0.21365  0.36177  1.0000
  N   N4        1.0  0.83149  0.28635  0.86177  1.0000
  N   N5        1.0  0.33149  0.21365  0.86177  1.0000
  N   N6        1.0  0.66851  0.28636  0.36177  1.0000
  N   N7        1.0  0.83148  0.78635  0.63823  1.0000
  N   N8        1.0  0.16850  0.71365  0.13823  1.0000
  N   N9        1.0  0.86467  0.51334  0.41185  1.0000
  N   N10       1.0  0.13533  0.98666  0.91184  1.0000
  N   N11       1.0  0.36467  0.48666  0.08816  1.0000
  N   N12       1.0  0.63533  0.01334  0.58815  1.0000
  N   N13       1.0  0.13533  0.48665  0.58815  1.0000
  N   N14       1.0  0.86467  0.01334  0.08815  1.0000
  N   N15       1.0  0.63533  0.51335  0.91185  1.0000
  N   N16       1.0  0.36467  0.98666  0.41185  1.0000
  Cl  Cl1       1.0  0.35508  0.50753  0.42892  1.0000
  Cl  Cl2       1.0  0.64493  0.99247  0.92892  1.0000
  Cl  Cl3       1.0  0.85508  0.49247  0.07107  1.0000
  Cl  Cl4       1.0  0.14493  0.00753  0.57107  1.0000
  Cl  Cl5       1.0  0.64493  0.49247  0.57107  1.0000
  Cl  Cl6       1.0  0.35507  0.00753  0.07107  1.0000
  Cl  Cl7       1.0  0.14492  0.50753  0.92893  1.0000
  Cl  Cl8       1.0  0.85507  0.99247  0.42893  1.0000
  Cl  Cl9       1.0  0.45490  0.20716  0.50006  1.0000
  Cl  Cl10      1.0  0.54510  0.29285  0.00006  1.0000
  Cl  Cl11      1.0  0.95490  0.79284  0.99994  1.0000
  Cl  Cl12      1.0  0.04511  0.70716  0.49994  1.0000
  Cl  Cl13      1.0  0.54511  0.79284  0.49994  1.0000
  Cl  Cl14      1.0  0.45490  0.70716  0.99994  1.0000
  Cl  Cl15      1.0  0.04511  0.20716  0.00006  1.0000
  Cl  Cl16      1.0  0.95490  0.29284  0.50006  1.0000
