data_image0
_chemical_formula_structural       Li6H42C39O15
_chemical_formula_sum              "Li6 H42 C39 O15"
_cell_length_a       10.0936
_cell_length_b       11.3418
_cell_length_c       11.344
_cell_angle_alpha    120.013
_cell_angle_beta     90.0315
_cell_angle_gamma    90.0115

_space_group_name_H-M_alt    "P 1"
_space_group_IT_number       1

loop_
  _space_group_symop_operation_xyz
  'x, y, z'

loop_
  _atom_site_type_symbol
  _atom_site_label
  _atom_site_symmetry_multiplicity
  _atom_site_fract_x
  _atom_site_fract_y
  _atom_site_fract_z
  _atom_site_occupancy
  Li  Li1       1.0  0.97461  0.10675  0.08350  1.0000
  Li  Li2       1.0  0.64102  0.91654  0.02347  1.0000
  Li  Li3       1.0  0.30765  0.97650  0.89282  1.0000
  Li  Li4       1.0  0.10228  0.82834  0.90380  1.0000
  Li  Li5       1.0  0.76894  0.09625  0.92483  1.0000
  Li  Li6       1.0  0.43567  0.07537  0.17138  1.0000
  H   H1        1.0  0.93157  0.12530  0.32127  1.0000
  H   H2        1.0  0.59780  0.67859  0.80414  1.0000
  H   H3        1.0  0.26405  0.19567  0.87425  1.0000
  H   H4        1.0  0.17533  0.73679  0.31027  1.0000
  H   H5        1.0  0.84144  0.69037  0.42710  1.0000
  H   H6        1.0  0.50798  0.57328  0.26291  1.0000
  H   H7        1.0  0.13768  0.83944  0.56134  1.0000
  H   H8        1.0  0.80442  0.43919  0.27857  1.0000
  H   H9        1.0  0.47096  0.72151  0.16020  1.0000
  H   H10       1.0  0.14075  0.74403  0.09815  1.0000
  H   H11       1.0  0.80667  0.90242  0.64656  1.0000
  H   H12       1.0  0.47338  0.35383  0.25561  1.0000
  H   H13       1.0  0.90442  0.23175  0.57011  1.0000
  H   H14       1.0  0.57149  0.42952  0.66171  1.0000
  H   H15       1.0  0.23711  0.33811  0.76770  1.0000
  H   H16       1.0  0.93433  0.22144  0.78305  1.0000
  H   H17       1.0  0.60191  0.21666  0.43840  1.0000
  H   H18       1.0  0.26755  0.56144  0.77809  1.0000
  H   H19       1.0  0.89457  0.68564  0.83681  1.0000
  H   H20       1.0  0.56159  0.16306  0.84868  1.0000
  H   H21       1.0  0.22844  0.15140  0.31456  1.0000
  H   H22       1.0  0.90693  0.49417  0.64264  1.0000
  H   H23       1.0  0.57400  0.35767  0.85230  1.0000
  H   H24       1.0  0.24134  0.14823  0.50570  1.0000
  H   H25       1.0  0.07504  0.48033  0.68288  1.0000
  H   H26       1.0  0.74201  0.31757  0.79800  1.0000
  H   H27       1.0  0.40939  0.20253  0.51962  1.0000
  H   H28       1.0  0.03394  0.57824  0.60326  1.0000
  H   H29       1.0  0.70122  0.39673  0.97557  1.0000
  H   H30       1.0  0.36836  0.02491  0.42136  1.0000
  H   H31       1.0  0.20346  0.18880  0.14845  1.0000
  H   H32       1.0  0.87018  0.85161  0.04051  1.0000
  H   H33       1.0  0.53661  0.95971  0.81121  1.0000
  H   H34       1.0  0.20051  0.40746  0.34269  1.0000
  H   H35       1.0  0.86671  0.65742  0.06477  1.0000
  H   H36       1.0  0.53360  0.93540  0.59264  1.0000
  H   H37       1.0  0.02376  0.39215  0.34309  1.0000
  H   H38       1.0  0.68997  0.65702  0.04883  1.0000
  H   H39       1.0  0.35683  0.95106  0.60777  1.0000
  H   H40       1.0  0.10380  0.40551  0.20935  1.0000
  H   H41       1.0  0.77008  0.79070  0.19613  1.0000
  H   H42       1.0  0.43690  0.80394  0.59441  1.0000
  C   C1        1.0  0.04342  0.01773  0.80870  1.0000
  C   C2        1.0  0.71049  0.19138  0.20924  1.0000
  C   C3        1.0  0.37681  0.79076  0.98196  1.0000
  C   C4        1.0  0.03328  0.93581  0.19474  1.0000
  C   C5        1.0  0.69933  0.80545  0.74142  1.0000
  C   C6        1.0  0.36586  0.25863  0.06379  1.0000
  C   C7        1.0  0.00351  0.03933  0.44142  1.0000
  C   C8        1.0  0.66999  0.55865  0.59816  1.0000
  C   C9        1.0  0.33610  0.40183  0.96026  1.0000
  C   C10       1.0  0.98605  0.04112  0.31907  1.0000
  C   C11       1.0  0.65223  0.68098  0.72227  1.0000
  C   C12       1.0  0.31848  0.27769  0.95853  1.0000
  C   C13       1.0  0.12198  0.82189  0.31277  1.0000
  C   C14       1.0  0.78810  0.68772  0.50959  1.0000
  C   C15       1.0  0.45463  0.49065  0.17778  1.0000
  C   C16       1.0  0.07229  0.92702  0.43938  1.0000
  C   C17       1.0  0.73868  0.56096  0.48801  1.0000
  C   C18       1.0  0.40496  0.51207  0.07260  1.0000
  C   C19       1.0  0.08791  0.92514  0.56192  1.0000
  C   C20       1.0  0.75470  0.43843  0.36361  1.0000
  C   C21       1.0  0.42103  0.63645  0.07449  1.0000
  C   C22       1.0  0.03721  0.02863  0.68367  1.0000
  C   C23       1.0  0.70428  0.31650  0.34522  1.0000
  C   C24       1.0  0.37041  0.65475  0.97098  1.0000
  C   C25       1.0  0.10383  0.82616  0.19491  1.0000
  C   C26       1.0  0.76983  0.80554  0.63177  1.0000
  C   C27       1.0  0.43648  0.36849  0.17348  1.0000
  C   C28       1.0  0.95556  0.14604  0.56844  1.0000
  C   C29       1.0  0.62249  0.43144  0.57777  1.0000
  C   C30       1.0  0.28827  0.42213  0.85350  1.0000
  C   C31       1.0  0.97150  0.14048  0.68596  1.0000
  C   C32       1.0  0.63870  0.31397  0.45469  1.0000
  C   C33       1.0  0.30453  0.54522  0.85909  1.0000
  C   C34       1.0  0.00128  0.54880  0.67753  1.0000
  C   C35       1.0  0.66838  0.32267  0.87178  1.0000
  C   C36       1.0  0.33561  0.12868  0.45106  1.0000
  C   C37       1.0  0.11216  0.36364  0.27829  1.0000
  C   C38       1.0  0.77847  0.72180  0.08528  1.0000
  C   C39       1.0  0.44527  0.91479  0.63632  1.0000
  O   O1        1.0  0.00955  0.93337  0.07775  1.0000
  O   O2        1.0  0.67556  0.92239  0.85604  1.0000
  O   O3        1.0  0.34237  0.14403  0.06621  1.0000
  O   O4        1.0  0.13052  0.94037  0.81676  1.0000
  O   O5        1.0  0.79770  0.18330  0.12392  1.0000
  O   O6        1.0  0.46400  0.87613  0.05945  1.0000
  O   O7        1.0  0.95930  0.08500  0.90278  1.0000
  O   O8        1.0  0.62622  0.09732  0.18228  1.0000
  O   O9        1.0  0.29275  0.81769  0.91468  1.0000
  O   O10       1.0  0.98811  0.66732  0.80999  1.0000
  O   O11       1.0  0.65513  0.19000  0.85732  1.0000
  O   O12       1.0  0.32205  0.14297  0.33279  1.0000
  O   O13       1.0  0.11889  0.21764  0.20373  1.0000
  O   O14       1.0  0.78542  0.79652  0.01406  1.0000
  O   O15       1.0  0.45202  0.98618  0.78232  1.0000
