data_image0
_chemical_formula_structural       Li6H36C27O15
_chemical_formula_sum              "Li6 H36 C27 O15"
_cell_length_a       9.2439
_cell_length_b       9.24575
_cell_length_c       10.7374
_cell_angle_alpha    90.0095
_cell_angle_beta     89.9892
_cell_angle_gamma    120.026

_space_group_name_H-M_alt    "P 1"
_space_group_IT_number       1

loop_
  _space_group_symop_operation_xyz
  'x, y, z'

loop_
  _atom_site_type_symbol
  _atom_site_label
  _atom_site_symmetry_multiplicity
  _atom_site_fract_x
  _atom_site_fract_y
  _atom_site_fract_z
  _atom_site_occupancy
  Li  Li1       1.0  0.87188  0.97043  0.41476  1.0000
  Li  Li2       1.0  0.02970  0.90152  0.08149  1.0000
  Li  Li3       1.0  0.09851  0.12826  0.74812  1.0000
  Li  Li4       1.0  0.18948  0.10302  0.28057  1.0000
  Li  Li5       1.0  0.89698  0.08637  0.94720  1.0000
  Li  Li6       1.0  0.91347  0.81068  0.61393  1.0000
  H   H1        1.0  0.77182  0.93224  0.19229  1.0000
  H   H2        1.0  0.06770  0.83964  0.85908  1.0000
  H   H3        1.0  0.16042  0.22825  0.52565  1.0000
  H   H4        1.0  0.32135  0.03021  0.46033  1.0000
  H   H5        1.0  0.96957  0.29098  0.12683  1.0000
  H   H6        1.0  0.70892  0.67863  0.79358  1.0000
  H   H7        1.0  0.18517  0.67979  0.19639  1.0000
  H   H8        1.0  0.32041  0.50533  0.86306  1.0000
  H   H9        1.0  0.49416  0.81479  0.52981  1.0000
  H   H10       1.0  0.22400  0.43275  0.21204  1.0000
  H   H11       1.0  0.56751  0.79136  0.87893  1.0000
  H   H12       1.0  0.20823  0.77605  0.54562  1.0000
  H   H13       1.0  0.88114  0.25185  0.52237  1.0000
  H   H14       1.0  0.74868  0.62922  0.18878  1.0000
  H   H15       1.0  0.37086  0.11941  0.85560  1.0000
  H   H16       1.0  0.85246  0.50455  0.50935  1.0000
  H   H17       1.0  0.49585  0.34774  0.17564  1.0000
  H   H18       1.0  0.65211  0.14763  0.84262  1.0000
  H   H19       1.0  0.50773  0.85690  0.17353  1.0000
  H   H20       1.0  0.14302  0.65100  0.84019  1.0000
  H   H21       1.0  0.34927  0.49222  0.50681  1.0000
  H   H22       1.0  0.50710  0.93140  0.32643  1.0000
  H   H23       1.0  0.06849  0.57574  0.99304  1.0000
  H   H24       1.0  0.42448  0.49300  0.65969  1.0000
  H   H25       1.0  0.49635  0.73371  0.30451  1.0000
  H   H26       1.0  0.26628  0.76281  0.97119  1.0000
  H   H27       1.0  0.23743  0.50364  0.63780  1.0000
  H   H28       1.0  0.57432  0.21067  0.50311  1.0000
  H   H29       1.0  0.78924  0.36329  0.17004  1.0000
  H   H30       1.0  0.63649  0.42588  0.83661  1.0000
  H   H31       1.0  0.50790  0.35397  0.45498  1.0000
  H   H32       1.0  0.64564  0.15348  0.12200  1.0000
  H   H33       1.0  0.84628  0.49234  0.78838  1.0000
  H   H34       1.0  0.60660  0.28268  0.34669  1.0000
  H   H35       1.0  0.71683  0.32348  0.01371  1.0000
  H   H36       1.0  0.67611  0.39333  0.68020  1.0000
  C   C1        1.0  0.00087  0.76099  0.34642  1.0000
  C   C2        1.0  0.23913  0.23973  0.01306  1.0000
  C   C3        1.0  0.75989  0.99908  0.67973  1.0000
  C   C4        1.0  0.01546  0.60865  0.35108  1.0000
  C   C5        1.0  0.39165  0.40667  0.01759  1.0000
  C   C6        1.0  0.59294  0.98449  0.68447  1.0000
  C   C7        1.0  0.11765  0.58450  0.26675  1.0000
  C   C8        1.0  0.41575  0.53307  0.93337  1.0000
  C   C9        1.0  0.46646  0.88230  0.60018  1.0000
  C   C10       1.0  0.13727  0.44496  0.27431  1.0000
  C   C11       1.0  0.55537  0.69232  0.94103  1.0000
  C   C12       1.0  0.30733  0.86288  0.60776  1.0000
  C   C13       1.0  0.05308  0.32111  0.36744  1.0000
  C   C14       1.0  0.67932  0.73202  0.03408  1.0000
  C   C15       1.0  0.26781  0.94722  0.70085  1.0000
  C   C16       1.0  0.94763  0.34575  0.45079  1.0000
  C   C17       1.0  0.65474  0.60180  0.11726  1.0000
  C   C18       1.0  0.39811  0.05274  0.78408  1.0000
  C   C19       1.0  0.93186  0.48660  0.44346  1.0000
  C   C20       1.0  0.51381  0.44513  0.10983  1.0000
  C   C21       1.0  0.55464  0.06821  0.77681  1.0000
  C   C22       1.0  0.55154  0.86277  0.26966  1.0000
  C   C23       1.0  0.13718  0.68891  0.93634  1.0000
  C   C24       1.0  0.31133  0.44848  0.60296  1.0000
  C   C25       1.0  0.52095  0.24688  0.42615  1.0000
  C   C26       1.0  0.75275  0.27364  0.09307  1.0000
  C   C27       1.0  0.72604  0.47913  0.75956  1.0000
  O   O1        1.0  0.05602  0.85659  0.25123  1.0000
  O   O2        1.0  0.14329  0.19931  0.91801  1.0000
  O   O3        1.0  0.80028  0.94388  0.58454  1.0000
  O   O4        1.0  0.93561  0.79502  0.43889  1.0000
  O   O5        1.0  0.20525  0.14042  0.10547  1.0000
  O   O6        1.0  0.85937  0.06449  0.77210  1.0000
  O   O7        1.0  0.07514  0.19091  0.37966  1.0000
  O   O8        1.0  0.80946  0.88439  0.04635  1.0000
  O   O9        1.0  0.11552  0.92512  0.71317  1.0000
  O   O10       1.0  0.73031  0.94794  0.27439  1.0000
  O   O11       1.0  0.05203  0.78243  0.94117  1.0000
  O   O12       1.0  0.21767  0.26974  0.60775  1.0000
  O   O13       1.0  0.36268  0.10794  0.38984  1.0000
  O   O14       1.0  0.89158  0.25433  0.05649  1.0000
  O   O15       1.0  0.74526  0.63723  0.72308  1.0000
