data_image0
_chemical_formula_structural       Cu4H40C64N16O16
_chemical_formula_sum              "Cu4 H40 C64 N16 O16"
_cell_length_a       10.0492
_cell_length_b       11.0361
_cell_length_c       15.4576
_cell_angle_alpha    103.149
_cell_angle_beta     90.0001
_cell_angle_gamma    90.0012

_space_group_name_H-M_alt    "P 1"
_space_group_IT_number       1

loop_
  _space_group_symop_operation_xyz
  'x, y, z'

loop_
  _atom_site_type_symbol
  _atom_site_label
  _atom_site_symmetry_multiplicity
  _atom_site_fract_x
  _atom_site_fract_y
  _atom_site_fract_z
  _atom_site_occupancy
  Cu  Cu1       1.0  0.23694  0.24335  0.31145  1.0000
  Cu  Cu2       1.0  0.73694  0.25665  0.18854  1.0000
  Cu  Cu3       1.0  0.76305  0.75665  0.68855  1.0000
  Cu  Cu4       1.0  0.26306  0.74334  0.81146  1.0000
  H   H1        1.0  0.35105  0.34780  0.64537  1.0000
  H   H2        1.0  0.85103  0.15221  0.85462  1.0000
  H   H3        1.0  0.64897  0.65221  0.35463  1.0000
  H   H4        1.0  0.14895  0.84780  0.14539  1.0000
  H   H5        1.0  0.67280  0.36373  0.47846  1.0000
  H   H6        1.0  0.17278  0.13630  0.02154  1.0000
  H   H7        1.0  0.32720  0.63626  0.52153  1.0000
  H   H8        1.0  0.82721  0.86373  0.97846  1.0000
  H   H9        1.0  0.41580  0.03136  0.25066  1.0000
  H   H10       1.0  0.91581  0.46864  0.24933  1.0000
  H   H11       1.0  0.58420  0.96865  0.74933  1.0000
  H   H12       1.0  0.08418  0.53135  0.75067  1.0000
  H   H13       1.0  0.41573  0.80371  0.24598  1.0000
  H   H14       1.0  0.91572  0.69630  0.25403  1.0000
  H   H15       1.0  0.58429  0.19630  0.75402  1.0000
  H   H16       1.0  0.08427  0.30370  0.74598  1.0000
  H   H17       1.0  0.03436  0.85537  0.38053  1.0000
  H   H18       1.0  0.53436  0.64463  0.11947  1.0000
  H   H19       1.0  0.96565  0.14463  0.61946  1.0000
  H   H20       1.0  0.46564  0.35537  0.88053  1.0000
  H   H21       1.0  0.05267  0.08221  0.37997  1.0000
  H   H22       1.0  0.55267  0.41779  0.12003  1.0000
  H   H23       1.0  0.94733  0.91779  0.62002  1.0000
  H   H24       1.0  0.44732  0.58221  0.87997  1.0000
  H   H25       1.0  0.31690  0.61836  0.18202  1.0000
  H   H26       1.0  0.81689  0.88165  0.31799  1.0000
  H   H27       1.0  0.68312  0.38164  0.81799  1.0000
  H   H28       1.0  0.18310  0.11834  0.68201  1.0000
  H   H29       1.0  0.31880  0.39249  0.18825  1.0000
  H   H30       1.0  0.81879  0.10752  0.31175  1.0000
  H   H31       1.0  0.68122  0.60751  0.81176  1.0000
  H   H32       1.0  0.18120  0.89248  0.68825  1.0000
  H   H33       1.0  0.10866  0.46361  0.42415  1.0000
  H   H34       1.0  0.60865  0.03638  0.07585  1.0000
  H   H35       1.0  0.89134  0.53639  0.57585  1.0000
  H   H36       1.0  0.39135  0.96362  0.92415  1.0000
  H   H37       1.0  0.10292  0.69245  0.43219  1.0000
  H   H38       1.0  0.60291  0.80754  0.06782  1.0000
  H   H39       1.0  0.89708  0.30755  0.56781  1.0000
  H   H40       1.0  0.39709  0.19245  0.93218  1.0000
  C   C1        1.0  0.16152  0.26518  0.51551  1.0000
  C   C2        1.0  0.66150  0.23482  0.98449  1.0000
  C   C3        1.0  0.83848  0.73483  0.48450  1.0000
  C   C4        1.0  0.33849  0.76517  0.01550  1.0000
  C   C5        1.0  0.30690  0.29903  0.50519  1.0000
  C   C6        1.0  0.80687  0.20096  0.99480  1.0000
  C   C7        1.0  0.69311  0.70097  0.49482  1.0000
  C   C8        1.0  0.19310  0.79902  0.00520  1.0000
  C   C9        1.0  0.39137  0.33794  0.57868  1.0000
  C   C10       1.0  0.89135  0.16206  0.92131  1.0000
  C   C11       1.0  0.60864  0.66206  0.42132  1.0000
  C   C12       1.0  0.10863  0.83794  0.07869  1.0000
  C   C13       1.0  0.56724  0.34696  0.48728  1.0000
  C   C14       1.0  0.06722  0.15305  0.01271  1.0000
  C   C15       1.0  0.43277  0.65303  0.51271  1.0000
  C   C16       1.0  0.93277  0.84696  0.98729  1.0000
  C   C17       1.0  0.48583  0.30857  0.41277  1.0000
  C   C18       1.0  0.98581  0.19143  0.08722  1.0000
  C   C19       1.0  0.51417  0.69142  0.58723  1.0000
  C   C20       1.0  0.01418  0.80856  0.91277  1.0000
  C   C21       1.0  0.53792  0.28521  0.31861  1.0000
  C   C22       1.0  0.03789  0.21481  0.18138  1.0000
  C   C23       1.0  0.46208  0.71479  0.68138  1.0000
  C   C24       1.0  0.96210  0.78519  0.81861  1.0000
  C   C25       1.0  0.33446  0.98779  0.27910  1.0000
  C   C26       1.0  0.83447  0.51222  0.22090  1.0000
  C   C27       1.0  0.66554  0.01222  0.72090  1.0000
  C   C28       1.0  0.16553  0.48777  0.77910  1.0000
  C   C29       1.0  0.33305  0.86126  0.27669  1.0000
  C   C30       1.0  0.83305  0.63875  0.22331  1.0000
  C   C31       1.0  0.66696  0.13875  0.72331  1.0000
  C   C32       1.0  0.16694  0.36125  0.77669  1.0000
  C   C33       1.0  0.22409  0.80984  0.31267  1.0000
  C   C34       1.0  0.72408  0.69016  0.18734  1.0000
  C   C35       1.0  0.77592  0.19016  0.68733  1.0000
  C   C36       1.0  0.27591  0.30983  0.81266  1.0000
  C   C37       1.0  0.12146  0.89036  0.35133  1.0000
  C   C38       1.0  0.62145  0.60964  0.14868  1.0000
  C   C39       1.0  0.87855  0.10964  0.64867  1.0000
  C   C40       1.0  0.37855  0.39035  0.85132  1.0000
  C   C41       1.0  0.12971  0.01585  0.35091  1.0000
  C   C42       1.0  0.62970  0.48415  0.14909  1.0000
  C   C43       1.0  0.87030  0.98415  0.64909  1.0000
  C   C44       1.0  0.37029  0.51585  0.85091  1.0000
  C   C45       1.0  0.21671  0.67538  0.30931  1.0000
  C   C46       1.0  0.71671  0.82462  0.19070  1.0000
  C   C47       1.0  0.78330  0.32462  0.69069  1.0000
  C   C48       1.0  0.28329  0.17538  0.80931  1.0000
  C   C49       1.0  0.27396  0.58843  0.23856  1.0000
  C   C50       1.0  0.77396  0.91158  0.26145  1.0000
  C   C51       1.0  0.72605  0.41158  0.76145  1.0000
  C   C52       1.0  0.22604  0.08842  0.73855  1.0000
  C   C53       1.0  0.27303  0.46327  0.24048  1.0000
  C   C54       1.0  0.77302  0.03673  0.25952  1.0000
  C   C55       1.0  0.72699  0.53673  0.75952  1.0000
  C   C56       1.0  0.22698  0.96326  0.74048  1.0000
  C   C57       1.0  0.15555  0.50392  0.37354  1.0000
  C   C58       1.0  0.65553  0.99608  0.12646  1.0000
  C   C59       1.0  0.84446  0.49609  0.62646  1.0000
  C   C60       1.0  0.34446  0.00392  0.87354  1.0000
  C   C61       1.0  0.15302  0.63063  0.37663  1.0000
  C   C62       1.0  0.65301  0.86937  0.12338  1.0000
  C   C63       1.0  0.84699  0.36937  0.62337  1.0000
  C   C64       1.0  0.34699  0.13063  0.87662  1.0000
  N   N1        1.0  0.35549  0.28836  0.42314  1.0000
  N   N2        1.0  0.85547  0.21163  0.07685  1.0000
  N   N3        1.0  0.64451  0.71164  0.57686  1.0000
  N   N4        1.0  0.14452  0.78835  0.92315  1.0000
  N   N5        1.0  0.51988  0.36440  0.57033  1.0000
  N   N6        1.0  0.01986  0.13561  0.92966  1.0000
  N   N7        1.0  0.48013  0.63560  0.42967  1.0000
  N   N8        1.0  0.98013  0.86440  0.07034  1.0000
  N   N9        1.0  0.23433  0.06370  0.31549  1.0000
  N   N10       1.0  0.73434  0.43630  0.18450  1.0000
  N   N11       1.0  0.76567  0.93630  0.68450  1.0000
  N   N12       1.0  0.26566  0.56369  0.81550  1.0000
  N   N13       1.0  0.21723  0.42214  0.30771  1.0000
  N   N14       1.0  0.71722  0.07786  0.19229  1.0000
  N   N15       1.0  0.78278  0.57786  0.69229  1.0000
  N   N16       1.0  0.28277  0.92213  0.80771  1.0000
  O   O1        1.0  0.08262  0.28024  0.45513  1.0000
  O   O2        1.0  0.58261  0.21976  0.04488  1.0000
  O   O3        1.0  0.91738  0.71976  0.54488  1.0000
  O   O4        1.0  0.41736  0.78022  0.95510  1.0000
  O   O5        1.0  0.13744  0.22350  0.58343  1.0000
  O   O6        1.0  0.63741  0.27650  0.91657  1.0000
  O   O7        1.0  0.86257  0.77652  0.41658  1.0000
  O   O8        1.0  0.36261  0.72350  0.08343  1.0000
  O   O9        1.0  0.45893  0.24517  0.25596  1.0000
  O   O10       1.0  0.95890  0.25485  0.24404  1.0000
  O   O11       1.0  0.54107  0.75482  0.74404  1.0000
  O   O12       1.0  0.04110  0.74515  0.75596  1.0000
  O   O13       1.0  0.66257  0.30680  0.31235  1.0000
  O   O14       1.0  0.16255  0.19321  0.18764  1.0000
  O   O15       1.0  0.33742  0.69319  0.68764  1.0000
  O   O16       1.0  0.83745  0.80680  0.81235  1.0000
