data_image0
_chemical_formula_structural       Zn4H20C40N12O16
_chemical_formula_sum              "Zn4 H20 C40 N12 O16"
_cell_length_a       9.68439
_cell_length_b       10.5727
_cell_length_c       11.1571
_cell_angle_alpha    90
_cell_angle_beta     90
_cell_angle_gamma    90.0003

_space_group_name_H-M_alt    "P 1"
_space_group_IT_number       1

loop_
  _space_group_symop_operation_xyz
  'x, y, z'

loop_
  _atom_site_type_symbol
  _atom_site_label
  _atom_site_symmetry_multiplicity
  _atom_site_fract_x
  _atom_site_fract_y
  _atom_site_fract_z
  _atom_site_occupancy
  Zn  Zn1       1.0  0.14528  0.88326  0.67921  1.0000
  Zn  Zn2       1.0  0.35472  0.11674  0.17921  1.0000
  Zn  Zn3       1.0  0.85472  0.38326  0.82079  1.0000
  Zn  Zn4       1.0  0.64528  0.61674  0.32079  1.0000
  H   H1        1.0  0.69925  0.92770  0.46731  1.0000
  H   H2        1.0  0.80075  0.07230  0.96731  1.0000
  H   H3        1.0  0.30075  0.42770  0.03269  1.0000
  H   H4        1.0  0.19925  0.57230  0.53269  1.0000
  H   H5        1.0  0.66285  0.95611  0.69116  1.0000
  H   H6        1.0  0.83715  0.04389  0.19116  1.0000
  H   H7        1.0  0.33715  0.45611  0.80884  1.0000
  H   H8        1.0  0.16284  0.54389  0.30884  1.0000
  H   H9        1.0  0.42593  0.93654  0.77251  1.0000
  H   H10       1.0  0.07407  0.06346  0.27251  1.0000
  H   H11       1.0  0.57407  0.43654  0.72749  1.0000
  H   H12       1.0  0.92593  0.56346  0.22749  1.0000
  H   H13       1.0  0.25889  0.87200  0.43515  1.0000
  H   H14       1.0  0.24111  0.12800  0.93515  1.0000
  H   H15       1.0  0.74111  0.37200  0.06485  1.0000
  H   H16       1.0  0.75889  0.62800  0.56485  1.0000
  H   H17       1.0  0.66551  0.83980  0.93679  1.0000
  H   H18       1.0  0.83449  0.16020  0.43679  1.0000
  H   H19       1.0  0.33449  0.33980  0.56321  1.0000
  H   H20       1.0  0.16551  0.66020  0.06321  1.0000
  C   C1        1.0  0.68941  0.72283  0.07163  1.0000
  C   C2        1.0  0.81059  0.27717  0.57164  1.0000
  C   C3        1.0  0.31059  0.22284  0.42837  1.0000
  C   C4        1.0  0.18941  0.77717  0.92836  1.0000
  C   C5        1.0  0.60502  0.81017  0.14284  1.0000
  C   C6        1.0  0.89498  0.18983  0.64284  1.0000
  C   C7        1.0  0.39497  0.31017  0.35716  1.0000
  C   C8        1.0  0.10503  0.68983  0.85716  1.0000
  C   C9        1.0  0.53454  0.92081  0.11531  1.0000
  C   C10       1.0  0.96546  0.07919  0.61531  1.0000
  C   C11       1.0  0.46546  0.42081  0.38469  1.0000
  C   C12       1.0  0.03454  0.57919  0.88469  1.0000
  C   C13       1.0  0.53040  0.99811  0.00519  1.0000
  C   C14       1.0  0.96960  0.00189  0.50519  1.0000
  C   C15       1.0  0.46959  0.49810  0.49481  1.0000
  C   C16       1.0  0.03040  0.50190  0.99481  1.0000
  C   C17       1.0  0.50495  0.88026  0.30514  1.0000
  C   C18       1.0  0.99505  0.11974  0.80514  1.0000
  C   C19       1.0  0.49505  0.38026  0.19486  1.0000
  C   C20       1.0  0.00495  0.61974  0.69486  1.0000
  C   C21       1.0  0.48196  0.89691  0.43462  1.0000
  C   C22       1.0  0.01804  0.10309  0.93462  1.0000
  C   C23       1.0  0.51804  0.39691  0.06538  1.0000
  C   C24       1.0  0.98196  0.60309  0.56538  1.0000
  C   C25       1.0  0.59699  0.91990  0.50779  1.0000
  C   C26       1.0  0.90301  0.08010  0.00779  1.0000
  C   C27       1.0  0.40301  0.41990  0.99220  1.0000
  C   C28       1.0  0.09699  0.58010  0.49221  1.0000
  C   C29       1.0  0.57776  0.93570  0.63040  1.0000
  C   C30       1.0  0.92224  0.06430  0.13040  1.0000
  C   C31       1.0  0.42224  0.43570  0.86960  1.0000
  C   C32       1.0  0.07776  0.56430  0.36960  1.0000
  C   C33       1.0  0.44520  0.92588  0.67704  1.0000
  C   C34       1.0  0.05480  0.07412  0.17704  1.0000
  C   C35       1.0  0.55480  0.42588  0.82296  1.0000
  C   C36       1.0  0.94520  0.57412  0.32296  1.0000
  C   C37       1.0  0.35197  0.88897  0.48753  1.0000
  C   C38       1.0  0.14803  0.11103  0.98753  1.0000
  C   C39       1.0  0.64803  0.38897  0.01247  1.0000
  C   C40       1.0  0.85197  0.61103  0.51248  1.0000
  N   N1        1.0  0.58511  0.78586  0.26239  1.0000
  N   N2        1.0  0.91489  0.21414  0.76239  1.0000
  N   N3        1.0  0.41489  0.28586  0.23761  1.0000
  N   N4        1.0  0.08511  0.71414  0.73761  1.0000
  N   N5        1.0  0.47057  0.96309  0.21745  1.0000
  N   N6        1.0  0.02943  0.03691  0.71744  1.0000
  N   N7        1.0  0.52943  0.46309  0.28256  1.0000
  N   N8        1.0  0.97057  0.53691  0.78256  1.0000
  N   N9        1.0  0.33484  0.90216  0.60675  1.0000
  N   N10       1.0  0.16516  0.09784  0.10675  1.0000
  N   N11       1.0  0.66516  0.40216  0.89325  1.0000
  N   N12       1.0  0.83484  0.59784  0.39325  1.0000
  O   O1        1.0  0.73621  0.62539  0.12018  1.0000
  O   O2        1.0  0.76380  0.37461  0.62018  1.0000
  O   O3        1.0  0.26379  0.12538  0.37981  1.0000
  O   O4        1.0  0.23621  0.87462  0.87982  1.0000
  O   O5        1.0  0.71269  0.75090  0.95855  1.0000
  O   O6        1.0  0.78731  0.24911  0.45855  1.0000
  O   O7        1.0  0.28731  0.25089  0.54144  1.0000
  O   O8        1.0  0.21269  0.74911  0.04145  1.0000
  O   O9        1.0  0.60145  0.96090  0.91527  1.0000
  O   O10       1.0  0.89855  0.03910  0.41527  1.0000
  O   O11       1.0  0.39855  0.46090  0.58473  1.0000
  O   O12       1.0  0.10145  0.53910  0.08473  1.0000
  O   O13       1.0  0.46063  0.09998  0.00942  1.0000
  O   O14       1.0  0.03937  0.90002  0.50942  1.0000
  O   O15       1.0  0.53937  0.59998  0.49058  1.0000
  O   O16       1.0  0.96063  0.40002  0.99058  1.0000
