data_image0
_chemical_formula_structural       Cu3H24C34N4O12
_chemical_formula_sum              "Cu3 H24 C34 N4 O12"
_cell_length_a       8.08154
_cell_length_b       8.99145
_cell_length_c       11.5008
_cell_angle_alpha    80.2038
_cell_angle_beta     74.6718
_cell_angle_gamma    76.8568

_space_group_name_H-M_alt    "P 1"
_space_group_IT_number       1

loop_
  _space_group_symop_operation_xyz
  'x, y, z'

loop_
  _atom_site_type_symbol
  _atom_site_label
  _atom_site_symmetry_multiplicity
  _atom_site_fract_x
  _atom_site_fract_y
  _atom_site_fract_z
  _atom_site_occupancy
  Cu  Cu1       1.0  0.00000  0.99999  0.50001  1.0000
  Cu  Cu2       1.0  0.61481  0.84637  0.57678  1.0000
  Cu  Cu3       1.0  0.38520  0.15362  0.42322  1.0000
  H   H1        1.0  0.74478  0.99517  0.67011  1.0000
  H   H2        1.0  0.25523  0.00481  0.32990  1.0000
  H   H3        1.0  0.19068  0.73055  0.95449  1.0000
  H   H4        1.0  0.80931  0.26946  0.04552  1.0000
  H   H5        1.0  0.42808  0.70706  0.23004  1.0000
  H   H6        1.0  0.57192  0.29295  0.76995  1.0000
  H   H7        1.0  0.15049  0.75560  0.17187  1.0000
  H   H8        1.0  0.84950  0.24441  0.82814  1.0000
  H   H9        1.0  0.38546  0.31714  0.17536  1.0000
  H   H10       1.0  0.61454  0.68287  0.82463  1.0000
  H   H11       1.0  0.48126  0.24031  0.96821  1.0000
  H   H12       1.0  0.51874  0.75970  0.03178  1.0000
  H   H13       1.0  0.93845  0.83515  0.85481  1.0000
  H   H14       1.0  0.06154  0.16486  0.14519  1.0000
  H   H15       1.0  0.65153  0.94484  0.97702  1.0000
  H   H16       1.0  0.34846  0.05517  0.02298  1.0000
  H   H17       1.0  0.53636  0.70612  0.38418  1.0000
  H   H18       1.0  0.46366  0.29388  0.61582  1.0000
  H   H19       1.0  0.07776  0.50760  0.55038  1.0000
  H   H20       1.0  0.92225  0.49241  0.44960  1.0000
  H   H21       1.0  0.28980  0.76505  0.74011  1.0000
  H   H22       1.0  0.71020  0.23494  0.25989  1.0000
  H   H23       1.0  0.06072  0.61644  0.73989  1.0000
  H   H24       1.0  0.93928  0.38356  0.26009  1.0000
  C   C1        1.0  0.06226  0.78004  0.00679  1.0000
  C   C2        1.0  0.93773  0.21997  0.99321  1.0000
  C   C3        1.0  0.04043  0.79261  0.12941  1.0000
  C   C4        1.0  0.95956  0.20741  0.87059  1.0000
  C   C5        1.0  0.43545  0.39729  0.09955  1.0000
  C   C6        1.0  0.56455  0.60272  0.90045  1.0000
  C   C7        1.0  0.48868  0.35467  0.98291  1.0000
  C   C8        1.0  0.51131  0.64534  0.01709  1.0000
  C   C9        1.0  0.92193  0.83549  0.95200  1.0000
  C   C10       1.0  0.07806  0.16452  0.04800  1.0000
  C   C11       1.0  0.55559  0.96841  0.21722  1.0000
  C   C12       1.0  0.44440  0.03159  0.78278  1.0000
  C   C13       1.0  0.75866  0.89662  0.02156  1.0000
  C   C14       1.0  0.24133  0.10340  0.97844  1.0000
  C   C15       1.0  0.42540  0.68671  0.45866  1.0000
  C   C16       1.0  0.57461  0.31329  0.54134  1.0000
  C   C17       1.0  0.73366  0.90314  0.14578  1.0000
  C   C18       1.0  0.26633  0.09686  0.85422  1.0000
  C   C19       1.0  0.31594  0.53233  0.33885  1.0000
  C   C20       1.0  0.68408  0.46767  0.66115  1.0000
  C   C21       1.0  0.17117  0.57599  0.55292  1.0000
  C   C22       1.0  0.82885  0.42401  0.44707  1.0000
  C   C23       1.0  0.87761  0.85444  0.19972  1.0000
  C   C24       1.0  0.12238  0.14558  0.80028  1.0000
  C   C25       1.0  0.86066  0.86640  0.33137  1.0000
  C   C26       1.0  0.13933  0.13361  0.66863  1.0000
  C   C27       1.0  0.30269  0.60437  0.44969  1.0000
  C   C28       1.0  0.69732  0.39563  0.55030  1.0000
  C   C29       1.0  0.44776  0.54448  0.11785  1.0000
  C   C30       1.0  0.55224  0.45552  0.88214  1.0000
  C   C31       1.0  0.28969  0.71612  0.66002  1.0000
  C   C32       1.0  0.71032  0.28387  0.33999  1.0000
  C   C33       1.0  0.16337  0.63449  0.65878  1.0000
  C   C34       1.0  0.83664  0.36550  0.34121  1.0000
  N   N1        1.0  0.41982  0.74106  0.56190  1.0000
  N   N2        1.0  0.58020  0.25893  0.43811  1.0000
  N   N3        1.0  0.40517  0.59782  0.23211  1.0000
  N   N4        1.0  0.59483  0.40219  0.76789  1.0000
  O   O1        1.0  0.79240  0.93956  0.59736  1.0000
  O   O2        1.0  0.20762  0.06038  0.40267  1.0000
  O   O3        1.0  0.97608  0.92657  0.35337  1.0000
  O   O4        1.0  0.02391  0.07344  0.64664  1.0000
  O   O5        1.0  0.73630  0.81220  0.40709  1.0000
  O   O6        1.0  0.26369  0.18782  0.59291  1.0000
  O   O7        1.0  0.55053  0.07886  0.27639  1.0000
  O   O8        1.0  0.44947  0.92115  0.72361  1.0000
  O   O9        1.0  0.42533  0.91535  0.21336  1.0000
  O   O10       1.0  0.57466  0.08466  0.78663  1.0000
  O   O11       1.0  0.24966  0.41694  0.34806  1.0000
  O   O12       1.0  0.75035  0.58306  0.65194  1.0000
