data_image0
_chemical_formula_structural       Zn2H18C18N2O10
_chemical_formula_sum              "Zn2 H18 C18 N2 O10"
_cell_length_a       7.46458
_cell_length_b       7.92138
_cell_length_c       9.78029
_cell_angle_alpha    78.8435
_cell_angle_beta     74.2015
_cell_angle_gamma    63.2658

_space_group_name_H-M_alt    "P 1"
_space_group_IT_number       1

loop_
  _space_group_symop_operation_xyz
  'x, y, z'

loop_
  _atom_site_type_symbol
  _atom_site_label
  _atom_site_symmetry_multiplicity
  _atom_site_fract_x
  _atom_site_fract_y
  _atom_site_fract_z
  _atom_site_occupancy
  Zn  Zn1       1.0  0.10574  0.14636  0.43442  1.0000
  Zn  Zn2       1.0  0.89426  0.85364  0.56558  1.0000
  H   H1        1.0  0.82109  0.49921  0.46368  1.0000
  H   H2        1.0  0.17890  0.50079  0.53632  1.0000
  H   H3        1.0  0.73925  0.37377  0.40507  1.0000
  H   H4        1.0  0.26075  0.62623  0.59493  1.0000
  H   H5        1.0  0.62076  0.50304  0.16155  1.0000
  H   H6        1.0  0.37924  0.49696  0.83845  1.0000
  H   H7        1.0  0.87146  0.48514  0.09794  1.0000
  H   H8        1.0  0.12853  0.51486  0.90206  1.0000
  H   H9        1.0  0.33615  0.79541  0.26307  1.0000
  H   H10       1.0  0.66385  0.20459  0.73693  1.0000
  H   H11       1.0  0.95328  0.75442  0.11769  1.0000
  H   H12       1.0  0.04672  0.24558  0.88231  1.0000
  H   H13       1.0  0.70945  0.51580  0.89475  1.0000
  H   H14       1.0  0.29055  0.48420  0.10525  1.0000
  H   H15       1.0  0.76143  0.71692  0.88610  1.0000
  H   H16       1.0  0.23857  0.28308  0.11390  1.0000
  H   H17       1.0  0.50688  0.73445  0.95142  1.0000
  H   H18       1.0  0.49312  0.26555  0.04857  1.0000
  C   C1        1.0  0.70986  0.58223  0.10063  1.0000
  C   C2        1.0  0.29014  0.41777  0.89937  1.0000
  C   C3        1.0  0.65452  0.75052  0.17817  1.0000
  C   C4        1.0  0.34548  0.24948  0.82183  1.0000
  C   C5        1.0  0.45386  0.84483  0.25447  1.0000
  C   C6        1.0  0.54614  0.15517  0.74553  1.0000
  C   C7        1.0  0.73704  0.97902  0.25126  1.0000
  C   C8        1.0  0.26297  0.02097  0.74874  1.0000
  C   C9        1.0  0.79571  0.82161  0.17708  1.0000
  C   C10       1.0  0.20429  0.17839  0.82292  1.0000
  C   C11       1.0  0.44308  0.24924  0.39264  1.0000
  C   C12       1.0  0.55691  0.75076  0.60736  1.0000
  C   C13       1.0  0.53113  0.06845  0.32041  1.0000
  C   C14       1.0  0.46887  0.93155  0.67959  1.0000
  C   C15       1.0  0.66975  0.64102  0.94913  1.0000
  C   C16       1.0  0.33025  0.35898  0.05087  1.0000
  C   C17       1.0  0.89849  0.04210  0.25509  1.0000
  C   C18       1.0  0.10152  0.95790  0.74490  1.0000
  N   N1        1.0  0.39514  0.99944  0.32106  1.0000
  N   N2        1.0  0.60486  0.00056  0.67894  1.0000
  O   O1        1.0  0.55132  0.33577  0.38163  1.0000
  O   O2        1.0  0.44868  0.66424  0.61836  1.0000
  O   O3        1.0  0.86388  0.38687  0.40920  1.0000
  O   O4        1.0  0.13612  0.61313  0.59080  1.0000
  O   O5        1.0  0.25381  0.30661  0.45998  1.0000
  O   O6        1.0  0.74619  0.69340  0.54002  1.0000
  O   O7        1.0  0.96458  0.99245  0.37536  1.0000
  O   O8        1.0  0.03542  0.00755  0.62464  1.0000
  O   O9        1.0  0.97021  0.12279  0.14936  1.0000
  O   O10       1.0  0.02979  0.87719  0.85064  1.0000
