data_image0
_chemical_formula_structural       Ag4H36C36N8O28
_chemical_formula_sum              "Ag4 H36 C36 N8 O28"
_cell_length_a       7.67916
_cell_length_b       9.97772
_cell_length_c       15.3381
_cell_angle_alpha    90.0001
_cell_angle_beta     90.0001
_cell_angle_gamma    95.015

_space_group_name_H-M_alt    "P 1"
_space_group_IT_number       1

loop_
  _space_group_symop_operation_xyz
  'x, y, z'

loop_
  _atom_site_type_symbol
  _atom_site_label
  _atom_site_symmetry_multiplicity
  _atom_site_fract_x
  _atom_site_fract_y
  _atom_site_fract_z
  _atom_site_occupancy
  Ag  Ag1       1.0  0.93849  0.85774  0.64813  1.0000
  Ag  Ag2       1.0  0.56152  0.14225  0.14813  1.0000
  Ag  Ag3       1.0  0.06152  0.14225  0.35187  1.0000
  Ag  Ag4       1.0  0.43848  0.85774  0.85187  1.0000
  H   H1        1.0  0.62345  0.22202  0.46294  1.0000
  H   H2        1.0  0.87655  0.77799  0.96294  1.0000
  H   H3        1.0  0.37654  0.77798  0.53706  1.0000
  H   H4        1.0  0.12345  0.22202  0.03706  1.0000
  H   H5        1.0  0.66112  0.84278  0.33313  1.0000
  H   H6        1.0  0.83889  0.15722  0.83313  1.0000
  H   H7        1.0  0.33888  0.15723  0.66687  1.0000
  H   H8        1.0  0.16112  0.84278  0.16687  1.0000
  H   H9        1.0  0.92884  0.50155  0.39864  1.0000
  H   H10       1.0  0.57116  0.49846  0.89864  1.0000
  H   H11       1.0  0.07116  0.49845  0.60136  1.0000
  H   H12       1.0  0.42884  0.50155  0.10136  1.0000
  H   H13       1.0  0.70642  0.45112  0.36680  1.0000
  H   H14       1.0  0.79358  0.54888  0.86680  1.0000
  H   H15       1.0  0.29358  0.54888  0.63320  1.0000
  H   H16       1.0  0.20642  0.45112  0.13320  1.0000
  H   H17       1.0  0.76792  0.46299  0.48084  1.0000
  H   H18       1.0  0.73208  0.53701  0.98084  1.0000
  H   H19       1.0  0.23208  0.53701  0.51916  1.0000
  H   H20       1.0  0.26792  0.46299  0.01916  1.0000
  H   H21       1.0  0.56654  0.07587  0.33080  1.0000
  H   H22       1.0  0.93346  0.92414  0.83080  1.0000
  H   H23       1.0  0.43346  0.92414  0.66920  1.0000
  H   H24       1.0  0.06654  0.07586  0.16920  1.0000
  H   H25       1.0  0.85392  0.37912  0.70048  1.0000
  H   H26       1.0  0.64608  0.62088  0.20048  1.0000
  H   H27       1.0  0.14608  0.62088  0.29952  1.0000
  H   H28       1.0  0.35392  0.37912  0.79952  1.0000
  H   H29       1.0  0.65635  0.29600  0.74422  1.0000
  H   H30       1.0  0.84365  0.70400  0.24422  1.0000
  H   H31       1.0  0.34365  0.70401  0.25578  1.0000
  H   H32       1.0  0.15635  0.29600  0.75578  1.0000
  H   H33       1.0  0.64675  0.43699  0.67092  1.0000
  H   H34       1.0  0.85326  0.56301  0.17091  1.0000
  H   H35       1.0  0.35325  0.56301  0.32909  1.0000
  H   H36       1.0  0.14675  0.43699  0.82909  1.0000
  C   C1        1.0  0.78621  0.15254  0.61294  1.0000
  C   C2        1.0  0.71379  0.84746  0.11294  1.0000
  C   C3        1.0  0.21379  0.84746  0.38706  1.0000
  C   C4        1.0  0.28621  0.15254  0.88706  1.0000
  C   C5        1.0  0.66502  0.12075  0.46056  1.0000
  C   C6        1.0  0.83498  0.87925  0.96055  1.0000
  C   C7        1.0  0.33498  0.87925  0.53945  1.0000
  C   C8        1.0  0.16502  0.12075  0.03945  1.0000
  C   C9        1.0  0.68515  0.90924  0.38880  1.0000
  C   C10       1.0  0.81485  0.09076  0.88880  1.0000
  C   C11       1.0  0.31485  0.09076  0.61120  1.0000
  C   C12       1.0  0.18515  0.90924  0.11120  1.0000
  C   C13       1.0  0.83251  0.72770  0.46680  1.0000
  C   C14       1.0  0.66749  0.27230  0.96680  1.0000
  C   C15       1.0  0.16749  0.27230  0.53320  1.0000
  C   C16       1.0  0.33251  0.72770  0.03320  1.0000
  C   C17       1.0  0.77012  0.86576  0.46270  1.0000
  C   C18       1.0  0.72987  0.13424  0.96270  1.0000
  C   C19       1.0  0.22987  0.13424  0.53730  1.0000
  C   C20       1.0  0.27012  0.86576  0.03730  1.0000
  C   C21       1.0  0.75074  0.06957  0.53214  1.0000
  C   C22       1.0  0.74926  0.93042  0.03214  1.0000
  C   C23       1.0  0.24926  0.93042  0.46787  1.0000
  C   C24       1.0  0.25074  0.06957  0.96786  1.0000
  C   C25       1.0  0.79063  0.50442  0.41527  1.0000
  C   C26       1.0  0.70937  0.49558  0.91527  1.0000
  C   C27       1.0  0.20938  0.49558  0.58473  1.0000
  C   C28       1.0  0.29063  0.50442  0.08473  1.0000
  C   C29       1.0  0.63325  0.03941  0.38756  1.0000
  C   C30       1.0  0.86675  0.96060  0.88756  1.0000
  C   C31       1.0  0.36674  0.96059  0.61244  1.0000
  C   C32       1.0  0.13325  0.03941  0.11244  1.0000
  C   C33       1.0  0.71572  0.34921  0.68755  1.0000
  C   C34       1.0  0.78429  0.65079  0.18755  1.0000
  C   C35       1.0  0.28429  0.65079  0.31245  1.0000
  C   C36       1.0  0.21572  0.34921  0.81245  1.0000
  N   N1        1.0  0.80453  0.94489  0.53279  1.0000
  N   N2        1.0  0.69547  0.05511  0.03279  1.0000
  N   N3        1.0  0.19547  0.05511  0.46721  1.0000
  N   N4        1.0  0.30453  0.94489  0.96721  1.0000
  N   N5        1.0  0.06890  0.69831  0.79146  1.0000
  N   N6        1.0  0.43110  0.30169  0.29146  1.0000
  N   N7        1.0  0.93110  0.30169  0.20854  1.0000
  N   N8        1.0  0.56890  0.69832  0.70854  1.0000
  O   O1        1.0  0.12731  0.66867  0.86452  1.0000
  O   O2        1.0  0.37269  0.33133  0.36452  1.0000
  O   O3        1.0  0.87269  0.33133  0.13548  1.0000
  O   O4        1.0  0.62730  0.66867  0.63548  1.0000
  O   O5        1.0  0.95403  0.69812  0.51288  1.0000
  O   O6        1.0  0.54596  0.30188  0.01288  1.0000
  O   O7        1.0  0.04596  0.30188  0.48712  1.0000
  O   O8        1.0  0.45404  0.69812  0.98712  1.0000
  O   O9        1.0  0.12208  0.81504  0.75740  1.0000
  O   O10       1.0  0.37793  0.18496  0.25740  1.0000
  O   O11       1.0  0.87793  0.18496  0.24260  1.0000
  O   O12       1.0  0.62208  0.81504  0.74260  1.0000
  O   O13       1.0  0.74145  0.64208  0.41334  1.0000
  O   O14       1.0  0.75855  0.35792  0.91334  1.0000
  O   O15       1.0  0.25855  0.35792  0.58665  1.0000
  O   O16       1.0  0.24145  0.64208  0.08665  1.0000
  O   O17       1.0  0.96036  0.62135  0.75003  1.0000
  O   O18       1.0  0.53964  0.37866  0.25002  1.0000
  O   O19       1.0  0.03964  0.37866  0.24997  1.0000
  O   O20       1.0  0.46036  0.62135  0.74997  1.0000
  O   O21       1.0  0.88317  0.12370  0.67251  1.0000
  O   O22       1.0  0.61683  0.87630  0.17251  1.0000
  O   O23       1.0  0.11683  0.87629  0.32749  1.0000
  O   O24       1.0  0.38317  0.12370  0.82749  1.0000
  O   O25       1.0  0.69698  0.26192  0.61177  1.0000
  O   O26       1.0  0.80302  0.73808  0.11176  1.0000
  O   O27       1.0  0.30302  0.73808  0.38824  1.0000
  O   O28       1.0  0.19698  0.26192  0.88824  1.0000
