data_image0
_chemical_formula_structural       Cu4H12C28N12O4
_chemical_formula_sum              "Cu4 H12 C28 N12 O4"
_cell_length_a       7.8093
_cell_length_b       7.80934
_cell_length_c       12.6685
_cell_angle_alpha    104.345
_cell_angle_beta     104.346
_cell_angle_gamma    95.0745

_space_group_name_H-M_alt    "P 1"
_space_group_IT_number       1

loop_
  _space_group_symop_operation_xyz
  'x, y, z'

loop_
  _atom_site_type_symbol
  _atom_site_label
  _atom_site_symmetry_multiplicity
  _atom_site_fract_x
  _atom_site_fract_y
  _atom_site_fract_z
  _atom_site_occupancy
  Cu  Cu1       1.0  0.31502  0.71692  0.37913  1.0000
  Cu  Cu2       1.0  0.28309  0.68498  0.12087  1.0000
  Cu  Cu3       1.0  0.68498  0.28309  0.62088  1.0000
  Cu  Cu4       1.0  0.71692  0.31501  0.87912  1.0000
  H   H1        1.0  0.71841  0.77783  0.41992  1.0000
  H   H2        1.0  0.22217  0.28158  0.08008  1.0000
  H   H3        1.0  0.28159  0.22218  0.58008  1.0000
  H   H4        1.0  0.77782  0.71840  0.91992  1.0000
  H   H5        1.0  0.83713  0.87479  0.56591  1.0000
  H   H6        1.0  0.12520  0.16286  0.93409  1.0000
  H   H7        1.0  0.16286  0.12522  0.43409  1.0000
  H   H8        1.0  0.87479  0.83713  0.06591  1.0000
  H   H9        1.0  0.76581  0.63758  0.51372  1.0000
  H   H10       1.0  0.36242  0.23419  0.98628  1.0000
  H   H11       1.0  0.23419  0.36243  0.48628  1.0000
  H   H12       1.0  0.63758  0.76580  0.01372  1.0000
  C   C1        1.0  0.81492  0.06567  0.27076  1.0000
  C   C2        1.0  0.93430  0.18506  0.22923  1.0000
  C   C3        1.0  0.18507  0.93433  0.72924  1.0000
  C   C4        1.0  0.06569  0.81493  0.77077  1.0000
  C   C5        1.0  0.69250  0.20156  0.27222  1.0000
  C   C6        1.0  0.79844  0.30749  0.22777  1.0000
  C   C7        1.0  0.30750  0.79845  0.72778  1.0000
  C   C8        1.0  0.20157  0.69251  0.77223  1.0000
  C   C9        1.0  0.53790  0.21033  0.31180  1.0000
  C   C10       1.0  0.78969  0.46210  0.18820  1.0000
  C   C11       1.0  0.46210  0.78968  0.68820  1.0000
  C   C12       1.0  0.21032  0.53790  0.81179  1.0000
  C   C13       1.0  0.46486  0.05947  0.33672  1.0000
  C   C14       1.0  0.94055  0.53513  0.16328  1.0000
  C   C15       1.0  0.53514  0.94055  0.66328  1.0000
  C   C16       1.0  0.05946  0.46486  0.83672  1.0000
  C   C17       1.0  0.46369  0.36724  0.33493  1.0000
  C   C18       1.0  0.63277  0.53631  0.16507  1.0000
  C   C19       1.0  0.53631  0.63276  0.66507  1.0000
  C   C20       1.0  0.36724  0.46369  0.83493  1.0000
  C   C21       1.0  0.98187  0.73758  0.46415  1.0000
  C   C22       1.0  0.26242  0.01814  0.03585  1.0000
  C   C23       1.0  0.01814  0.26244  0.53585  1.0000
  C   C24       1.0  0.73757  0.98185  0.96415  1.0000
  C   C25       1.0  0.81618  0.75704  0.49277  1.0000
  C   C26       1.0  0.24296  0.18382  0.00723  1.0000
  C   C27       1.0  0.18382  0.24297  0.50723  1.0000
  C   C28       1.0  0.75704  0.81617  0.99276  1.0000
  N   N1        1.0  0.11562  0.72424  0.44038  1.0000
  N   N2        1.0  0.27576  0.88439  0.05962  1.0000
  N   N3        1.0  0.88438  0.27577  0.55963  1.0000
  N   N4        1.0  0.72423  0.11561  0.94037  1.0000
  N   N5        1.0  0.40576  0.92863  0.35378  1.0000
  N   N6        1.0  0.07139  0.59423  0.14622  1.0000
  N   N7        1.0  0.59424  0.07138  0.64622  1.0000
  N   N8        1.0  0.92862  0.40576  0.85378  1.0000
  N   N9        1.0  0.40909  0.50294  0.35735  1.0000
  N   N10       1.0  0.49708  0.59092  0.14265  1.0000
  N   N11       1.0  0.59092  0.49707  0.64265  1.0000
  N   N12       1.0  0.50294  0.40907  0.85735  1.0000
  O   O1        1.0  0.81669  0.92085  0.29221  1.0000
  O   O2        1.0  0.07916  0.18328  0.20779  1.0000
  O   O3        1.0  0.18330  0.07915  0.70779  1.0000
  O   O4        1.0  0.92085  0.81671  0.79222  1.0000
