data_image0
_chemical_formula_structural       Sm2H32C48N4O14
_chemical_formula_sum              "Sm2 H32 C48 N4 O14"
_cell_length_a       10.2143
_cell_length_b       10.8416
_cell_length_c       11.3847
_cell_angle_alpha    107.64
_cell_angle_beta     92.853
_cell_angle_gamma    111.825

_space_group_name_H-M_alt    "P 1"
_space_group_IT_number       1

loop_
  _space_group_symop_operation_xyz
  'x, y, z'

loop_
  _atom_site_type_symbol
  _atom_site_label
  _atom_site_symmetry_multiplicity
  _atom_site_fract_x
  _atom_site_fract_y
  _atom_site_fract_z
  _atom_site_occupancy
  Sm  Sm1       1.0  0.58611  0.49614  0.32609  1.0000
  Sm  Sm2       1.0  0.41388  0.50386  0.67391  1.0000
  H   H1        1.0  0.39828  0.42984  0.06650  1.0000
  H   H2        1.0  0.60172  0.57016  0.93350  1.0000
  H   H3        1.0  0.53422  0.57797  0.11089  1.0000
  H   H4        1.0  0.46578  0.42203  0.88911  1.0000
  H   H5        1.0  0.97393  0.86354  0.39571  1.0000
  H   H6        1.0  0.02607  0.13646  0.60430  1.0000
  H   H7        1.0  0.84755  0.93920  0.06783  1.0000
  H   H8        1.0  0.15245  0.06081  0.93218  1.0000
  H   H9        1.0  0.62079  0.08169  0.33649  1.0000
  H   H10       1.0  0.37921  0.91831  0.66351  1.0000
  H   H11       1.0  0.42608  0.16311  0.65990  1.0000
  H   H12       1.0  0.57392  0.83689  0.34010  1.0000
  H   H13       1.0  0.18682  0.09648  0.46553  1.0000
  H   H14       1.0  0.81318  0.90352  0.53448  1.0000
  H   H15       1.0  0.06439  0.16792  0.13292  1.0000
  H   H16       1.0  0.93560  0.83208  0.86708  1.0000
  H   H17       1.0  0.39594  0.20042  0.07038  1.0000
  H   H18       1.0  0.60406  0.79957  0.92962  1.0000
  H   H19       1.0  0.41494  0.04537  0.86467  1.0000
  H   H20       1.0  0.58506  0.95463  0.13533  1.0000
  H   H21       1.0  0.65950  0.08080  0.81173  1.0000
  H   H22       1.0  0.34050  0.91920  0.18827  1.0000
  H   H23       1.0  0.92654  0.21108  0.87947  1.0000
  H   H24       1.0  0.07347  0.78892  0.12054  1.0000
  H   H25       1.0  0.13706  0.38523  0.04417  1.0000
  H   H26       1.0  0.86294  0.61478  0.95584  1.0000
  H   H27       1.0  0.23656  0.55984  0.26446  1.0000
  H   H28       1.0  0.76344  0.44017  0.73554  1.0000
  H   H29       1.0  0.18618  0.68824  0.46968  1.0000
  H   H30       1.0  0.81382  0.31176  0.53032  1.0000
  H   H31       1.0  0.93253  0.64651  0.49180  1.0000
  H   H32       1.0  0.06747  0.35349  0.50819  1.0000
  C   C1        1.0  0.76596  0.75143  0.19401  1.0000
  C   C2        1.0  0.23404  0.24857  0.80599  1.0000
  C   C3        1.0  0.89633  0.88846  0.22928  1.0000
  C   C4        1.0  0.10367  0.11154  0.77072  1.0000
  C   C5        1.0  0.99398  0.93204  0.33984  1.0000
  C   C6        1.0  0.00603  0.06797  0.66016  1.0000
  C   C7        1.0  0.92239  0.97409  0.15470  1.0000
  C   C8        1.0  0.07761  0.02591  0.84530  1.0000
  C   C9        1.0  0.55122  0.27946  0.49544  1.0000
  C   C10       1.0  0.44878  0.72054  0.50456  1.0000
  C   C11       1.0  0.52540  0.13482  0.49753  1.0000
  C   C12       1.0  0.47460  0.86517  0.50247  1.0000
  C   C13       1.0  0.56771  0.04401  0.40725  1.0000
  C   C14       1.0  0.43229  0.95599  0.59275  1.0000
  C   C15       1.0  0.45767  0.09040  0.59059  1.0000
  C   C16       1.0  0.54233  0.90960  0.40941  1.0000
  C   C17       1.0  0.26694  0.28576  0.34742  1.0000
  C   C18       1.0  0.73306  0.71424  0.65258  1.0000
  C   C19       1.0  0.13773  0.14719  0.30417  1.0000
  C   C20       1.0  0.86227  0.85281  0.69583  1.0000
  C   C21       1.0  0.11266  0.06107  0.37811  1.0000
  C   C22       1.0  0.88734  0.93893  0.62189  1.0000
  C   C23       1.0  0.04339  0.10166  0.19104  1.0000
  C   C24       1.0  0.95661  0.89833  0.80896  1.0000
  C   C25       1.0  0.50041  0.21098  0.04572  1.0000
  C   C26       1.0  0.49959  0.78901  0.95428  1.0000
  C   C27       1.0  0.51221  0.12484  0.93003  1.0000
  C   C28       1.0  0.48779  0.87515  0.06997  1.0000
  C   C29       1.0  0.64663  0.14446  0.90147  1.0000
  C   C30       1.0  0.35337  0.85553  0.09853  1.0000
  C   C31       1.0  0.76946  0.24786  0.99076  1.0000
  C   C32       1.0  0.23054  0.75215  0.00924  1.0000
  C   C33       1.0  0.74731  0.32799  0.10639  1.0000
  C   C34       1.0  0.25269  0.67201  0.89361  1.0000
  C   C35       1.0  0.91248  0.27255  0.96956  1.0000
  C   C36       1.0  0.08752  0.72746  0.03044  1.0000
  C   C37       1.0  0.02845  0.36875  0.06043  1.0000
  C   C38       1.0  0.97155  0.63125  0.93957  1.0000
  C   C39       1.0  0.01019  0.44783  0.17974  1.0000
  C   C40       1.0  0.98981  0.55217  0.82026  1.0000
  C   C41       1.0  0.86951  0.42897  0.20288  1.0000
  C   C42       1.0  0.13049  0.57103  0.79712  1.0000
  C   C43       1.0  0.12713  0.54402  0.27797  1.0000
  C   C44       1.0  0.87287  0.45597  0.72203  1.0000
  C   C45       1.0  0.09994  0.61481  0.39081  1.0000
  C   C46       1.0  0.90006  0.38520  0.60919  1.0000
  C   C47       1.0  0.95749  0.59086  0.40461  1.0000
  C   C48       1.0  0.04251  0.40914  0.59539  1.0000
  N   N1        1.0  0.61379  0.31087  0.13075  1.0000
  N   N2        1.0  0.38621  0.68913  0.86925  1.0000
  N   N3        1.0  0.84515  0.50103  0.31395  1.0000
  N   N4        1.0  0.15485  0.49897  0.68605  1.0000
  O   O1        1.0  0.68875  0.70097  0.08557  1.0000
  O   O2        1.0  0.31125  0.29903  0.91444  1.0000
  O   O3        1.0  0.73912  0.69465  0.27811  1.0000
  O   O4        1.0  0.26088  0.30535  0.72190  1.0000
  O   O5        1.0  0.58668  0.30798  0.39831  1.0000
  O   O6        1.0  0.41332  0.69201  0.60168  1.0000
  O   O7        1.0  0.53639  0.36491  0.59307  1.0000
  O   O8        1.0  0.46361  0.63509  0.40692  1.0000
  O   O9        1.0  0.34133  0.31766  0.26653  1.0000
  O   O10       1.0  0.65867  0.68234  0.73347  1.0000
  O   O11       1.0  0.29492  0.36103  0.46325  1.0000
  O   O12       1.0  0.70509  0.63898  0.53674  1.0000
  O   O13       1.0  0.46006  0.51030  0.14109  1.0000
  O   O14       1.0  0.53994  0.48970  0.85891  1.0000
