data_image0
_chemical_formula_structural       Cu6H14C20N16
_chemical_formula_sum              "Cu6 H14 C20 N16"
_cell_length_a       7.82536
_cell_length_b       8.66744
_cell_length_c       10.3779
_cell_angle_alpha    111.455
_cell_angle_beta     99.6377
_cell_angle_gamma    103.681

_space_group_name_H-M_alt    "P 1"
_space_group_IT_number       1

loop_
  _space_group_symop_operation_xyz
  'x, y, z'

loop_
  _atom_site_type_symbol
  _atom_site_label
  _atom_site_symmetry_multiplicity
  _atom_site_fract_x
  _atom_site_fract_y
  _atom_site_fract_z
  _atom_site_occupancy
  Cu  Cu1       1.0  0.38223  0.17292  0.38580  1.0000
  Cu  Cu2       1.0  0.61778  0.82708  0.61420  1.0000
  Cu  Cu3       1.0  0.53758  0.95285  0.23112  1.0000
  Cu  Cu4       1.0  0.46242  0.04716  0.76888  1.0000
  Cu  Cu5       1.0  0.68340  0.68854  0.98731  1.0000
  Cu  Cu6       1.0  0.31659  0.31146  0.01270  1.0000
  H   H1        1.0  0.28116  0.28070  0.61007  1.0000
  H   H2        1.0  0.71883  0.71930  0.38993  1.0000
  H   H3        1.0  0.73150  0.28218  0.44627  1.0000
  H   H4        1.0  0.26851  0.71783  0.55373  1.0000
  H   H5        1.0  0.31969  0.54912  0.82363  1.0000
  H   H6        1.0  0.68032  0.45089  0.17637  1.0000
  H   H7        1.0  0.78595  0.54017  0.66585  1.0000
  H   H8        1.0  0.21404  0.45982  0.33414  1.0000
  H   H9        1.0  0.09693  0.68032  0.97898  1.0000
  H   H10       1.0  0.90307  0.31968  0.02100  1.0000
  H   H11       1.0  0.97376  0.76242  0.87241  1.0000
  H   H12       1.0  0.02624  0.23758  0.12759  1.0000
  H   H13       1.0  0.21719  0.80939  0.90246  1.0000
  H   H14       1.0  0.78280  0.19061  0.09754  1.0000
  C   C1        1.0  0.47226  0.41821  0.47162  1.0000
  C   C2        1.0  0.52775  0.58178  0.52838  1.0000
  C   C3        1.0  0.97339  0.09761  0.37682  1.0000
  C   C4        1.0  0.02661  0.90240  0.62319  1.0000
  C   C5        1.0  0.99981  0.25177  0.50789  1.0000
  C   C6        1.0  0.00019  0.74823  0.49211  1.0000
  C   C7        1.0  0.44292  0.10268  0.17087  1.0000
  C   C8        1.0  0.55709  0.89732  0.82914  1.0000
  C   C9        1.0  0.16708  0.33140  0.61732  1.0000
  C   C10       1.0  0.83290  0.66860  0.38269  1.0000
  C   C11       1.0  0.86283  0.33024  0.52719  1.0000
  C   C12       1.0  0.13716  0.66974  0.47279  1.0000
  C   C13       1.0  0.62951  0.44866  0.89484  1.0000
  C   C14       1.0  0.37048  0.55134  0.10516  1.0000
  C   C15       1.0  0.19141  0.48126  0.73794  1.0000
  C   C16       1.0  0.80858  0.51873  0.26205  1.0000
  C   C17       1.0  0.89223  0.47838  0.65096  1.0000
  C   C18       1.0  0.10776  0.52162  0.34904  1.0000
  C   C19       1.0  0.08775  0.71161  0.88542  1.0000
  C   C20       1.0  0.91225  0.28842  0.11459  1.0000
  N   N1        1.0  0.11115  0.04289  0.33269  1.0000
  N   N2        1.0  0.88884  0.95710  0.66731  1.0000
  N   N3        1.0  0.48722  0.02838  0.45869  1.0000
  N   N4        1.0  0.51278  0.97162  0.54132  1.0000
  N   N5        1.0  0.03371  0.89884  0.20848  1.0000
  N   N6        1.0  0.96630  0.10115  0.79152  1.0000
  N   N7        1.0  0.85505  0.86649  0.17715  1.0000
  N   N8        1.0  0.14497  0.13351  0.82285  1.0000
  N   N9        1.0  0.81142  0.98804  0.27928  1.0000
  N   N10       1.0  0.18860  0.01196  0.72072  1.0000
  N   N11       1.0  0.42544  0.70561  0.16481  1.0000
  N   N12       1.0  0.57455  0.29439  0.83519  1.0000
  N   N13       1.0  0.39579  0.17153  0.09847  1.0000
  N   N14       1.0  0.60420  0.82847  0.90153  1.0000
  N   N15       1.0  0.05536  0.55247  0.75403  1.0000
  N   N16       1.0  0.94464  0.44753  0.24597  1.0000
