data_image0
_chemical_formula_structural       Cu3H26C44N12O38
_chemical_formula_sum              "Cu3 H26 C44 N12 O38"
_cell_length_a       11.5974
_cell_length_b       11.9996
_cell_length_c       12.7452
_cell_angle_alpha    73.2931
_cell_angle_beta     71.3426
_cell_angle_gamma    62.3794

_space_group_name_H-M_alt    "P 1"
_space_group_IT_number       1

loop_
  _space_group_symop_operation_xyz
  'x, y, z'

loop_
  _atom_site_type_symbol
  _atom_site_label
  _atom_site_symmetry_multiplicity
  _atom_site_fract_x
  _atom_site_fract_y
  _atom_site_fract_z
  _atom_site_occupancy
  Cu  Cu1       1.0  0.11416  0.42579  0.02245  1.0000
  Cu  Cu2       1.0  0.88584  0.57422  0.97755  1.0000
  Cu  Cu3       1.0  0.50001  1.00000  0.00000  1.0000
  H   H1        1.0  0.80127  0.90616  0.10744  1.0000
  H   H2        1.0  0.19874  0.09383  0.89256  1.0000
  H   H3        1.0  0.03205  0.07199  0.16524  1.0000
  H   H4        1.0  0.96794  0.92802  0.83475  1.0000
  H   H5        1.0  0.22347  0.68864  0.09255  1.0000
  H   H6        1.0  0.77654  0.31137  0.90745  1.0000
  H   H7        1.0  0.39141  0.03725  0.32564  1.0000
  H   H8        1.0  0.60859  0.96274  0.67437  1.0000
  H   H9        1.0  0.19899  0.30304  0.55904  1.0000
  H   H10       1.0  0.80100  0.69695  0.44096  1.0000
  H   H11       1.0  0.22694  0.44243  0.20348  1.0000
  H   H12       1.0  0.77307  0.55756  0.79652  1.0000
  H   H13       1.0  0.37405  0.52314  0.72743  1.0000
  H   H14       1.0  0.62595  0.47686  0.27257  1.0000
  H   H15       1.0  0.34975  0.78613  0.41411  1.0000
  H   H16       1.0  0.65024  0.21388  0.58589  1.0000
  H   H17       1.0  0.64434  0.77974  0.04743  1.0000
  H   H18       1.0  0.35567  0.22025  0.95257  1.0000
  H   H19       1.0  0.99339  0.75316  0.63605  1.0000
  H   H20       1.0  0.00661  0.24684  0.36395  1.0000
  H   H21       1.0  0.66624  0.71962  0.23096  1.0000
  H   H22       1.0  0.33377  0.28038  0.76904  1.0000
  H   H23       1.0  0.49069  0.80039  0.23587  1.0000
  H   H24       1.0  0.50932  0.19961  0.76413  1.0000
  H   H25       1.0  0.57982  0.88311  0.24969  1.0000
  H   H26       1.0  0.42018  0.11688  0.75031  1.0000
  C   C1        1.0  0.00714  0.67754  0.06502  1.0000
  C   C2        1.0  0.99286  0.32246  0.93498  1.0000
  C   C3        1.0  0.01136  0.78520  0.09837  1.0000
  C   C4        1.0  0.98865  0.21480  0.90162  1.0000
  C   C5        1.0  0.89601  0.89697  0.11574  1.0000
  C   C6        1.0  0.10400  0.10303  0.88425  1.0000
  C   C7        1.0  0.90542  0.99700  0.14216  1.0000
  C   C8        1.0  0.09457  0.00300  0.85784  1.0000
  C   C9        1.0  0.02570  0.99180  0.14776  1.0000
  C   C10       1.0  0.97429  0.00820  0.85224  1.0000
  C   C11       1.0  0.13835  0.87928  0.12853  1.0000
  C   C12       1.0  0.86165  0.12072  0.87147  1.0000
  C   C13       1.0  0.13326  0.77495  0.10665  1.0000
  C   C14       1.0  0.86674  0.22506  0.89335  1.0000
  C   C15       1.0  0.35947  0.20658  0.13440  1.0000
  C   C16       1.0  0.64053  0.79341  0.86560  1.0000
  C   C17       1.0  0.31493  0.23638  0.25149  1.0000
  C   C18       1.0  0.68507  0.76361  0.74851  1.0000
  C   C19       1.0  0.33998  0.13497  0.34114  1.0000
  C   C20       1.0  0.66002  0.86502  0.65886  1.0000
  C   C21       1.0  0.29747  0.16064  0.45012  1.0000
  C   C22       1.0  0.70253  0.83936  0.54989  1.0000
  C   C23       1.0  0.23138  0.28419  0.47368  1.0000
  C   C24       1.0  0.76862  0.71580  0.52632  1.0000
  C   C25       1.0  0.20900  0.38305  0.38271  1.0000
  C   C26       1.0  0.79100  0.61695  0.61729  1.0000
  C   C27       1.0  0.24844  0.36217  0.27200  1.0000
  C   C28       1.0  0.75157  0.63782  0.72800  1.0000
  C   C29       1.0  0.11049  0.57668  0.80311  1.0000
  C   C30       1.0  0.88952  0.42331  0.19689  1.0000
  C   C31       1.0  0.17692  0.63070  0.69255  1.0000
  C   C32       1.0  0.82308  0.36930  0.30745  1.0000
  C   C33       1.0  0.31472  0.59344  0.66826  1.0000
  C   C34       1.0  0.68529  0.40656  0.33173  1.0000
  C   C35       1.0  0.37408  0.65030  0.56836  1.0000
  C   C36       1.0  0.62592  0.34970  0.43163  1.0000
  C   C37       1.0  0.30171  0.74232  0.49128  1.0000
  C   C38       1.0  0.69828  0.25768  0.50872  1.0000
  C   C39       1.0  0.16498  0.77633  0.51797  1.0000
  C   C40       1.0  0.83501  0.22367  0.48203  1.0000
  C   C41       1.0  0.10082  0.72280  0.61721  1.0000
  C   C42       1.0  0.89918  0.27720  0.38279  1.0000
  C   C43       1.0  0.58532  0.81138  0.20912  1.0000
  C   C44       1.0  0.41469  0.18862  0.79088  1.0000
  N   N1        1.0  0.26908  0.87147  0.12664  1.0000
  N   N2        1.0  0.73091  0.12854  0.87336  1.0000
  N   N3        1.0  0.78472  0.11627  0.15854  1.0000
  N   N4        1.0  0.21527  0.88372  0.84146  1.0000
  N   N5        1.0  0.32413  0.05352  0.54402  1.0000
  N   N6        1.0  0.67587  0.94648  0.45599  1.0000
  N   N7        1.0  0.14061  0.51465  0.40633  1.0000
  N   N8        1.0  0.85939  0.48535  0.59366  1.0000
  N   N9        1.0  0.08569  0.87395  0.43849  1.0000
  N   N10       1.0  0.91430  0.12605  0.56151  1.0000
  N   N11       1.0  0.51896  0.61200  0.54356  1.0000
  N   N12       1.0  0.48104  0.38801  0.45643  1.0000
  O   O1        1.0  0.10800  0.57109  0.07132  1.0000
  O   O2        1.0  0.89201  0.42892  0.92868  1.0000
  O   O3        1.0  0.09583  0.29658  0.96876  1.0000
  O   O4        1.0  0.90417  0.70342  0.03125  1.0000
  O   O5        1.0  0.36133  0.76445  0.13744  1.0000
  O   O6        1.0  0.63868  0.23557  0.86255  1.0000
  O   O7        1.0  0.27896  0.97386  0.11260  1.0000
  O   O8        1.0  0.72103  0.02615  0.88740  1.0000
  O   O9        1.0  0.79267  0.19795  0.19405  1.0000
  O   O10       1.0  0.20731  0.80205  0.80596  1.0000
  O   O11       1.0  0.68433  0.12860  0.13353  1.0000
  O   O12       1.0  0.31567  0.87139  0.86647  1.0000
  O   O13       1.0  0.31458  0.29291  0.05462  1.0000
  O   O14       1.0  0.68543  0.70709  0.94538  1.0000
  O   O15       1.0  0.44210  0.09173  0.12481  1.0000
  O   O16       1.0  0.55792  0.90827  0.87519  1.0000
  O   O17       1.0  0.38494  0.94373  0.52147  1.0000
  O   O18       1.0  0.61506  0.05627  0.47854  1.0000
  O   O19       1.0  0.28536  0.07901  0.64028  1.0000
  O   O20       1.0  0.71464  0.92099  0.35972  1.0000
  O   O21       1.0  0.10860  0.52919  0.50568  1.0000
  O   O22       1.0  0.89140  0.47081  0.49432  1.0000
  O   O23       1.0  0.11875  0.60329  0.32597  1.0000
  O   O24       1.0  0.88125  0.39670  0.67402  1.0000
  O   O25       1.0  0.18716  0.48997  0.86545  1.0000
  O   O26       1.0  0.81285  0.51001  0.13455  1.0000
  O   O27       1.0  0.01657  0.37540  0.17427  1.0000
  O   O28       1.0  0.98344  0.62460  0.82574  1.0000
  O   O29       1.0  0.58134  0.53019  0.61389  1.0000
  O   O30       1.0  0.41865  0.46983  0.38610  1.0000
  O   O31       1.0  0.57074  0.66227  0.45347  1.0000
  O   O32       1.0  0.42925  0.33774  0.54652  1.0000
  O   O33       1.0  0.14470  0.92485  0.35388  1.0000
  O   O34       1.0  0.85529  0.07516  0.64612  1.0000
  O   O35       1.0  0.96446  0.90101  0.46070  1.0000
  O   O36       1.0  0.03553  0.09899  0.53930  1.0000
  O   O37       1.0  0.61630  0.85131  0.08973  1.0000
  O   O38       1.0  0.38370  0.14869  0.91027  1.0000
