data_image0
_chemical_formula_structural       H32Ru2C32N4ClO4
_chemical_formula_sum              "H32 Ru2 C32 N4 Cl1 O4"
_cell_length_a       7.36782
_cell_length_b       10.6612
_cell_length_c       10.6619
_cell_angle_alpha    83.1332
_cell_angle_beta     69.7785
_cell_angle_gamma    69.7814

_space_group_name_H-M_alt    "P 1"
_space_group_IT_number       1

loop_
  _space_group_symop_operation_xyz
  'x, y, z'

loop_
  _atom_site_type_symbol
  _atom_site_label
  _atom_site_symmetry_multiplicity
  _atom_site_fract_x
  _atom_site_fract_y
  _atom_site_fract_z
  _atom_site_occupancy
  H   H1        1.0  0.55677  0.14821  0.16112  1.0000
  H   H2        1.0  0.29483  0.83886  0.14821  1.0000
  H   H3        1.0  0.28197  0.16111  0.85182  1.0000
  H   H4        1.0  0.86629  0.85178  0.83881  1.0000
  H   H5        1.0  0.70985  0.90946  0.09015  1.0000
  H   H6        1.0  0.38044  0.90991  0.90950  1.0000
  H   H7        1.0  0.19989  0.09011  0.09057  1.0000
  H   H8        1.0  0.70964  0.09052  0.90983  1.0000
  H   H9        1.0  0.73782  0.73001  0.26405  1.0000
  H   H10       1.0  0.53215  0.73605  0.73003  1.0000
  H   H11       1.0  0.99813  0.26403  0.26997  1.0000
  H   H12       1.0  0.73198  0.26999  0.73594  1.0000
  H   H13       1.0  0.63159  0.78941  0.49958  1.0000
  H   H14       1.0  0.57909  0.50048  0.78943  1.0000
  H   H15       1.0  0.86890  0.49960  0.21055  1.0000
  H   H16       1.0  0.92061  0.21064  0.50035  1.0000
  H   H17       1.0  0.67622  0.25116  0.41424  1.0000
  H   H18       1.0  0.07265  0.58569  0.25121  1.0000
  H   H19       1.0  0.90939  0.41429  0.74885  1.0000
  H   H20       1.0  0.34169  0.74875  0.58575  1.0000
  H   H21       1.0  0.51253  0.95513  0.67155  1.0000
  H   H22       1.0  0.53238  0.32845  0.95521  1.0000
  H   H23       1.0  0.81602  0.67154  0.04474  1.0000
  H   H24       1.0  0.13928  0.04476  0.32835  1.0000
  H   H25       1.0  0.27027  0.05371  0.65601  1.0000
  H   H26       1.0  0.67597  0.34403  0.05382  1.0000
  H   H27       1.0  0.07386  0.65596  0.94621  1.0000
  H   H28       1.0  0.97996  0.94622  0.34402  1.0000
  H   H29       1.0  0.46175  0.12759  0.63230  1.0000
  H   H30       1.0  0.41060  0.36773  0.12767  1.0000
  H   H31       1.0  0.90612  0.63229  0.87228  1.0000
  H   H32       1.0  0.22162  0.87232  0.36771  1.0000
  Ru  Ru1       1.0  0.09265  0.50001  0.50004  1.0000
  Ru  Ru2       1.0  0.40725  0.50000  0.50004  1.0000
  C   C1        1.0  0.49985  0.10275  0.37068  1.0000
  C   C2        1.0  0.39746  0.62930  0.10276  1.0000
  C   C3        1.0  0.12945  0.37066  0.89725  1.0000
  C   C4        1.0  0.97323  0.89729  0.62928  1.0000
  C   C5        1.0  0.57005  0.06891  0.23524  1.0000
  C   C6        1.0  0.36101  0.76476  0.06891  1.0000
  C   C7        1.0  0.19460  0.23521  0.93113  1.0000
  C   C8        1.0  0.87423  0.93113  0.76470  1.0000
  C   C9        1.0  0.65602  0.93517  0.19568  1.0000
  C   C10       1.0  0.40876  0.80435  0.93519  1.0000
  C   C11       1.0  0.14827  0.19566  0.06485  1.0000
  C   C12       1.0  0.78691  0.06484  0.80428  1.0000
  C   C13       1.0  0.67387  0.83519  0.29212  1.0000
  C   C14       1.0  0.49098  0.70794  0.83520  1.0000
  C   C15       1.0  0.03406  0.29212  0.16481  1.0000
  C   C16       1.0  0.80119  0.16484  0.70782  1.0000
  C   C17       1.0  0.60688  0.86899  0.42675  1.0000
  C   C18       1.0  0.52418  0.57329  0.86901  1.0000
  C   C19       1.0  0.96645  0.42676  0.13098  1.0000
  C   C20       1.0  0.90265  0.13104  0.57319  1.0000
  C   C21       1.0  0.51624  0.00245  0.46907  1.0000
  C   C22       1.0  0.48134  0.53094  0.00247  1.0000
  C   C23       1.0  0.01472  0.46906  0.99752  1.0000
  C   C24       1.0  0.98776  0.99759  0.53087  1.0000
  C   C25       1.0  0.41254  0.24660  0.41079  1.0000
  C   C26       1.0  0.34088  0.58921  0.24661  1.0000
  C   C27       1.0  0.17658  0.41077  0.75343  1.0000
  C   C28       1.0  0.06987  0.75344  0.58922  1.0000
  C   C29       1.0  0.43625  0.03650  0.61517  1.0000
  C   C30       1.0  0.52724  0.38484  0.03658  1.0000
  C   C31       1.0  0.94870  0.61515  0.96339  1.0000
  C   C32       1.0  0.08792  0.96344  0.38480  1.0000
  N   N1        1.0  0.52747  0.30852  0.42942  1.0000
  N   N2        1.0  0.16405  0.57058  0.30855  1.0000
  N   N3        1.0  0.04301  0.42942  0.69151  1.0000
  N   N4        1.0  0.26535  0.69146  0.57064  1.0000
  Cl  Cl1       1.0  0.74999  0.49998  0.50002  1.0000
  O   O1        1.0  0.21977  0.30782  0.42890  1.0000
  O   O2        1.0  0.47237  0.57119  0.30786  1.0000
  O   O3        1.0  0.35128  0.42884  0.69220  1.0000
  O   O4        1.0  0.95639  0.69221  0.57120  1.0000
