data_image0
_chemical_formula_structural       Ag4H20C24S2N4O10
_chemical_formula_sum              "Ag4 H20 C24 S2 N4 O10"
_cell_length_a       5.59012
_cell_length_b       10.2743
_cell_length_c       12.5561
_cell_angle_alpha    83.4044
_cell_angle_beta     90.1891
_cell_angle_gamma    70.7565

_space_group_name_H-M_alt    "P 1"
_space_group_IT_number       1

loop_
  _space_group_symop_operation_xyz
  'x, y, z'

loop_
  _atom_site_type_symbol
  _atom_site_label
  _atom_site_symmetry_multiplicity
  _atom_site_fract_x
  _atom_site_fract_y
  _atom_site_fract_z
  _atom_site_occupancy
  Ag  Ag1       1.0  0.50000  1.00000  0.50000  1.0000
  Ag  Ag2       1.0  0.90786  0.56892  0.86964  1.0000
  Ag  Ag3       1.0  0.09213  0.43108  0.13036  1.0000
  Ag  Ag4       1.0  0.49999  0.50000  1.00000  1.0000
  H   H1        1.0  0.40920  0.38419  0.54034  1.0000
  H   H2        1.0  0.59081  0.61581  0.45967  1.0000
  H   H3        1.0  0.30877  0.51092  0.70093  1.0000
  H   H4        1.0  0.69124  0.48908  0.29908  1.0000
  H   H5        1.0  0.84385  0.19564  0.63422  1.0000
  H   H6        1.0  0.15615  0.80436  0.36577  1.0000
  H   H7        1.0  0.76165  0.33300  0.78984  1.0000
  H   H8        1.0  0.23834  0.66700  0.21016  1.0000
  H   H9        1.0  0.69581  0.13661  0.80362  1.0000
  H   H10       1.0  0.30418  0.86339  0.19638  1.0000
  H   H11       1.0  0.69480  0.94163  0.70337  1.0000
  H   H12       1.0  0.30520  0.05836  0.29663  1.0000
  H   H13       1.0  0.04649  0.10706  0.97156  1.0000
  H   H14       1.0  0.95350  0.89295  0.02844  1.0000
  H   H15       1.0  0.04381  0.90883  0.87138  1.0000
  H   H16       1.0  0.95619  0.09117  0.12862  1.0000
  H   H17       1.0  0.03083  0.17805  0.46002  1.0000
  H   H18       1.0  0.96919  0.82195  0.53998  1.0000
  H   H19       1.0  0.24795  0.25624  0.42053  1.0000
  H   H20       1.0  0.75207  0.74376  0.57947  1.0000
  C   C1        1.0  0.36056  0.91853  0.77913  1.0000
  C   C2        1.0  0.63945  0.08147  0.22087  1.0000
  C   C3        1.0  0.13321  0.27911  0.57350  1.0000
  C   C4        1.0  0.86679  0.72089  0.42650  1.0000
  C   C5        1.0  0.26525  0.36930  0.59415  1.0000
  C   C6        1.0  0.73476  0.63070  0.40585  1.0000
  C   C7        1.0  0.21017  0.44000  0.68334  1.0000
  C   C8        1.0  0.78981  0.56001  0.31666  1.0000
  C   C9        1.0  0.95019  0.26506  0.64609  1.0000
  C   C10       1.0  0.04981  0.73494  0.35391  1.0000
  C   C11       1.0  0.90410  0.34109  0.73265  1.0000
  C   C12       1.0  0.09589  0.65891  0.26734  1.0000
  C   C13       1.0  0.37011  0.13398  0.89354  1.0000
  C   C14       1.0  0.62989  0.86602  0.10646  1.0000
  C   C15       1.0  0.55046  0.08841  0.81690  1.0000
  C   C16       1.0  0.44953  0.91159  0.18310  1.0000
  C   C17       1.0  0.54751  0.98029  0.75982  1.0000
  C   C18       1.0  0.45248  0.01971  0.24018  1.0000
  C   C19       1.0  0.18760  0.06907  0.91314  1.0000
  C   C20       1.0  0.81240  0.93094  0.08686  1.0000
  C   C21       1.0  0.18334  0.96107  0.85683  1.0000
  C   C22       1.0  0.81666  0.03893  0.14317  1.0000
  C   C23       1.0  0.36401  0.25156  0.95509  1.0000
  C   C24       1.0  0.63599  0.74844  0.04491  1.0000
  S   S1        1.0  0.32549  0.79160  0.70067  1.0000
  S   S2        1.0  0.67452  0.20840  0.29933  1.0000
  N   N1        1.0  0.03058  0.42818  0.75200  1.0000
  N   N2        1.0  0.96942  0.57181  0.24801  1.0000
  N   N3        1.0  0.18242  0.20607  0.48445  1.0000
  N   N4        1.0  0.81760  0.79393  0.51555  1.0000
  O   O1        1.0  0.21254  0.87314  0.59600  1.0000
  O   O2        1.0  0.78746  0.12686  0.40400  1.0000
  O   O3        1.0  0.58045  0.69231  0.68877  1.0000
  O   O4        1.0  0.41956  0.30770  0.31123  1.0000
  O   O5        1.0  0.15359  0.72970  0.75685  1.0000
  O   O6        1.0  0.84642  0.27029  0.24314  1.0000
  O   O7        1.0  0.19632  0.27842  0.02498  1.0000
  O   O8        1.0  0.80365  0.72160  0.97501  1.0000
  O   O9        1.0  0.52205  0.31542  0.93198  1.0000
  O   O10       1.0  0.47795  0.68458  0.06802  1.0000
