data_image0
_chemical_formula_structural       Ni4H24C8O24
_chemical_formula_sum              "Ni4 H24 C8 O24"
_cell_length_a       6.95683
_cell_length_b       8.60064
_cell_length_c       9.28893
_cell_angle_alpha    98.157
_cell_angle_beta     90.0009
_cell_angle_gamma    90.0026

_space_group_name_H-M_alt    "P 1"
_space_group_IT_number       1

loop_
  _space_group_symop_operation_xyz
  'x, y, z'

loop_
  _atom_site_type_symbol
  _atom_site_label
  _atom_site_symmetry_multiplicity
  _atom_site_fract_x
  _atom_site_fract_y
  _atom_site_fract_z
  _atom_site_occupancy
  Ni  Ni1       1.0  0.00000  0.50000  0.50000  1.0000
  Ni  Ni2       1.0  0.50000  0.50000  1.00000  1.0000
  Ni  Ni3       1.0  0.50000  0.00000  0.50000  1.0000
  Ni  Ni4       1.0  0.00000  0.00000  0.00000  1.0000
  H   H1        1.0  0.22381  0.58104  0.76808  1.0000
  H   H2        1.0  0.72391  0.41890  0.73195  1.0000
  H   H3        1.0  0.77619  0.41895  0.23192  1.0000
  H   H4        1.0  0.27609  0.58110  0.26805  1.0000
  H   H5        1.0  0.96411  0.82679  0.38241  1.0000
  H   H6        1.0  0.46419  0.17326  0.11762  1.0000
  H   H7        1.0  0.03589  0.17322  0.61759  1.0000
  H   H8        1.0  0.53581  0.82674  0.88238  1.0000
  H   H9        1.0  0.33838  0.03033  0.76793  1.0000
  H   H10       1.0  0.83841  0.96968  0.73206  1.0000
  H   H11       1.0  0.66163  0.96967  0.23207  1.0000
  H   H12       1.0  0.16159  0.03032  0.26794  1.0000
  H   H13       1.0  0.39596  0.19973  0.72989  1.0000
  H   H14       1.0  0.89601  0.80025  0.77008  1.0000
  H   H15       1.0  0.60404  0.80027  0.27011  1.0000
  H   H16       1.0  0.10399  0.19975  0.22992  1.0000
  H   H17       1.0  0.38864  0.74097  0.55194  1.0000
  H   H18       1.0  0.88864  0.25901  0.94805  1.0000
  H   H19       1.0  0.61136  0.25903  0.44806  1.0000
  H   H20       1.0  0.11136  0.74099  0.05195  1.0000
  H   H21       1.0  0.61246  0.71681  0.51702  1.0000
  H   H22       1.0  0.11245  0.28319  0.98303  1.0000
  H   H23       1.0  0.38754  0.28319  0.48298  1.0000
  H   H24       1.0  0.88755  0.71681  0.01697  1.0000
  C   C1        1.0  0.28813  0.46903  0.71935  1.0000
  C   C2        1.0  0.78814  0.53097  0.78070  1.0000
  C   C3        1.0  0.71188  0.53097  0.28065  1.0000
  C   C4        1.0  0.21186  0.46903  0.21930  1.0000
  C   C5        1.0  0.11013  0.82580  0.42918  1.0000
  C   C6        1.0  0.61014  0.17421  0.07083  1.0000
  C   C7        1.0  0.88986  0.17420  0.57082  1.0000
  C   C8        1.0  0.38986  0.82579  0.92917  1.0000
  O   O1        1.0  0.23870  0.41221  0.59065  1.0000
  O   O2        1.0  0.73868  0.58779  0.90936  1.0000
  O   O3        1.0  0.76130  0.58779  0.40935  1.0000
  O   O4        1.0  0.26132  0.41221  0.09064  1.0000
  O   O5        1.0  0.40648  0.40100  0.79373  1.0000
  O   O6        1.0  0.90645  0.59906  0.70629  1.0000
  O   O7        1.0  0.59352  0.59900  0.20627  1.0000
  O   O8        1.0  0.09355  0.40094  0.29371  1.0000
  O   O9        1.0  0.15708  0.71295  0.49820  1.0000
  O   O10       1.0  0.65708  0.28702  0.00181  1.0000
  O   O11       1.0  0.84291  0.28705  0.50180  1.0000
  O   O12       1.0  0.34293  0.71298  0.99819  1.0000
  O   O13       1.0  0.22207  0.93749  0.40918  1.0000
  O   O14       1.0  0.72207  0.06251  0.09079  1.0000
  O   O15       1.0  0.77792  0.06251  0.59082  1.0000
  O   O16       1.0  0.27794  0.93749  0.90921  1.0000
  O   O17       1.0  0.36030  0.09185  0.68595  1.0000
  O   O18       1.0  0.86040  0.90814  0.81402  1.0000
  O   O19       1.0  0.63970  0.90815  0.31405  1.0000
  O   O20       1.0  0.13960  0.09187  0.18599  1.0000
  O   O21       1.0  0.51921  0.78536  0.57759  1.0000
  O   O22       1.0  0.01922  0.21463  0.92244  1.0000
  O   O23       1.0  0.48079  0.21464  0.42241  1.0000
  O   O24       1.0  0.98078  0.78537  0.07756  1.0000
