data_image0
_chemical_formula_structural       Ni4H24C8O24
_chemical_formula_sum              "Ni4 H24 C8 O24"
_cell_length_a       6.95419
_cell_length_b       8.60366
_cell_length_c       9.28489
_cell_angle_alpha    98.0584
_cell_angle_beta     89.9998
_cell_angle_gamma    90

_space_group_name_H-M_alt    "P 1"
_space_group_IT_number       1

loop_
  _space_group_symop_operation_xyz
  'x, y, z'

loop_
  _atom_site_type_symbol
  _atom_site_label
  _atom_site_symmetry_multiplicity
  _atom_site_fract_x
  _atom_site_fract_y
  _atom_site_fract_z
  _atom_site_occupancy
  Ni  Ni1       1.0  0.00000  0.50000  0.50000  1.0000
  Ni  Ni2       1.0  0.50000  0.50000  1.00000  1.0000
  Ni  Ni3       1.0  0.50000  1.00000  0.50000  1.0000
  Ni  Ni4       1.0  0.00000  1.00000  1.00000  1.0000
  H   H1        1.0  0.39609  0.19973  0.72908  1.0000
  H   H2        1.0  0.89610  0.80028  0.77091  1.0000
  H   H3        1.0  0.60391  0.80027  0.27091  1.0000
  H   H4        1.0  0.10390  0.19972  0.22909  1.0000
  H   H5        1.0  0.33737  0.03077  0.76729  1.0000
  H   H6        1.0  0.83738  0.96923  0.73271  1.0000
  H   H7        1.0  0.66263  0.96923  0.23271  1.0000
  H   H8        1.0  0.16262  0.03077  0.26729  1.0000
  H   H9        1.0  0.61211  0.25902  0.44828  1.0000
  H   H10       1.0  0.11211  0.74098  0.05170  1.0000
  H   H11       1.0  0.38789  0.74098  0.55171  1.0000
  H   H12       1.0  0.88789  0.25902  0.94830  1.0000
  H   H13       1.0  0.38859  0.28357  0.48253  1.0000
  H   H14       1.0  0.88859  0.71643  0.01746  1.0000
  H   H15       1.0  0.61142  0.71643  0.51746  1.0000
  H   H16       1.0  0.11140  0.28357  0.98254  1.0000
  H   H17       1.0  0.03587  0.17229  0.61893  1.0000
  H   H18       1.0  0.53589  0.82771  0.88108  1.0000
  H   H19       1.0  0.96413  0.82770  0.38108  1.0000
  H   H20       1.0  0.46411  0.17228  0.11892  1.0000
  H   H21       1.0  0.72298  0.41965  0.73133  1.0000
  H   H22       1.0  0.22300  0.58034  0.76866  1.0000
  H   H23       1.0  0.27702  0.58035  0.26867  1.0000
  H   H24       1.0  0.77700  0.41965  0.23133  1.0000
  C   C1        1.0  0.88978  0.17406  0.57232  1.0000
  C   C2        1.0  0.38979  0.82595  0.92768  1.0000
  C   C3        1.0  0.11022  0.82594  0.42768  1.0000
  C   C4        1.0  0.61021  0.17406  0.07232  1.0000
  C   C5        1.0  0.78801  0.53104  0.78048  1.0000
  C   C6        1.0  0.28802  0.46895  0.71952  1.0000
  C   C7        1.0  0.21199  0.46896  0.21952  1.0000
  C   C8        1.0  0.71198  0.53105  0.28048  1.0000
  O   O1        1.0  0.90670  0.59914  0.70625  1.0000
  O   O2        1.0  0.40670  0.40085  0.79375  1.0000
  O   O3        1.0  0.09330  0.40086  0.29375  1.0000
  O   O4        1.0  0.59331  0.59915  0.20625  1.0000
  O   O5        1.0  0.73936  0.58698  0.90952  1.0000
  O   O6        1.0  0.23936  0.41301  0.59048  1.0000
  O   O7        1.0  0.26064  0.41303  0.09048  1.0000
  O   O8        1.0  0.76064  0.58698  0.40952  1.0000
  O   O9        1.0  0.84345  0.28693  0.50303  1.0000
  O   O10       1.0  0.34346  0.71308  0.99696  1.0000
  O   O11       1.0  0.15656  0.71307  0.49697  1.0000
  O   O12       1.0  0.65654  0.28692  0.00304  1.0000
  O   O13       1.0  0.77715  0.06279  0.59242  1.0000
  O   O14       1.0  0.27717  0.93722  0.90759  1.0000
  O   O15       1.0  0.22284  0.93721  0.40758  1.0000
  O   O16       1.0  0.72283  0.06278  0.09241  1.0000
  O   O17       1.0  0.35920  0.09230  0.68517  1.0000
  O   O18       1.0  0.85921  0.90770  0.81483  1.0000
  O   O19       1.0  0.64081  0.90770  0.31483  1.0000
  O   O20       1.0  0.14079  0.09230  0.18517  1.0000
  O   O21       1.0  0.48158  0.21480  0.42208  1.0000
  O   O22       1.0  0.98158  0.78519  0.07792  1.0000
  O   O23       1.0  0.51842  0.78520  0.57791  1.0000
  O   O24       1.0  0.01842  0.21481  0.92208  1.0000
