data_image0
_chemical_formula_structural       ZnH56C60Br4N4O8
_chemical_formula_sum              "Zn1 H56 C60 Br4 N4 O8"
_cell_length_a       8.72827
_cell_length_b       12.8629
_cell_length_c       15.1092
_cell_angle_alpha    113.239
_cell_angle_beta     97.4365
_cell_angle_gamma    97.5682

_space_group_name_H-M_alt    "P 1"
_space_group_IT_number       1

loop_
  _space_group_symop_operation_xyz
  'x, y, z'

loop_
  _atom_site_type_symbol
  _atom_site_label
  _atom_site_symmetry_multiplicity
  _atom_site_fract_x
  _atom_site_fract_y
  _atom_site_fract_z
  _atom_site_occupancy
  Zn  Zn1       1.0  1.00000  0.00000  1.00000  1.0000
  H   H1        1.0  0.47995  0.90819  0.12470  1.0000
  H   H2        1.0  0.52005  0.09181  0.87531  1.0000
  H   H3        1.0  0.66742  0.08440  0.28158  1.0000
  H   H4        1.0  0.33258  0.91560  0.71842  1.0000
  H   H5        1.0  0.26126  0.30996  0.36063  1.0000
  H   H6        1.0  0.73873  0.69004  0.63937  1.0000
  H   H7        1.0  0.48426  0.31579  0.25433  1.0000
  H   H8        1.0  0.51573  0.68421  0.74567  1.0000
  H   H9        1.0  0.82241  0.33054  0.29111  1.0000
  H   H10       1.0  0.17759  0.66946  0.70888  1.0000
  H   H11       1.0  0.06955  0.13555  0.41609  1.0000
  H   H12       1.0  0.93046  0.86446  0.58391  1.0000
  H   H13       1.0  0.63733  0.45941  0.48709  1.0000
  H   H14       1.0  0.36267  0.54059  0.51291  1.0000
  H   H15       1.0  0.81722  0.55850  0.51391  1.0000
  H   H16       1.0  0.18278  0.44150  0.48609  1.0000
  H   H17       1.0  0.50097  0.55042  0.40659  1.0000
  H   H18       1.0  0.49903  0.44959  0.59341  1.0000
  H   H19       1.0  0.56733  0.56455  0.30475  1.0000
  H   H20       1.0  0.43267  0.43546  0.69526  1.0000
  H   H21       1.0  0.67430  0.65603  0.42783  1.0000
  H   H22       1.0  0.32570  0.34397  0.57217  1.0000
  H   H23       1.0  0.09447  0.32080  0.66510  1.0000
  H   H24       1.0  0.90553  0.67920  0.33490  1.0000
  H   H25       1.0  0.92008  0.21404  0.62824  1.0000
  H   H26       1.0  0.07992  0.78596  0.37176  1.0000
  H   H27       1.0  0.21352  0.18038  0.71864  1.0000
  H   H28       1.0  0.78649  0.81963  0.28136  1.0000
  H   H29       1.0  0.20992  0.04284  0.62108  1.0000
  H   H30       1.0  0.79009  0.95716  0.37891  1.0000
  H   H31       1.0  0.03247  0.07601  0.66337  1.0000
  H   H32       1.0  0.96753  0.92399  0.33663  1.0000
  H   H33       1.0  0.31133  0.86442  0.96854  1.0000
  H   H34       1.0  0.68867  0.13557  0.03146  1.0000
  H   H35       1.0  0.61938  0.61966  0.89951  1.0000
  H   H36       1.0  0.38062  0.38034  0.10048  1.0000
  H   H37       1.0  0.98093  0.71985  0.88335  1.0000
  H   H38       1.0  0.01907  0.28015  0.11665  1.0000
  H   H39       1.0  0.97509  0.65749  0.96931  1.0000
  H   H40       1.0  0.02491  0.34251  0.03069  1.0000
  H   H41       1.0  0.99276  0.79219  0.13630  1.0000
  H   H42       1.0  0.00724  0.20782  0.86370  1.0000
  H   H43       1.0  0.10407  0.93516  0.17219  1.0000
  H   H44       1.0  0.89593  0.06484  0.82781  1.0000
  H   H45       1.0  0.20129  0.81484  0.13798  1.0000
  H   H46       1.0  0.79871  0.18515  0.86201  1.0000
  H   H47       1.0  0.38789  0.40126  0.92535  1.0000
  H   H48       1.0  0.61211  0.59874  0.07465  1.0000
  H   H49       1.0  0.32281  0.36892  0.79948  1.0000
  H   H50       1.0  0.67719  0.63108  0.20052  1.0000
  H   H51       1.0  0.58268  0.27952  0.87613  1.0000
  H   H52       1.0  0.41732  0.72049  0.12387  1.0000
  H   H53       1.0  0.71768  0.31905  0.80878  1.0000
  H   H54       1.0  0.28232  0.68095  0.19123  1.0000
  H   H55       1.0  0.51602  0.25307  0.75004  1.0000
  H   H56       1.0  0.48398  0.74693  0.24996  1.0000
  C   C1        1.0  0.68000  0.92848  0.04788  1.0000
  C   C2        1.0  0.32000  0.07153  0.95212  1.0000
  C   C3        1.0  0.59690  0.95250  0.12865  1.0000
  C   C4        1.0  0.40310  0.04750  0.87135  1.0000
  C   C5        1.0  0.69222  0.04220  0.20859  1.0000
  C   C6        1.0  0.30778  0.95780  0.79142  1.0000
  C   C7        1.0  0.83686  0.07052  0.17830  1.0000
  C   C8        1.0  0.16314  0.92948  0.82171  1.0000
  C   C9        1.0  0.97171  0.15117  0.24196  1.0000
  C   C10       1.0  0.02829  0.84883  0.75804  1.0000
  C   C11       1.0  0.11971  0.17120  0.21752  1.0000
  C   C12       1.0  0.88028  0.82880  0.78248  1.0000
  C   C13       1.0  0.25488  0.25755  0.28326  1.0000
  C   C14       1.0  0.74511  0.74245  0.71674  1.0000
  C   C15       1.0  0.36771  0.26056  0.22888  1.0000
  C   C16       1.0  0.63228  0.73944  0.77112  1.0000
  C   C17       1.0  0.30208  0.17536  0.12924  1.0000
  C   C18       1.0  0.69792  0.82464  0.87076  1.0000
  C   C19       1.0  0.62253  0.84258  0.95134  1.0000
  C   C20       1.0  0.37746  0.15742  0.04866  1.0000
  C   C21       1.0  0.94966  0.22493  0.34238  1.0000
  C   C22       1.0  0.05034  0.77507  0.65761  1.0000
  C   C23       1.0  0.86526  0.31326  0.35396  1.0000
  C   C24       1.0  0.13474  0.68673  0.64604  1.0000
  C   C25       1.0  0.83381  0.38040  0.44554  1.0000
  C   C26       1.0  0.16619  0.61961  0.55446  1.0000
  C   C27       1.0  0.88736  0.35571  0.52519  1.0000
  C   C28       1.0  0.11264  0.64429  0.47481  1.0000
  C   C29       1.0  0.97258  0.26834  0.51629  1.0000
  C   C30       1.0  0.02742  0.73166  0.48371  1.0000
  C   C31       1.0  0.00435  0.20420  0.42383  1.0000
  C   C32       1.0  0.99566  0.79579  0.57617  1.0000
  C   C33       1.0  0.74410  0.47564  0.45813  1.0000
  C   C34       1.0  0.25590  0.52436  0.54187  1.0000
  C   C35       1.0  0.60668  0.56868  0.37807  1.0000
  C   C36       1.0  0.39332  0.43132  0.62194  1.0000
  C   C37       1.0  0.02507  0.24165  0.60250  1.0000
  C   C38       1.0  0.97493  0.75835  0.39750  1.0000
  C   C39       1.0  0.14373  0.11179  0.64878  1.0000
  C   C40       1.0  0.85627  0.88821  0.35122  1.0000
  C   C41       1.0  0.48148  0.75347  0.93520  1.0000
  C   C42       1.0  0.51852  0.24652  0.06481  1.0000
  C   C43       1.0  0.33225  0.77708  0.94834  1.0000
  C   C44       1.0  0.66775  0.22292  0.05166  1.0000
  C   C45       1.0  0.20532  0.68978  0.93547  1.0000
  C   C46       1.0  0.79468  0.31021  0.06453  1.0000
  C   C47       1.0  0.23191  0.57719  0.90709  1.0000
  C   C48       1.0  0.76808  0.42281  0.09292  1.0000
  C   C49       1.0  0.38022  0.55037  0.89417  1.0000
  C   C50       1.0  0.61979  0.44964  0.10583  1.0000
  C   C51       1.0  0.50353  0.63973  0.90875  1.0000
  C   C52       1.0  0.49648  0.36027  0.09125  1.0000
  C   C53       1.0  0.04638  0.72074  0.95103  1.0000
  C   C54       1.0  0.95361  0.27926  0.04897  1.0000
  C   C55       1.0  0.09135  0.84377  0.12317  1.0000
  C   C56       1.0  0.90865  0.15623  0.87682  1.0000
  C   C57       1.0  0.40846  0.42979  0.86684  1.0000
  C   C58       1.0  0.59154  0.57021  0.13316  1.0000
  C   C59       1.0  0.59580  0.31313  0.82004  1.0000
  C   C60       1.0  0.40420  0.68687  0.17996  1.0000
  Br  Br1       1.0  0.84090  0.44388  0.65046  1.0000
  Br  Br2       1.0  0.15910  0.55611  0.34953  1.0000
  Br  Br3       1.0  0.06281  0.45244  0.88332  1.0000
  Br  Br4       1.0  0.93718  0.54755  0.11668  1.0000
  N   N1        1.0  0.82494  0.00179  0.08032  1.0000
  N   N2        1.0  0.17505  0.99822  0.91968  1.0000
  N   N3        1.0  0.15394  0.11966  0.12540  1.0000
  N   N4        1.0  0.84605  0.88034  0.87460  1.0000
  O   O1        1.0  0.70027  0.48328  0.36754  1.0000
  O   O2        1.0  0.29972  0.51672  0.63246  1.0000
  O   O3        1.0  0.11432  0.15329  0.57512  1.0000
  O   O4        1.0  0.88569  0.84671  0.42487  1.0000
  O   O5        1.0  0.05997  0.83492  0.02513  1.0000
  O   O6        1.0  0.94003  0.16508  0.97487  1.0000
  O   O7        1.0  0.56498  0.42658  0.85122  1.0000
  O   O8        1.0  0.43502  0.57342  0.14878  1.0000
