data_image0
_chemical_formula_structural       Sr4H40C60N8O20
_chemical_formula_sum              "Sr4 H40 C60 N8 O20"
_cell_length_a       6.6828
_cell_length_b       12.4679
_cell_length_c       17.1498
_cell_angle_alpha    104.173
_cell_angle_beta     89.9998
_cell_angle_gamma    90

_space_group_name_H-M_alt    "P 1"
_space_group_IT_number       1

loop_
  _space_group_symop_operation_xyz
  'x, y, z'

loop_
  _atom_site_type_symbol
  _atom_site_label
  _atom_site_symmetry_multiplicity
  _atom_site_fract_x
  _atom_site_fract_y
  _atom_site_fract_z
  _atom_site_occupancy
  Sr  Sr1       1.0  0.43703  0.66184  0.47473  1.0000
  Sr  Sr2       1.0  0.93703  0.83816  0.52527  1.0000
  Sr  Sr3       1.0  0.56296  0.33816  0.52527  1.0000
  Sr  Sr4       1.0  0.06296  0.16184  0.47473  1.0000
  H   H1        1.0  0.97726  0.08350  0.78202  1.0000
  H   H2        1.0  0.47725  0.41649  0.21799  1.0000
  H   H3        1.0  0.02274  0.91649  0.21798  1.0000
  H   H4        1.0  0.52275  0.58351  0.78201  1.0000
  H   H5        1.0  0.67168  0.09871  0.86090  1.0000
  H   H6        1.0  0.17168  0.40128  0.13910  1.0000
  H   H7        1.0  0.32831  0.90129  0.13910  1.0000
  H   H8        1.0  0.82832  0.59872  0.86090  1.0000
  H   H9        1.0  0.43916  0.21117  0.96228  1.0000
  H   H10       1.0  0.93919  0.28883  0.03771  1.0000
  H   H11       1.0  0.56083  0.78884  0.03771  1.0000
  H   H12       1.0  0.06082  0.71116  0.96229  1.0000
  H   H13       1.0  0.50552  0.41118  0.01852  1.0000
  H   H14       1.0  0.00555  0.08881  0.98147  1.0000
  H   H15       1.0  0.49448  0.58882  0.98148  1.0000
  H   H16       1.0  0.99446  0.91118  0.01853  1.0000
  H   H17       1.0  0.79572  0.50207  0.97099  1.0000
  H   H18       1.0  0.29573  0.99793  0.02901  1.0000
  H   H19       1.0  0.20429  0.49793  0.02901  1.0000
  H   H20       1.0  0.70429  0.00207  0.97099  1.0000
  H   H21       1.0  0.10358  0.48766  0.88527  1.0000
  H   H22       1.0  0.60359  0.01233  0.11473  1.0000
  H   H23       1.0  0.89642  0.51233  0.11473  1.0000
  H   H24       1.0  0.39643  0.98767  0.88527  1.0000
  H   H25       1.0  0.33845  0.37338  0.78943  1.0000
  H   H26       1.0  0.83845  0.12662  0.21057  1.0000
  H   H27       1.0  0.66155  0.62662  0.21057  1.0000
  H   H28       1.0  0.16156  0.87339  0.78943  1.0000
  H   H29       1.0  0.16470  0.99713  0.68589  1.0000
  H   H30       1.0  0.66469  0.50287  0.31411  1.0000
  H   H31       1.0  0.83530  0.00287  0.31411  1.0000
  H   H32       1.0  0.33531  0.49714  0.68589  1.0000
  H   H33       1.0  0.44883  0.67426  0.30024  1.0000
  H   H34       1.0  0.94883  0.82574  0.69976  1.0000
  H   H35       1.0  0.55118  0.32574  0.69976  1.0000
  H   H36       1.0  0.05117  0.17426  0.30024  1.0000
  H   H37       1.0  0.29192  0.57870  0.29953  1.0000
  H   H38       1.0  0.79193  0.92130  0.70047  1.0000
  H   H39       1.0  0.70808  0.42130  0.70047  1.0000
  H   H40       1.0  0.20808  0.07870  0.29953  1.0000
  C   C1        1.0  0.44830  0.01164  0.63298  1.0000
  C   C2        1.0  0.94829  0.48835  0.36702  1.0000
  C   C3        1.0  0.55170  0.98836  0.36702  1.0000
  C   C4        1.0  0.05171  0.51165  0.63298  1.0000
  C   C5        1.0  0.43832  0.90281  0.57424  1.0000
  C   C6        1.0  0.93832  0.59719  0.42576  1.0000
  C   C7        1.0  0.56167  0.09719  0.42576  1.0000
  C   C8        1.0  0.06168  0.40281  0.57424  1.0000
  C   C9        1.0  0.31382  0.15466  0.72140  1.0000
  C   C10       1.0  0.81380  0.34534  0.27860  1.0000
  C   C11       1.0  0.68619  0.84534  0.27860  1.0000
  C   C12       1.0  0.18620  0.65467  0.72140  1.0000
  C   C13       1.0  0.17305  0.22014  0.77849  1.0000
  C   C14       1.0  0.67305  0.27985  0.22152  1.0000
  C   C15       1.0  0.82695  0.77986  0.22152  1.0000
  C   C16       1.0  0.32696  0.72015  0.77848  1.0000
  C   C17       1.0  0.00570  0.17202  0.80373  1.0000
  C   C18       1.0  0.50569  0.32798  0.19627  1.0000
  C   C19       1.0  0.99430  0.82799  0.19627  1.0000
  C   C20       1.0  0.49431  0.67202  0.80373  1.0000
  C   C21       1.0  0.86832  0.23562  0.85878  1.0000
  C   C22       1.0  0.36833  0.26437  0.14121  1.0000
  C   C23       1.0  0.13168  0.76438  0.14121  1.0000
  C   C24       1.0  0.63168  0.73562  0.85879  1.0000
  C   C25       1.0  0.69797  0.18688  0.88569  1.0000
  C   C26       1.0  0.19797  0.31312  0.11431  1.0000
  C   C27       1.0  0.30202  0.81312  0.11431  1.0000
  C   C28       1.0  0.80203  0.68688  0.88568  1.0000
  C   C29       1.0  0.56931  0.24915  0.94168  1.0000
  C   C30       1.0  0.06932  0.25084  0.05831  1.0000
  C   C31       1.0  0.43069  0.75086  0.05831  1.0000
  C   C32       1.0  0.93069  0.74915  0.94169  1.0000
  C   C33       1.0  0.60581  0.36343  0.97297  1.0000
  C   C34       1.0  0.10583  0.13656  0.02703  1.0000
  C   C35       1.0  0.39419  0.63657  0.02703  1.0000
  C   C36       1.0  0.89418  0.86343  0.97297  1.0000
  C   C37       1.0  0.76773  0.41394  0.94680  1.0000
  C   C38       1.0  0.26774  0.08605  0.05320  1.0000
  C   C39       1.0  0.23228  0.58606  0.05320  1.0000
  C   C40       1.0  0.73228  0.91395  0.94680  1.0000
  C   C41       1.0  0.90293  0.35195  0.88933  1.0000
  C   C42       1.0  0.40293  0.14805  0.11067  1.0000
  C   C43       1.0  0.09707  0.64805  0.11067  1.0000
  C   C44       1.0  0.59708  0.85195  0.88933  1.0000
  C   C45       1.0  0.07463  0.39938  0.86211  1.0000
  C   C46       1.0  0.57463  0.10061  0.13789  1.0000
  C   C47       1.0  0.92537  0.60062  0.13789  1.0000
  C   C48       1.0  0.42538  0.89938  0.86211  1.0000
  C   C49       1.0  0.20654  0.33572  0.80871  1.0000
  C   C50       1.0  0.70654  0.16428  0.19129  1.0000
  C   C51       1.0  0.79345  0.66429  0.19129  1.0000
  C   C52       1.0  0.29347  0.83572  0.80871  1.0000
  C   C53       1.0  0.57349  0.10432  0.64381  1.0000
  C   C54       1.0  0.07347  0.39568  0.35619  1.0000
  C   C55       1.0  0.42651  0.89568  0.35619  1.0000
  C   C56       1.0  0.92653  0.60432  0.64381  1.0000
  C   C57       1.0  0.76192  0.12325  0.60236  1.0000
  C   C58       1.0  0.26191  0.37676  0.39764  1.0000
  C   C59       1.0  0.23808  0.87676  0.39764  1.0000
  C   C60       1.0  0.73809  0.62324  0.60236  1.0000
  N   N1        1.0  0.48687  0.19156  0.69793  1.0000
  N   N2        1.0  0.98686  0.30844  0.30207  1.0000
  N   N3        1.0  0.51313  0.80844  0.30207  1.0000
  N   N4        1.0  0.01313  0.69156  0.69793  1.0000
  N   N5        1.0  0.28760  0.04617  0.68318  1.0000
  N   N6        1.0  0.78758  0.45384  0.31682  1.0000
  N   N7        1.0  0.71241  0.95384  0.31682  1.0000
  N   N8        1.0  0.21242  0.54617  0.68318  1.0000
  O   O1        1.0  0.28964  0.84080  0.58095  1.0000
  O   O2        1.0  0.78964  0.65920  0.41905  1.0000
  O   O3        1.0  0.71035  0.15921  0.41906  1.0000
  O   O4        1.0  0.21035  0.34079  0.58095  1.0000
  O   O5        1.0  0.56889  0.87604  0.51925  1.0000
  O   O6        1.0  0.06888  0.62396  0.48075  1.0000
  O   O7        1.0  0.43110  0.12396  0.48076  1.0000
  O   O8        1.0  0.93111  0.37604  0.51925  1.0000
  O   O9        1.0  0.88067  0.04398  0.57268  1.0000
  O   O10       1.0  0.38064  0.45602  0.42732  1.0000
  O   O11       1.0  0.11933  0.95602  0.42732  1.0000
  O   O12       1.0  0.61935  0.54399  0.57268  1.0000
  O   O13       1.0  0.79496  0.22169  0.59709  1.0000
  O   O14       1.0  0.29496  0.27831  0.40290  1.0000
  O   O15       1.0  0.20504  0.77831  0.40290  1.0000
  O   O16       1.0  0.70504  0.72169  0.59710  1.0000
  O   O17       1.0  0.43417  0.59534  0.30602  1.0000
  O   O18       1.0  0.93418  0.90467  0.69398  1.0000
  O   O19       1.0  0.56583  0.40466  0.69398  1.0000
  O   O20       1.0  0.06582  0.09534  0.30602  1.0000
