data_image0
_chemical_formula_structural       Zn2H28C44N2O8
_chemical_formula_sum              "Zn2 H28 C44 N2 O8"
_cell_length_a       9.39215
_cell_length_b       10.3514
_cell_length_c       11.0132
_cell_angle_alpha    90.2918
_cell_angle_beta     103.891
_cell_angle_gamma    99.9873

_space_group_name_H-M_alt    "P 1"
_space_group_IT_number       1

loop_
  _space_group_symop_operation_xyz
  'x, y, z'

loop_
  _atom_site_type_symbol
  _atom_site_label
  _atom_site_symmetry_multiplicity
  _atom_site_fract_x
  _atom_site_fract_y
  _atom_site_fract_z
  _atom_site_occupancy
  Zn  Zn1       1.0  0.40199  0.40421  0.55260  1.0000
  Zn  Zn2       1.0  0.59801  0.59579  0.44740  1.0000
  H   H1        1.0  0.19581  0.44939  0.70299  1.0000
  H   H2        1.0  0.80419  0.55061  0.29702  1.0000
  H   H3        1.0  0.90648  0.79668  0.57766  1.0000
  H   H4        1.0  0.09352  0.20332  0.42234  1.0000
  H   H5        1.0  0.04264  0.62178  0.55207  1.0000
  H   H6        1.0  0.95736  0.37822  0.44793  1.0000
  H   H7        1.0  0.39184  0.13266  0.64818  1.0000
  H   H8        1.0  0.60816  0.86734  0.35182  1.0000
  H   H9        1.0  0.05786  0.32678  0.84713  1.0000
  H   H10       1.0  0.94214  0.67322  0.15288  1.0000
  H   H11       1.0  0.35165  0.90776  0.13509  1.0000
  H   H12       1.0  0.64835  0.09224  0.86492  1.0000
  H   H13       1.0  0.04528  0.88662  0.81713  1.0000
  H   H14       1.0  0.95473  0.11338  0.18287  1.0000
  H   H15       1.0  0.08114  0.24096  0.03874  1.0000
  H   H16       1.0  0.91887  0.75904  0.96126  1.0000
  H   H17       1.0  0.26256  0.99576  0.78789  1.0000
  H   H18       1.0  0.73744  0.00424  0.21211  1.0000
  H   H19       1.0  0.33953  0.88709  0.38777  1.0000
  H   H20       1.0  0.66046  0.11291  0.61223  1.0000
  H   H21       1.0  0.30980  0.07009  0.27881  1.0000
  H   H22       1.0  0.69020  0.92991  0.72119  1.0000
  H   H23       1.0  0.20256  0.06570  0.41011  1.0000
  H   H24       1.0  0.79743  0.93430  0.58988  1.0000
  H   H25       1.0  0.56627  0.37886  0.12327  1.0000
  H   H26       1.0  0.43373  0.62114  0.87673  1.0000
  H   H27       1.0  0.60857  0.21936  0.97525  1.0000
  H   H28       1.0  0.39143  0.78063  0.02474  1.0000
  C   C1        1.0  0.28989  0.63868  0.45719  1.0000
  C   C2        1.0  0.71011  0.36132  0.54281  1.0000
  C   C3        1.0  0.20823  0.34920  0.72683  1.0000
  C   C4        1.0  0.79177  0.65080  0.27317  1.0000
  C   C5        1.0  0.00114  0.81981  0.53559  1.0000
  C   C6        1.0  0.99885  0.18019  0.46441  1.0000
  C   C7        1.0  0.04147  0.94656  0.49406  1.0000
  C   C8        1.0  0.95854  0.05344  0.50594  1.0000
  C   C9        1.0  0.07827  0.71952  0.52163  1.0000
  C   C10       1.0  0.92173  0.28048  0.47837  1.0000
  C   C11       1.0  0.19993  0.74250  0.46701  1.0000
  C   C12       1.0  0.80007  0.25750  0.53299  1.0000
  C   C13       1.0  0.31668  0.17134  0.69449  1.0000
  C   C14       1.0  0.68333  0.82866  0.30551  1.0000
  C   C15       1.0  0.48574  0.04875  0.04305  1.0000
  C   C16       1.0  0.51426  0.95124  0.95695  1.0000
  C   C17       1.0  0.07177  0.07350  0.91675  1.0000
  C   C18       1.0  0.92823  0.92650  0.08326  1.0000
  C   C19       1.0  0.14908  0.14985  0.83147  1.0000
  C   C20       1.0  0.85093  0.85015  0.16853  1.0000
  C   C21       1.0  0.42127  0.33174  0.30755  1.0000
  C   C22       1.0  0.57873  0.66826  0.69245  1.0000
  C   C23       1.0  0.43543  0.23504  0.21136  1.0000
  C   C24       1.0  0.56457  0.76496  0.78864  1.0000
  C   C25       1.0  0.13274  0.28029  0.80693  1.0000
  C   C26       1.0  0.86726  0.71971  0.19307  1.0000
  C   C27       1.0  0.40020  0.01046  0.13016  1.0000
  C   C28       1.0  0.59980  0.98954  0.86984  1.0000
  C   C29       1.0  0.02788  0.93651  0.89842  1.0000
  C   C30       1.0  0.97212  0.06349  0.10158  1.0000
  C   C31       1.0  0.04255  0.13563  0.01966  1.0000
  C   C32       1.0  0.95746  0.86437  0.98034  1.0000
  C   C33       1.0  0.24351  0.09575  0.77231  1.0000
  C   C34       1.0  0.75649  0.90425  0.22769  1.0000
  C   C35       1.0  0.24278  0.86874  0.42763  1.0000
  C   C36       1.0  0.75722  0.13126  0.57237  1.0000
  C   C37       1.0  0.37569  0.10170  0.21224  1.0000
  C   C38       1.0  0.62432  0.89830  0.78776  1.0000
  C   C39       1.0  0.16503  0.96840  0.44046  1.0000
  C   C40       1.0  0.83497  0.03160  0.55954  1.0000
  C   C41       1.0  0.51916  0.27507  0.12417  1.0000
  C   C42       1.0  0.48084  0.72492  0.87582  1.0000
  C   C43       1.0  0.54334  0.18393  0.04173  1.0000
  C   C44       1.0  0.45666  0.81607  0.95827  1.0000
  N   N1        1.0  0.29906  0.29579  0.67140  1.0000
  N   N2        1.0  0.70094  0.70421  0.32860  1.0000
  O   O1        1.0  0.40570  0.67353  0.41581  1.0000
  O   O2        1.0  0.59430  0.32647  0.58419  1.0000
  O   O3        1.0  0.24804  0.52493  0.49437  1.0000
  O   O4        1.0  0.75196  0.47508  0.50563  1.0000
  O   O5        1.0  0.49529  0.44693  0.30873  1.0000
  O   O6        1.0  0.50471  0.55306  0.69127  1.0000
  O   O7        1.0  0.34245  0.29148  0.38454  1.0000
  O   O8        1.0  0.65755  0.70852  0.61545  1.0000
