data_image0
_chemical_formula_structural       Cu2H40C34S4Br4O2
_chemical_formula_sum              "Cu2 H40 C34 S4 Br4 O2"
_cell_length_a       7.31504
_cell_length_b       11.827
_cell_length_c       11.6222
_cell_angle_alpha    62.1631
_cell_angle_beta     81.2638
_cell_angle_gamma    87.9129

_space_group_name_H-M_alt    "P 1"
_space_group_IT_number       1

loop_
  _space_group_symop_operation_xyz
  'x, y, z'

loop_
  _atom_site_type_symbol
  _atom_site_label
  _atom_site_symmetry_multiplicity
  _atom_site_fract_x
  _atom_site_fract_y
  _atom_site_fract_z
  _atom_site_occupancy
  Cu  Cu1       1.0  0.22758  0.00862  0.25656  1.0000
  Cu  Cu2       1.0  0.77243  0.99138  0.74343  1.0000
  H   H1        1.0  0.43168  0.73530  0.40206  1.0000
  H   H2        1.0  0.56832  0.26470  0.59794  1.0000
  H   H3        1.0  0.52309  0.77384  0.23546  1.0000
  H   H4        1.0  0.47692  0.22616  0.76455  1.0000
  H   H5        1.0  0.61983  0.59975  0.20025  1.0000
  H   H6        1.0  0.38017  0.40025  0.79975  1.0000
  H   H7        1.0  0.57285  0.37932  0.23508  1.0000
  H   H8        1.0  0.42715  0.62068  0.76491  1.0000
  H   H9        1.0  0.11172  0.31788  0.53841  1.0000
  H   H10       1.0  0.88829  0.68211  0.46159  1.0000
  H   H11       1.0  0.16712  0.53541  0.50964  1.0000
  H   H12       1.0  0.83289  0.46459  0.49036  1.0000
  H   H13       1.0  0.38592  0.13545  0.44097  1.0000
  H   H14       1.0  0.61410  0.86455  0.55902  1.0000
  H   H15       1.0  0.14726  0.17212  0.45211  1.0000
  H   H16       1.0  0.85275  0.82788  0.54789  1.0000
  H   H17       1.0  0.07499  0.87895  0.07449  1.0000
  H   H18       1.0  0.92500  0.12105  0.92552  1.0000
  H   H19       1.0  0.31777  0.86026  0.04668  1.0000
  H   H20       1.0  0.68222  0.13974  0.95332  1.0000
  H   H21       1.0  0.90633  0.63608  0.26424  1.0000
  H   H22       1.0  0.09366  0.36392  0.73576  1.0000
  H   H23       1.0  0.38406  0.70766  0.96963  1.0000
  H   H24       1.0  0.61592  0.29234  0.03037  1.0000
  H   H25       1.0  0.86974  0.41730  0.29176  1.0000
  H   H26       1.0  0.13025  0.58270  0.70825  1.0000
  H   H27       1.0  0.33856  0.49204  0.99043  1.0000
  H   H28       1.0  0.66143  0.50796  0.00957  1.0000
  H   H29       1.0  0.96751  0.25137  0.24464  1.0000
  H   H30       1.0  0.03249  0.74863  0.75537  1.0000
  H   H31       1.0  0.08521  0.29160  0.08353  1.0000
  H   H32       1.0  0.91478  0.70840  0.91648  1.0000
  H   H33       1.0  0.86842  0.03202  0.37530  1.0000
  H   H34       1.0  0.13158  0.96798  0.62470  1.0000
  H   H35       1.0  0.69869  0.09265  0.19874  1.0000
  H   H36       1.0  0.30131  0.90735  0.80125  1.0000
  H   H37       1.0  0.82750  0.97905  0.16246  1.0000
  H   H38       1.0  0.17250  0.02095  0.83753  1.0000
  H   H39       1.0  0.66579  0.92508  0.31114  1.0000
  H   H40       1.0  0.33421  0.07493  0.68886  1.0000
  C   C1        1.0  0.41088  0.72234  0.31724  1.0000
  C   C2        1.0  0.58912  0.27765  0.68277  1.0000
  C   C3        1.0  0.39507  0.58367  0.35087  1.0000
  C   C4        1.0  0.60493  0.41632  0.64914  1.0000
  C   C5        1.0  0.51201  0.53652  0.27768  1.0000
  C   C6        1.0  0.48800  0.46348  0.72232  1.0000
  C   C7        1.0  0.48472  0.41259  0.29681  1.0000
  C   C8        1.0  0.51529  0.58742  0.70319  1.0000
  C   C9        1.0  0.33557  0.33461  0.38620  1.0000
  C   C10       1.0  0.66444  0.66539  0.61380  1.0000
  C   C11       1.0  0.22727  0.37830  0.46667  1.0000
  C   C12       1.0  0.77274  0.62169  0.53333  1.0000
  C   C13       1.0  0.25811  0.50090  0.45021  1.0000
  C   C14       1.0  0.74190  0.49910  0.54979  1.0000
  C   C15       1.0  0.28514  0.20815  0.39489  1.0000
  C   C16       1.0  0.71487  0.79185  0.60511  1.0000
  C   C17       1.0  0.18782  0.81352  0.11082  1.0000
  C   C18       1.0  0.81217  0.18648  0.88919  1.0000
  C   C19       1.0  0.15000  0.68637  0.11697  1.0000
  C   C20       1.0  0.84999  0.31363  0.88303  1.0000
  C   C21       1.0  0.26695  0.64575  0.03724  1.0000
  C   C22       1.0  0.73303  0.35425  0.96276  1.0000
  C   C23       1.0  0.24221  0.52401  0.04971  1.0000
  C   C24       1.0  0.75778  0.47599  0.95030  1.0000
  C   C25       1.0  0.10329  0.43884  0.14447  1.0000
  C   C26       1.0  0.89670  0.56116  0.85553  1.0000
  C   C27       1.0  0.97979  0.48230  0.21821  1.0000
  C   C28       1.0  0.02021  0.51770  0.78179  1.0000
  C   C29       1.0  0.00111  0.60529  0.20318  1.0000
  C   C30       1.0  0.99888  0.39471  0.79682  1.0000
  C   C31       1.0  0.08954  0.30186  0.17232  1.0000
  C   C32       1.0  0.91045  0.69814  0.82768  1.0000
  C   C33       1.0  0.76839  0.00122  0.24177  1.0000
  C   C34       1.0  0.23161  0.99878  0.75823  1.0000
  S   S1        1.0  0.19598  0.80453  0.27141  1.0000
  S   S2        1.0  0.80402  0.19547  0.72860  1.0000
  S   S3        1.0  0.29322  0.21170  0.23532  1.0000
  S   S4        1.0  0.70678  0.78830  0.76468  1.0000
  Br  Br1       1.0  0.25771  0.88765  0.49208  1.0000
  Br  Br2       1.0  0.74234  0.11236  0.50792  1.0000
  Br  Br3       1.0  0.28446  0.11995  0.01822  1.0000
  Br  Br4       1.0  0.71553  0.88004  0.98178  1.0000
  O   O1        1.0  0.91704  0.00850  0.30542  1.0000
  O   O2        1.0  0.08296  0.99150  0.69458  1.0000
