data_image0
_chemical_formula_structural       MnH22C26N4O6
_chemical_formula_sum              "Mn1 H22 C26 N4 O6"
_cell_length_a       5.09187
_cell_length_b       7.34712
_cell_length_c       14.6218
_cell_angle_alpha    98.4823
_cell_angle_beta     89.1923
_cell_angle_gamma    94.72

_space_group_name_H-M_alt    "P 1"
_space_group_IT_number       1

loop_
  _space_group_symop_operation_xyz
  'x, y, z'

loop_
  _atom_site_type_symbol
  _atom_site_label
  _atom_site_symmetry_multiplicity
  _atom_site_fract_x
  _atom_site_fract_y
  _atom_site_fract_z
  _atom_site_occupancy
  Mn  Mn1       1.0  0.50000  0.50000  0.50001  1.0000
  H   H1        1.0  0.11394  0.54650  0.05369  1.0000
  H   H2        1.0  0.88606  0.45352  0.94631  1.0000
  H   H3        1.0  0.06760  0.86378  0.12665  1.0000
  H   H4        1.0  0.93240  0.13623  0.87335  1.0000
  H   H5        1.0  0.68847  0.81605  0.31864  1.0000
  H   H6        1.0  0.31156  0.18398  0.68137  1.0000
  H   H7        1.0  0.74770  0.50434  0.23916  1.0000
  H   H8        1.0  0.25236  0.49566  0.76084  1.0000
  H   H9        1.0  0.31018  0.07230  0.00451  1.0000
  H   H10       1.0  0.68986  0.92770  0.99548  1.0000
  H   H11       1.0  0.27561  0.28776  0.96644  1.0000
  H   H12       1.0  0.72442  0.71227  0.03356  1.0000
  H   H13       1.0  0.06754  0.22111  0.05605  1.0000
  H   H14       1.0  0.93247  0.77891  0.94395  1.0000
  H   H15       1.0  0.97013  0.09988  0.20995  1.0000
  H   H16       1.0  0.02988  0.90012  0.79005  1.0000
  H   H17       1.0  0.04115  0.42214  0.33450  1.0000
  H   H18       1.0  0.95884  0.57785  0.66551  1.0000
  H   H19       1.0  0.66794  0.10021  0.36711  1.0000
  H   H20       1.0  0.33205  0.89982  0.63289  1.0000
  H   H21       1.0  0.29118  0.07478  0.51394  1.0000
  H   H22       1.0  0.70873  0.92516  0.48604  1.0000
  C   C1        1.0  0.43691  0.50186  0.14039  1.0000
  C   C2        1.0  0.56307  0.49816  0.85962  1.0000
  C   C3        1.0  0.24384  0.60565  0.11072  1.0000
  C   C4        1.0  0.75615  0.39436  0.88928  1.0000
  C   C5        1.0  0.21491  0.78521  0.15245  1.0000
  C   C6        1.0  0.78507  0.21476  0.84756  1.0000
  C   C7        1.0  0.37429  0.86330  0.22780  1.0000
  C   C8        1.0  0.62574  0.13670  0.77221  1.0000
  C   C9        1.0  0.56822  0.76133  0.25846  1.0000
  C   C10       1.0  0.43182  0.23866  0.74154  1.0000
  C   C11       1.0  0.60000  0.58405  0.21438  1.0000
  C   C12       1.0  0.39998  0.41594  0.78562  1.0000
  C   C13       1.0  0.46966  0.30896  0.09689  1.0000
  C   C14       1.0  0.53033  0.69106  0.90311  1.0000
  C   C15       1.0  0.26794  0.21558  0.02732  1.0000
  C   C16       1.0  0.73206  0.78441  0.97267  1.0000
  C   C17       1.0  0.12547  0.14645  0.25964  1.0000
  C   C18       1.0  0.87454  0.85359  0.74037  1.0000
  C   C19       1.0  0.16418  0.30737  0.31985  1.0000
  C   C20       1.0  0.83583  0.69264  0.68015  1.0000
  C   C21       1.0  0.49022  0.14516  0.34116  1.0000
  C   C22       1.0  0.50982  0.85483  0.65884  1.0000
  C   C23       1.0  0.97587  0.26325  0.53906  1.0000
  C   C24       1.0  0.02409  0.73672  0.46094  1.0000
  C   C25       1.0  0.07728  0.07801  0.51241  1.0000
  C   C26       1.0  0.92264  0.92195  0.48757  1.0000
  N   N1        1.0  0.33425  0.04209  0.27352  1.0000
  N   N2        1.0  0.66582  0.95794  0.72649  1.0000
  N   N3        1.0  0.39198  0.30508  0.37027  1.0000
  N   N4        1.0  0.60799  0.69490  0.62971  1.0000
  O   O1        1.0  0.65976  0.22759  0.11723  1.0000
  O   O2        1.0  0.34021  0.77242  0.88277  1.0000
  O   O3        1.0  0.14897  0.39632  0.56578  1.0000
  O   O4        1.0  0.85103  0.60363  0.43422  1.0000
  O   O5        1.0  0.72877  0.27860  0.53585  1.0000
  O   O6        1.0  0.27120  0.72139  0.46416  1.0000
