data_image0
_chemical_formula_structural       Er4H36C48N12Cl12O36
_chemical_formula_sum              "Er4 H36 C48 N12 Cl12 O36"
_cell_length_a       12.5378
_cell_length_b       13.5362
_cell_length_c       15.3162
_cell_angle_alpha    114.26
_cell_angle_beta     90.0004
_cell_angle_gamma    90

_space_group_name_H-M_alt    "P 1"
_space_group_IT_number       1

loop_
  _space_group_symop_operation_xyz
  'x, y, z'

loop_
  _atom_site_type_symbol
  _atom_site_label
  _atom_site_symmetry_multiplicity
  _atom_site_fract_x
  _atom_site_fract_y
  _atom_site_fract_z
  _atom_site_occupancy
  Er  Er1       1.0  0.44425  0.16036  0.30562  1.0000
  Er  Er2       1.0  0.94424  0.33965  0.69438  1.0000
  Er  Er3       1.0  0.55575  0.83964  0.69438  1.0000
  Er  Er4       1.0  0.05576  0.66035  0.30561  1.0000
  H   H1        1.0  0.25184  0.95564  0.31892  1.0000
  H   H2        1.0  0.75184  0.54436  0.68108  1.0000
  H   H3        1.0  0.74816  0.04435  0.68108  1.0000
  H   H4        1.0  0.24816  0.45565  0.31892  1.0000
  H   H5        1.0  0.24835  0.83667  0.10730  1.0000
  H   H6        1.0  0.74836  0.66333  0.89270  1.0000
  H   H7        1.0  0.75165  0.16333  0.89270  1.0000
  H   H8        1.0  0.25165  0.33667  0.10730  1.0000
  H   H9        1.0  0.18459  0.80251  0.19189  1.0000
  H   H10       1.0  0.68460  0.69749  0.80811  1.0000
  H   H11       1.0  0.81541  0.19749  0.80811  1.0000
  H   H12       1.0  0.31541  0.30251  0.19189  1.0000
  H   H13       1.0  0.12302  0.29407  0.37000  1.0000
  H   H14       1.0  0.62302  0.20593  0.63000  1.0000
  H   H15       1.0  0.87698  0.70593  0.63000  1.0000
  H   H16       1.0  0.37698  0.79407  0.37000  1.0000
  H   H17       1.0  0.25029  0.19428  0.47583  1.0000
  H   H18       1.0  0.75029  0.30572  0.52417  1.0000
  H   H19       1.0  0.74971  0.80572  0.52416  1.0000
  H   H20       1.0  0.24971  0.69428  0.47584  1.0000
  H   H21       1.0  0.11890  0.24746  0.49853  1.0000
  H   H22       1.0  0.61890  0.25253  0.50148  1.0000
  H   H23       1.0  0.88110  0.75254  0.50147  1.0000
  H   H24       1.0  0.38110  0.74747  0.49853  1.0000
  H   H25       1.0  0.71114  0.08546  0.28462  1.0000
  H   H26       1.0  0.21114  0.41454  0.71538  1.0000
  H   H27       1.0  0.28887  0.91454  0.71539  1.0000
  H   H28       1.0  0.78886  0.58546  0.28462  1.0000
  H   H29       1.0  0.80984  0.27795  0.26968  1.0000
  H   H30       1.0  0.30984  0.22205  0.73032  1.0000
  H   H31       1.0  0.19016  0.72205  0.73032  1.0000
  H   H32       1.0  0.69016  0.77795  0.26968  1.0000
  H   H33       1.0  0.87097  0.16001  0.26725  1.0000
  H   H34       1.0  0.37097  0.33999  0.73275  1.0000
  H   H35       1.0  0.12903  0.83999  0.73275  1.0000
  H   H36       1.0  0.62904  0.66002  0.26725  1.0000
  C   C1        1.0  0.27309  0.94340  0.24531  1.0000
  C   C2        1.0  0.77309  0.55659  0.75469  1.0000
  C   C3        1.0  0.72691  0.05659  0.75469  1.0000
  C   C4        1.0  0.22691  0.44341  0.24531  1.0000
  C   C5        1.0  0.19517  0.25709  0.38533  1.0000
  C   C6        1.0  0.69518  0.24291  0.61467  1.0000
  C   C7        1.0  0.80483  0.74291  0.61467  1.0000
  C   C8        1.0  0.30483  0.75709  0.38533  1.0000
  C   C9        1.0  0.70957  0.16611  0.28316  1.0000
  C   C10       1.0  0.20957  0.33389  0.71683  1.0000
  C   C11       1.0  0.29043  0.83389  0.71684  1.0000
  C   C12       1.0  0.79043  0.66611  0.28317  1.0000
  C   C13       1.0  0.61071  0.98119  0.46617  1.0000
  C   C14       1.0  0.11071  0.51880  0.53382  1.0000
  C   C15       1.0  0.38929  0.01880  0.53383  1.0000
  C   C16       1.0  0.88929  0.48119  0.46617  1.0000
  C   C17       1.0  0.53900  0.03358  0.42866  1.0000
  C   C18       1.0  0.03900  0.46642  0.57134  1.0000
  C   C19       1.0  0.46100  0.96641  0.57134  1.0000
  C   C20       1.0  0.96100  0.53358  0.42866  1.0000
  C   C21       1.0  0.42362  0.05425  0.46445  1.0000
  C   C22       1.0  0.92362  0.44575  0.53555  1.0000
  C   C23       1.0  0.57638  0.94575  0.53556  1.0000
  C   C24       1.0  0.07638  0.55424  0.46444  1.0000
  C   C25       1.0  0.42982  0.07817  0.98509  1.0000
  C   C26       1.0  0.92982  0.42183  0.01491  1.0000
  C   C27       1.0  0.57018  0.92183  0.01491  1.0000
  C   C28       1.0  0.07018  0.57817  0.98509  1.0000
  C   C29       1.0  0.44940  0.08979  0.07866  1.0000
  C   C30       1.0  0.94940  0.41021  0.92135  1.0000
  C   C31       1.0  0.55060  0.91021  0.92134  1.0000
  C   C32       1.0  0.05060  0.58979  0.07866  1.0000
  C   C33       1.0  0.52268  0.00696  0.09364  1.0000
  C   C34       1.0  0.02268  0.49304  0.90637  1.0000
  C   C35       1.0  0.47732  0.99304  0.90636  1.0000
  C   C36       1.0  0.97732  0.50697  0.09363  1.0000
  C   C37       1.0  0.49448  0.53020  0.41876  1.0000
  C   C38       1.0  0.99448  0.96980  0.58124  1.0000
  C   C39       1.0  0.50552  0.46980  0.58124  1.0000
  C   C40       1.0  0.00552  0.03020  0.41876  1.0000
  C   C41       1.0  0.47670  0.42151  0.40473  1.0000
  C   C42       1.0  0.97670  0.07850  0.59527  1.0000
  C   C43       1.0  0.52330  0.57850  0.59527  1.0000
  C   C44       1.0  0.02330  0.92150  0.40473  1.0000
  C   C45       1.0  0.48721  0.38950  0.48948  1.0000
  C   C46       1.0  0.98721  0.11050  0.51052  1.0000
  C   C47       1.0  0.51279  0.61050  0.51052  1.0000
  C   C48       1.0  0.01279  0.88950  0.48948  1.0000
  N   N1        1.0  0.23352  0.85413  0.17724  1.0000
  N   N2        1.0  0.73352  0.64587  0.82276  1.0000
  N   N3        1.0  0.76648  0.14587  0.82276  1.0000
  N   N4        1.0  0.26648  0.35413  0.17724  1.0000
  N   N5        1.0  0.19014  0.23851  0.46366  1.0000
  N   N6        1.0  0.69014  0.26149  0.53634  1.0000
  N   N7        1.0  0.80986  0.76149  0.53634  1.0000
  N   N8        1.0  0.30986  0.73851  0.46366  1.0000
  N   N9        1.0  0.80382  0.20230  0.26798  1.0000
  N   N10       1.0  0.30382  0.29771  0.73202  1.0000
  N   N11       1.0  0.19618  0.79770  0.73202  1.0000
  N   N12       1.0  0.69618  0.70230  0.26798  1.0000
  Cl  Cl1       1.0  0.74178  0.96279  0.42803  1.0000
  Cl  Cl2       1.0  0.24178  0.53721  0.57197  1.0000
  Cl  Cl3       1.0  0.25823  0.03721  0.57197  1.0000
  Cl  Cl4       1.0  0.75822  0.46279  0.42803  1.0000
  Cl  Cl5       1.0  0.34746  0.16729  0.96192  1.0000
  Cl  Cl6       1.0  0.84746  0.33271  0.03809  1.0000
  Cl  Cl7       1.0  0.65254  0.83271  0.03809  1.0000
  Cl  Cl8       1.0  0.15254  0.66729  0.96192  1.0000
  Cl  Cl9       1.0  0.48778  0.56029  0.31918  1.0000
  Cl  Cl10      1.0  0.98778  0.93971  0.68082  1.0000
  Cl  Cl11      1.0  0.51222  0.43971  0.68082  1.0000
  Cl  Cl12      1.0  0.01222  0.06029  0.31918  1.0000
  O   O1        1.0  0.33086  0.00956  0.22910  1.0000
  O   O2        1.0  0.83087  0.49044  0.77090  1.0000
  O   O3        1.0  0.66914  0.99044  0.77090  1.0000
  O   O4        1.0  0.16913  0.50956  0.22910  1.0000
  O   O5        1.0  0.27380  0.23746  0.33019  1.0000
  O   O6        1.0  0.77381  0.26254  0.66981  1.0000
  O   O7        1.0  0.72620  0.76254  0.66980  1.0000
  O   O8        1.0  0.22619  0.73745  0.33019  1.0000
  O   O9        1.0  0.62497  0.21892  0.29515  1.0000
  O   O10       1.0  0.12497  0.28108  0.70485  1.0000
  O   O11       1.0  0.37503  0.78108  0.70486  1.0000
  O   O12       1.0  0.87503  0.71892  0.29515  1.0000
  O   O13       1.0  0.56232  0.06761  0.36580  1.0000
  O   O14       1.0  0.06232  0.43239  0.63419  1.0000
  O   O15       1.0  0.43768  0.93239  0.63419  1.0000
  O   O16       1.0  0.93768  0.56761  0.36580  1.0000
  O   O17       1.0  0.36684  0.10294  0.42621  1.0000
  O   O18       1.0  0.86685  0.39705  0.57379  1.0000
  O   O19       1.0  0.63315  0.89705  0.57378  1.0000
  O   O20       1.0  0.13315  0.60294  0.42621  1.0000
  O   O21       1.0  0.41271  0.16362  0.15505  1.0000
  O   O22       1.0  0.91271  0.33638  0.84495  1.0000
  O   O23       1.0  0.58729  0.83637  0.84495  1.0000
  O   O24       1.0  0.08729  0.66362  0.15505  1.0000
  O   O25       1.0  0.53664  0.02152  0.17953  1.0000
  O   O26       1.0  0.03664  0.47848  0.82048  1.0000
  O   O27       1.0  0.46336  0.97849  0.82047  1.0000
  O   O28       1.0  0.96336  0.52152  0.17952  1.0000
  O   O29       1.0  0.45224  0.34623  0.32592  1.0000
  O   O30       1.0  0.95224  0.15377  0.67408  1.0000
  O   O31       1.0  0.54776  0.65377  0.67408  1.0000
  O   O32       1.0  0.04776  0.84623  0.32592  1.0000
  O   O33       1.0  0.47915  0.28818  0.46752  1.0000
  O   O34       1.0  0.97915  0.21182  0.53248  1.0000
  O   O35       1.0  0.52085  0.71182  0.53248  1.0000
  O   O36       1.0  0.02085  0.78818  0.46752  1.0000
