data_image0
_chemical_formula_structural       U8P8H32C24O48
_chemical_formula_sum              "U8 P8 H32 C24 O48"
_cell_length_a       6.92156
_cell_length_b       15.3493
_cell_length_c       15.3502
_cell_angle_alpha    87.0936
_cell_angle_beta     76.9818
_cell_angle_gamma    76.9747

_space_group_name_H-M_alt    "P 1"
_space_group_IT_number       1

loop_
  _space_group_symop_operation_xyz
  'x, y, z'

loop_
  _atom_site_type_symbol
  _atom_site_label
  _atom_site_symmetry_multiplicity
  _atom_site_fract_x
  _atom_site_fract_y
  _atom_site_fract_z
  _atom_site_occupancy
  U   U1        1.0  0.72965  0.93949  0.46181  1.0000
  U   U2        1.0  0.13097  0.06046  0.53817  1.0000
  U   U3        1.0  0.33090  0.53822  0.93956  1.0000
  U   U4        1.0  0.80851  0.46181  0.06045  1.0000
  U   U5        1.0  0.41148  0.80019  0.19919  1.0000
  U   U6        1.0  0.41098  0.19981  0.80082  1.0000
  U   U7        1.0  0.78827  0.80087  0.80029  1.0000
  U   U8        1.0  0.38907  0.19912  0.19972  1.0000
  P   P1        1.0  0.88965  0.77234  0.29106  1.0000
  P   P2        1.0  0.95303  0.22761  0.70894  1.0000
  P   P3        1.0  0.33806  0.70902  0.77245  1.0000
  P   P4        1.0  0.81914  0.29097  0.22754  1.0000
  P   P5        1.0  0.28413  0.44197  0.13282  1.0000
  P   P6        1.0  0.85904  0.55803  0.86722  1.0000
  P   P7        1.0  0.27383  0.86710  0.44203  1.0000
  P   P8        1.0  0.58307  0.13284  0.55796  1.0000
  H   H1        1.0  0.09835  0.63524  0.15771  1.0000
  H   H2        1.0  0.89102  0.36472  0.84235  1.0000
  H   H3        1.0  0.26597  0.84227  0.63537  1.0000
  H   H4        1.0  0.74400  0.15768  0.36467  1.0000
  H   H5        1.0  0.87539  0.64668  0.44361  1.0000
  H   H6        1.0  0.96614  0.35325  0.55639  1.0000
  H   H7        1.0  0.47877  0.55641  0.64681  1.0000
  H   H8        1.0  0.68023  0.44365  0.35307  1.0000
  H   H9        1.0  0.40624  0.81334  0.99733  1.0000
  H   H10       1.0  0.21685  0.18683  0.00266  1.0000
  H   H11       1.0  0.78035  0.00276  0.81324  1.0000
  H   H12       1.0  0.59603  0.99717  0.18675  1.0000
  H   H13       1.0  0.26165  0.74683  0.03274  1.0000
  H   H14       1.0  0.04110  0.25326  0.96719  1.0000
  H   H15       1.0  0.99154  0.96726  0.74686  1.0000
  H   H16       1.0  0.70547  0.03265  0.25313  1.0000
  H   H17       1.0  0.72759  0.77432  0.01786  1.0000
  H   H18       1.0  0.51968  0.22578  0.98220  1.0000
  H   H19       1.0  0.49807  0.98223  0.77423  1.0000
  H   H20       1.0  0.25411  0.01786  0.22577  1.0000
  H   H21       1.0  0.76127  0.68577  0.07907  1.0000
  H   H22       1.0  0.52608  0.31431  0.92097  1.0000
  H   H23       1.0  0.55303  0.92094  0.68572  1.0000
  H   H24       1.0  0.15945  0.07914  0.31428  1.0000
  H   H25       1.0  0.99850  0.47942  0.44950  1.0000
  H   H26       1.0  0.92792  0.52053  0.55053  1.0000
  H   H27       1.0  0.52364  0.55055  0.47950  1.0000
  H   H28       1.0  0.55103  0.44959  0.52034  1.0000
  H   H29       1.0  0.17624  0.39385  0.31528  1.0000
  H   H30       1.0  0.88526  0.60611  0.68480  1.0000
  H   H31       1.0  0.43089  0.68468  0.39394  1.0000
  H   H32       1.0  0.50854  0.31536  0.60599  1.0000
  C   C1        1.0  0.97605  0.65204  0.29998  1.0000
  C   C2        1.0  0.92797  0.34792  0.70005  1.0000
  C   C3        1.0  0.37212  0.70005  0.65217  1.0000
  C   C4        1.0  0.72378  0.29996  0.34781  1.0000
  C   C5        1.0  0.07536  0.60194  0.22235  1.0000
  C   C6        1.0  0.89946  0.39802  0.77770  1.0000
  C   C7        1.0  0.32259  0.77764  0.60206  1.0000
  C   C8        1.0  0.70225  0.22233  0.39795  1.0000
  C   C9        1.0  0.94974  0.60801  0.38283  1.0000
  C   C10       1.0  0.94080  0.39195  0.61718  1.0000
  C   C11       1.0  0.44291  0.61719  0.60814  1.0000
  C   C12       1.0  0.66687  0.38286  0.39178  1.0000
  C   C13       1.0  0.14852  0.50920  0.22785  1.0000
  C   C14       1.0  0.88545  0.49076  0.77221  1.0000
  C   C15       1.0  0.34238  0.77214  0.50931  1.0000
  C   C16       1.0  0.62365  0.22786  0.49068  1.0000
  C   C17       1.0  0.01956  0.51550  0.38686  1.0000
  C   C18       1.0  0.92220  0.48445  0.61317  1.0000
  C   C19       1.0  0.46592  0.61315  0.51561  1.0000
  C   C20       1.0  0.59298  0.38693  0.48429  1.0000
  C   C21       1.0  0.11987  0.46578  0.31053  1.0000
  C   C22       1.0  0.89620  0.53418  0.68952  1.0000
  C   C23       1.0  0.41500  0.68945  0.46589  1.0000
  C   C24       1.0  0.56943  0.31058  0.53406  1.0000
  O   O1        1.0  0.83589  0.81023  0.38875  1.0000
  O   O2        1.0  0.03445  0.18976  0.61122  1.0000
  O   O3        1.0  0.35409  0.61133  0.81034  1.0000
  O   O4        1.0  0.77535  0.38866  0.18964  1.0000
  O   O5        1.0  0.79448  0.99800  0.35640  1.0000
  O   O6        1.0  0.14867  0.00202  0.64365  1.0000
  O   O7        1.0  0.20777  0.64364  0.99810  1.0000
  O   O8        1.0  0.84894  0.35641  0.00188  1.0000
  O   O9        1.0  0.65192  0.88978  0.57015  1.0000
  O   O10       1.0  0.11189  0.11018  0.42982  1.0000
  O   O11       1.0  0.45832  0.42989  0.88976  1.0000
  O   O12       1.0  0.77793  0.57011  0.11028  1.0000
  O   O13       1.0  0.78684  0.06260  0.55408  1.0000
  O   O14       1.0  0.40355  0.93735  0.44580  1.0000
  O   O15       1.0  0.15060  0.44586  0.06257  1.0000
  O   O16       1.0  0.65914  0.55420  0.93745  1.0000
  O   O17       1.0  0.46563  0.07908  0.51259  1.0000
  O   O18       1.0  0.05734  0.92083  0.48748  1.0000
  O   O19       1.0  0.45526  0.48738  0.07911  1.0000
  O   O20       1.0  0.02185  0.51256  0.92092  1.0000
  O   O21       1.0  0.06191  0.80853  0.22996  1.0000
  O   O22       1.0  0.10078  0.19142  0.76988  1.0000
  O   O23       1.0  0.12956  0.77010  0.80858  1.0000
  O   O24       1.0  0.70793  0.22988  0.19135  1.0000
  O   O25       1.0  0.69491  0.79343  0.25530  1.0000
  O   O26       1.0  0.74380  0.20643  0.74489  1.0000
  O   O27       1.0  0.51157  0.74485  0.79360  1.0000
  O   O28       1.0  0.04959  0.25519  0.20647  1.0000
  O   O29       1.0  0.28640  0.83816  0.34851  1.0000
  O   O30       1.0  0.47346  0.16175  0.65151  1.0000
  O   O31       1.0  0.87541  0.65156  0.83836  1.0000
  O   O32       1.0  0.36491  0.34839  0.16166  1.0000
  O   O33       1.0  0.31457  0.79611  0.05076  1.0000
  O   O34       1.0  0.16141  0.20404  0.94920  1.0000
  O   O35       1.0  0.88929  0.94931  0.79613  1.0000
  O   O36       1.0  0.63433  0.05063  0.20391  1.0000
  O   O37       1.0  0.43177  0.68268  0.22290  1.0000
  O   O38       1.0  0.33770  0.31728  0.77700  1.0000
  O   O39       1.0  0.88536  0.77703  0.68281  1.0000
  O   O40       1.0  0.34504  0.22301  0.31718  1.0000
  O   O41       1.0  0.71831  0.75158  0.07987  1.0000
  O   O42       1.0  0.54973  0.24849  0.92019  1.0000
  O   O43       1.0  0.53021  0.92020  0.75153  1.0000
  O   O44       1.0  0.20145  0.07988  0.24846  1.0000
  O   O45       1.0  0.40392  0.91918  0.17255  1.0000
  O   O46       1.0  0.49570  0.08081  0.82753  1.0000
  O   O47       1.0  0.67678  0.82757  0.91926  1.0000
  O   O48       1.0  0.42300  0.17245  0.08077  1.0000
