data_image0
_chemical_formula_structural       Gd2Cu4H16C16N12Cl2O24
_chemical_formula_sum              "Gd2 Cu4 H16 C16 N12 Cl2 O24"
_cell_length_a       6.29434
_cell_length_b       11.3274
_cell_length_c       12.2949
_cell_angle_alpha    102.278
_cell_angle_beta     89.9986
_cell_angle_gamma    89.9999

_space_group_name_H-M_alt    "P 1"
_space_group_IT_number       1

loop_
  _space_group_symop_operation_xyz
  'x, y, z'

loop_
  _atom_site_type_symbol
  _atom_site_label
  _atom_site_symmetry_multiplicity
  _atom_site_fract_x
  _atom_site_fract_y
  _atom_site_fract_z
  _atom_site_occupancy
  Gd  Gd1       1.0  0.51794  0.75000  0.50000  1.0000
  Gd  Gd2       1.0  0.48207  0.25000  0.50000  1.0000
  Cu  Cu1       1.0  0.13210  0.38687  0.08009  1.0000
  Cu  Cu2       1.0  0.13197  0.11312  0.91986  1.0000
  Cu  Cu3       1.0  0.86791  0.61313  0.91990  1.0000
  Cu  Cu4       1.0  0.86803  0.88688  0.08014  1.0000
  H   H1        1.0  0.72213  0.53028  0.53914  1.0000
  H   H2        1.0  0.72213  0.96973  0.46088  1.0000
  H   H3        1.0  0.27788  0.46972  0.46085  1.0000
  H   H4        1.0  0.27788  0.03027  0.53913  1.0000
  H   H5        1.0  0.79163  0.54262  0.41865  1.0000
  H   H6        1.0  0.79157  0.95738  0.58137  1.0000
  H   H7        1.0  0.20838  0.45738  0.58135  1.0000
  H   H8        1.0  0.20842  0.04261  0.41863  1.0000
  H   H9        1.0  0.72635  0.63997  0.26910  1.0000
  H   H10       1.0  0.72629  0.86004  0.73091  1.0000
  H   H11       1.0  0.27365  0.36003  0.73090  1.0000
  H   H12       1.0  0.27372  0.13997  0.26908  1.0000
  H   H13       1.0  0.70085  0.78326  0.27657  1.0000
  H   H14       1.0  0.70079  0.71675  0.72345  1.0000
  H   H15       1.0  0.29915  0.21674  0.72343  1.0000
  H   H16       1.0  0.29922  0.28325  0.27655  1.0000
  C   C1        1.0  0.28713  0.53761  0.27696  1.0000
  C   C2        1.0  0.28706  0.96237  0.72300  1.0000
  C   C3        1.0  0.71288  0.46239  0.72304  1.0000
  C   C4        1.0  0.71293  0.03763  0.27698  1.0000
  C   C5        1.0  0.20174  0.62053  0.20902  1.0000
  C   C6        1.0  0.20174  0.87946  0.79097  1.0000
  C   C7        1.0  0.79826  0.37947  0.79098  1.0000
  C   C8        1.0  0.79825  0.12054  0.20903  1.0000
  C   C9        1.0  0.21335  0.85373  0.30496  1.0000
  C   C10       1.0  0.21330  0.64627  0.69503  1.0000
  C   C11       1.0  0.78665  0.14627  0.69504  1.0000
  C   C12       1.0  0.78668  0.35373  0.30497  1.0000
  C   C13       1.0  0.15843  0.74411  0.21849  1.0000
  C   C14       1.0  0.15842  0.75588  0.78151  1.0000
  C   C15       1.0  0.84157  0.25589  0.78151  1.0000
  C   C16       1.0  0.84156  0.24412  0.21849  1.0000
  N   N1        1.0  0.11576  0.56287  0.11095  1.0000
  N   N2        1.0  0.11582  0.93712  0.88906  1.0000
  N   N3        1.0  0.88424  0.43713  0.88905  1.0000
  N   N4        1.0  0.88418  0.06288  0.11094  1.0000
  N   N5        1.0  0.02198  0.64252  0.06379  1.0000
  N   N6        1.0  0.02207  0.85747  0.93623  1.0000
  N   N7        1.0  0.97802  0.35748  0.93621  1.0000
  N   N8        1.0  0.97794  0.14252  0.06377  1.0000
  N   N9        1.0  0.04565  0.75279  0.12678  1.0000
  N   N10       1.0  0.04571  0.74720  0.87324  1.0000
  N   N11       1.0  0.95434  0.24721  0.87322  1.0000
  N   N12       1.0  0.95429  0.25280  0.12676  1.0000
  Cl  Cl1       1.0  0.41152  0.24999  0.99999  1.0000
  Cl  Cl2       1.0  0.58848  0.75001  0.00001  1.0000
  O   O1        1.0  0.28543  0.42482  0.22706  1.0000
  O   O2        1.0  0.28532  0.07517  0.77289  1.0000
  O   O3        1.0  0.71458  0.57517  0.77293  1.0000
  O   O4        1.0  0.71466  0.92484  0.22711  1.0000
  O   O5        1.0  0.34876  0.57275  0.37577  1.0000
  O   O6        1.0  0.34871  0.92723  0.62420  1.0000
  O   O7        1.0  0.65126  0.42724  0.62422  1.0000
  O   O8        1.0  0.65128  0.07277  0.37580  1.0000
  O   O9        1.0  0.17243  0.95656  0.28646  1.0000
  O   O10       1.0  0.17235  0.54343  0.71351  1.0000
  O   O11       1.0  0.82756  0.04344  0.71355  1.0000
  O   O12       1.0  0.82765  0.45657  0.28648  1.0000
  O   O13       1.0  0.29785  0.83473  0.39368  1.0000
  O   O14       1.0  0.29783  0.66526  0.60631  1.0000
  O   O15       1.0  0.70215  0.16526  0.60632  1.0000
  O   O16       1.0  0.70217  0.33474  0.39369  1.0000
  O   O17       1.0  0.75945  0.59105  0.49492  1.0000
  O   O18       1.0  0.75944  0.90896  0.50510  1.0000
  O   O19       1.0  0.24055  0.40895  0.50508  1.0000
  O   O20       1.0  0.24056  0.09105  0.49490  1.0000
  O   O21       1.0  0.69608  0.71767  0.31809  1.0000
  O   O22       1.0  0.69603  0.78234  0.68193  1.0000
  O   O23       1.0  0.30392  0.28233  0.68191  1.0000
  O   O24       1.0  0.30398  0.21767  0.31807  1.0000
