data_image0
_chemical_formula_structural       Li2H12C20N2O8
_chemical_formula_sum              "Li2 H12 C20 N2 O8"
_cell_length_a       4.90483
_cell_length_b       7.28731
_cell_length_c       13.4671
_cell_angle_alpha    98.2945
_cell_angle_beta     90
_cell_angle_gamma    90.0002

_space_group_name_H-M_alt    "P 1"
_space_group_IT_number       1

loop_
  _space_group_symop_operation_xyz
  'x, y, z'

loop_
  _atom_site_type_symbol
  _atom_site_label
  _atom_site_symmetry_multiplicity
  _atom_site_fract_x
  _atom_site_fract_y
  _atom_site_fract_z
  _atom_site_occupancy
  Li  Li1       1.0  0.63792  0.37507  0.49868  1.0000
  Li  Li2       1.0  0.13791  0.62493  0.50132  1.0000
  H   H1        1.0  0.65746  0.48554  0.29916  1.0000
  H   H2        1.0  0.15746  0.51446  0.70084  1.0000
  H   H3        1.0  0.32450  0.40719  0.15687  1.0000
  H   H4        1.0  0.82450  0.59281  0.84313  1.0000
  H   H5        1.0  0.29084  0.60478  0.02278  1.0000
  H   H6        1.0  0.79084  0.39521  0.97722  1.0000
  H   H7        1.0  0.58314  0.88458  0.02453  1.0000
  H   H8        1.0  0.08315  0.11542  0.97547  1.0000
  H   H9        1.0  0.42267  0.16180  0.27774  1.0000
  H   H10       1.0  0.92266  0.83820  0.72226  1.0000
  H   H11       1.0  0.42080  0.03065  0.37859  1.0000
  H   H12       1.0  0.92079  0.96934  0.62141  1.0000
  C   C1        1.0  0.00952  0.81297  0.31246  1.0000
  C   C2        1.0  0.50952  0.18703  0.68754  1.0000
  C   C3        1.0  0.80071  0.72870  0.23982  1.0000
  C   C4        1.0  0.30071  0.27130  0.76018  1.0000
  C   C5        1.0  0.64062  0.57156  0.23961  1.0000
  C   C6        1.0  0.14062  0.42844  0.76039  1.0000
  C   C7        1.0  0.45569  0.52894  0.15983  1.0000
  C   C8        1.0  0.95569  0.47106  0.84017  1.0000
  C   C9        1.0  0.43586  0.64095  0.08384  1.0000
  C   C10       1.0  0.93586  0.35905  0.91616  1.0000
  C   C11       1.0  0.59906  0.79947  0.08447  1.0000
  C   C12       1.0  0.09906  0.20053  0.91553  1.0000
  C   C13       1.0  0.78027  0.84058  0.16353  1.0000
  C   C14       1.0  0.28027  0.15942  0.83646  1.0000
  C   C15       1.0  0.97550  0.99705  0.18649  1.0000
  C   C16       1.0  0.47550  0.00295  0.81351  1.0000
  C   C17       1.0  0.29008  0.10159  0.33004  1.0000
  C   C18       1.0  0.79008  0.89841  0.66996  1.0000
  C   C19       1.0  0.13332  0.25783  0.39522  1.0000
  C   C20       1.0  0.63331  0.74217  0.60478  1.0000
  N   N1        1.0  0.11112  0.96744  0.27454  1.0000
  N   N2        1.0  0.61112  0.03257  0.72546  1.0000
  O   O1        1.0  0.08689  0.76517  0.39163  1.0000
  O   O2        1.0  0.58689  0.23483  0.60837  1.0000
  O   O3        1.0  0.01846  0.12894  0.14132  1.0000
  O   O4        1.0  0.51846  0.87106  0.85868  1.0000
  O   O5        1.0  0.28079  0.38609  0.44213  1.0000
  O   O6        1.0  0.78078  0.61391  0.55787  1.0000
  O   O7        1.0  0.87762  0.24931  0.39794  1.0000
  O   O8        1.0  0.37760  0.75069  0.60207  1.0000
