data_image0
_chemical_formula_structural       Ho2Cu4H16C16N12Cl2O24
_chemical_formula_sum              "Ho2 Cu4 H16 C16 N12 Cl2 O24"
_cell_length_a       6.30327
_cell_length_b       11.3156
_cell_length_c       12.2455
_cell_angle_alpha    102.35
_cell_angle_beta     89.9957
_cell_angle_gamma    90.0511

_space_group_name_H-M_alt    "P 1"
_space_group_IT_number       1

loop_
  _space_group_symop_operation_xyz
  'x, y, z'

loop_
  _atom_site_type_symbol
  _atom_site_label
  _atom_site_symmetry_multiplicity
  _atom_site_fract_x
  _atom_site_fract_y
  _atom_site_fract_z
  _atom_site_occupancy
  Ho  Ho1       1.0  0.48503  0.74999  0.99988  1.0000
  Ho  Ho2       1.0  0.51462  0.24980  0.99995  1.0000
  Cu  Cu1       1.0  0.13527  0.88660  0.57973  1.0000
  Cu  Cu2       1.0  0.12916  0.61339  0.41851  1.0000
  Cu  Cu3       1.0  0.86972  0.11313  0.41967  1.0000
  Cu  Cu4       1.0  0.86719  0.38639  0.58050  1.0000
  H   H1        1.0  0.28648  0.53239  0.04011  1.0000
  H   H2        1.0  0.28659  0.96760  0.95974  1.0000
  H   H3        1.0  0.71305  0.46751  0.95971  1.0000
  H   H4        1.0  0.71327  0.03251  0.04022  1.0000
  H   H5        1.0  0.21543  0.54433  0.91931  1.0000
  H   H6        1.0  0.21581  0.95556  0.08055  1.0000
  H   H7        1.0  0.78412  0.45565  0.08052  1.0000
  H   H8        1.0  0.78457  0.04434  0.91940  1.0000
  H   H9        1.0  0.30130  0.78272  0.77827  1.0000
  H   H10       1.0  0.30056  0.71730  0.22145  1.0000
  H   H11       1.0  0.69959  0.21738  0.22160  1.0000
  H   H12       1.0  0.69889  0.28283  0.77858  1.0000
  H   H13       1.0  0.27523  0.63945  0.77148  1.0000
  H   H14       1.0  0.27584  0.86070  0.22824  1.0000
  H   H15       1.0  0.72446  0.36074  0.22835  1.0000
  H   H16       1.0  0.72437  0.13944  0.77156  1.0000
  C   C1        1.0  0.78611  0.85357  0.80698  1.0000
  C   C2        1.0  0.78560  0.64647  0.19319  1.0000
  C   C3        1.0  0.21460  0.14618  0.19350  1.0000
  C   C4        1.0  0.21401  0.35371  0.80682  1.0000
  C   C5        1.0  0.84176  0.74421  0.71984  1.0000
  C   C6        1.0  0.84251  0.75587  0.28002  1.0000
  C   C7        1.0  0.15816  0.25561  0.28038  1.0000
  C   C8        1.0  0.15734  0.24435  0.71991  1.0000
  C   C9        1.0  0.79885  0.62045  0.71020  1.0000
  C   C10       1.0  0.79960  0.87955  0.28987  1.0000
  C   C11       1.0  0.20089  0.37934  0.28995  1.0000
  C   C12       1.0  0.20002  0.12059  0.71036  1.0000
  C   C13       1.0  0.71349  0.53780  0.77844  1.0000
  C   C14       1.0  0.71414  0.96245  0.22192  1.0000
  C   C15       1.0  0.28602  0.46198  0.22161  1.0000
  C   C16       1.0  0.28651  0.03788  0.77829  1.0000
  N   N1        1.0  0.95317  0.75313  0.62743  1.0000
  N   N2        1.0  0.95576  0.74720  0.37191  1.0000
  N   N3        1.0  0.04574  0.24707  0.37263  1.0000
  N   N4        1.0  0.04528  0.25297  0.62761  1.0000
  N   N5        1.0  0.97639  0.64306  0.56387  1.0000
  N   N6        1.0  0.98001  0.85751  0.43531  1.0000
  N   N7        1.0  0.02170  0.35691  0.43582  1.0000
  N   N8        1.0  0.02170  0.14278  0.56452  1.0000
  N   N9        1.0  0.88350  0.56265  0.61144  1.0000
  N   N10       1.0  0.88603  0.93723  0.38827  1.0000
  N   N11       1.0  0.11534  0.43728  0.38848  1.0000
  N   N12       1.0  0.11441  0.06280  0.61184  1.0000
  Cl  Cl1       1.0  0.41099  0.74982  0.50039  1.0000
  Cl  Cl2       1.0  0.58884  0.24906  0.50025  1.0000
  O   O1        1.0  0.70180  0.83416  0.89596  1.0000
  O   O2        1.0  0.70134  0.66596  0.10431  1.0000
  O   O3        1.0  0.29863  0.16564  0.10450  1.0000
  O   O4        1.0  0.29845  0.33416  0.89568  1.0000
  O   O5        1.0  0.82586  0.95676  0.78866  1.0000
  O   O6        1.0  0.82457  0.54334  0.21179  1.0000
  O   O7        1.0  0.17558  0.04301  0.21209  1.0000
  O   O8        1.0  0.17481  0.45689  0.78843  1.0000
  O   O9        1.0  0.65101  0.57323  0.87744  1.0000
  O   O10       1.0  0.65076  0.92724  0.12307  1.0000
  O   O11       1.0  0.34895  0.42665  0.12272  1.0000
  O   O12       1.0  0.34819  0.07333  0.87747  1.0000
  O   O13       1.0  0.71564  0.42465  0.72865  1.0000
  O   O14       1.0  0.71766  0.07552  0.27191  1.0000
  O   O15       1.0  0.28280  0.57518  0.27125  1.0000
  O   O16       1.0  0.28605  0.92497  0.72805  1.0000
  O   O17       1.0  0.24972  0.59324  0.99559  1.0000
  O   O18       1.0  0.25002  0.90672  0.00433  1.0000
  O   O19       1.0  0.74975  0.40671  0.00433  1.0000
  O   O20       1.0  0.74994  0.09331  0.99559  1.0000
  O   O21       1.0  0.31021  0.71714  0.81978  1.0000
  O   O22       1.0  0.31025  0.78292  0.18002  1.0000
  O   O23       1.0  0.68962  0.28298  0.18015  1.0000
  O   O24       1.0  0.68938  0.21706  0.81988  1.0000
