data_image0
_chemical_formula_structural       K4H24C22N6O10F12
_chemical_formula_sum              "K4 H24 C22 N6 O10 F12"
_cell_length_a       7.26638
_cell_length_b       11.0469
_cell_length_c       11.1476
_cell_angle_alpha    84.8003
_cell_angle_beta     84.5875
_cell_angle_gamma    80.8703

_space_group_name_H-M_alt    "P 1"
_space_group_IT_number       1

loop_
  _space_group_symop_operation_xyz
  'x, y, z'

loop_
  _atom_site_type_symbol
  _atom_site_label
  _atom_site_symmetry_multiplicity
  _atom_site_fract_x
  _atom_site_fract_y
  _atom_site_fract_z
  _atom_site_occupancy
  K   K1        1.0  0.63674  0.65746  0.00277  1.0000
  K   K2        1.0  0.36324  0.34256  0.99709  1.0000
  K   K3        1.0  0.22795  0.97807  0.10647  1.0000
  K   K4        1.0  0.77209  0.02192  0.89348  1.0000
  H   H1        1.0  0.47483  0.44269  0.37234  1.0000
  H   H2        1.0  0.52518  0.55731  0.62767  1.0000
  H   H3        1.0  0.69071  0.48638  0.40010  1.0000
  H   H4        1.0  0.30929  0.51361  0.59990  1.0000
  H   H5        1.0  0.59868  0.36815  0.49571  1.0000
  H   H6        1.0  0.40132  0.63187  0.50429  1.0000
  H   H7        1.0  0.45208  0.25146  0.28659  1.0000
  H   H8        1.0  0.54790  0.74854  0.71343  1.0000
  H   H9        1.0  0.56531  0.16376  0.40762  1.0000
  H   H10       1.0  0.43468  0.83625  0.59240  1.0000
  H   H11       1.0  0.65317  0.14117  0.25526  1.0000
  H   H12       1.0  0.34682  0.85883  0.74475  1.0000
  H   H13       1.0  0.09715  0.09924  0.41986  1.0000
  H   H14       1.0  0.90285  0.90078  0.58015  1.0000
  H   H15       1.0  0.89971  0.06143  0.35643  1.0000
  H   H16       1.0  0.10030  0.93859  0.64358  1.0000
  H   H17       1.0  0.87252  0.12739  0.49850  1.0000
  H   H18       1.0  0.12748  0.87262  0.50151  1.0000
  H   H19       1.0  0.16415  0.30839  0.41328  1.0000
  H   H20       1.0  0.83585  0.69162  0.58675  1.0000
  H   H21       1.0  0.95829  0.33842  0.51166  1.0000
  H   H22       1.0  0.04169  0.66158  0.48835  1.0000
  H   H23       1.0  0.99197  0.43729  0.37846  1.0000
  H   H24       1.0  0.00803  0.56273  0.62156  1.0000
  C   C1        1.0  0.71129  0.90329  0.17522  1.0000
  C   C2        1.0  0.28871  0.09671  0.82478  1.0000
  C   C3        1.0  0.61824  0.86583  0.30358  1.0000
  C   C4        1.0  0.38177  0.13417  0.69642  1.0000
  C   C5        1.0  0.71140  0.31002  0.32101  1.0000
  C   C6        1.0  0.28859  0.68997  0.67901  1.0000
  C   C7        1.0  0.61431  0.40828  0.40230  1.0000
  C   C8        1.0  0.38569  0.59173  0.59770  1.0000
  C   C9        1.0  0.58857  0.21002  0.31751  1.0000
  C   C10       1.0  0.41142  0.78998  0.68251  1.0000
  C   C11       1.0  0.91983  0.25788  0.34737  1.0000
  C   C12       1.0  0.08015  0.74213  0.65266  1.0000
  C   C13       1.0  0.94801  0.12799  0.40852  1.0000
  C   C14       1.0  0.05199  0.87202  0.59149  1.0000
  C   C15       1.0  0.01339  0.34192  0.41671  1.0000
  C   C16       1.0  0.98659  0.65810  0.58330  1.0000
  C   C17       1.0  0.90515  0.32045  0.13866  1.0000
  C   C18       1.0  0.09485  0.67954  0.86134  1.0000
  C   C19       1.0  0.86071  0.31733  0.93991  1.0000
  C   C20       1.0  0.13928  0.68265  0.06009  1.0000
  C   C21       1.0  0.90983  0.37509  0.81188  1.0000
  C   C22       1.0  0.09017  0.62488  0.18813  1.0000
  N   N1        1.0  0.73647  0.36479  0.19344  1.0000
  N   N2        1.0  0.26352  0.63520  0.80655  1.0000
  N   N3        1.0  0.01335  0.25595  0.22179  1.0000
  N   N4        1.0  0.98667  0.74406  0.77820  1.0000
  N   N5        1.0  0.96556  0.34457  0.02177  1.0000
  N   N6        1.0  0.03444  0.65542  0.97822  1.0000
  O   O1        1.0  0.86461  0.94249  0.17055  1.0000
  O   O2        1.0  0.13538  0.05753  0.82946  1.0000
  O   O3        1.0  0.61371  0.89022  0.09074  1.0000
  O   O4        1.0  0.38630  0.10978  0.90926  1.0000
  O   O5        1.0  0.60417  0.43546  0.14035  1.0000
  O   O6        1.0  0.39584  0.56455  0.85965  1.0000
  O   O7        1.0  0.18426  0.20392  0.19806  1.0000
  O   O8        1.0  0.81574  0.79607  0.80194  1.0000
  O   O9        1.0  0.72793  0.25613  0.95090  1.0000
  O   O10       1.0  0.27209  0.74386  0.04910  1.0000
  F   F1        1.0  0.57634  0.74885  0.31100  1.0000
  F   F2        1.0  0.42368  0.25115  0.68900  1.0000
  F   F3        1.0  0.72351  0.87257  0.39635  1.0000
  F   F4        1.0  0.27648  0.12744  0.60365  1.0000
  F   F5        1.0  0.45045  0.94179  0.32654  1.0000
  F   F6        1.0  0.54952  0.05819  0.67345  1.0000
  F   F7        1.0  0.86667  0.30947  0.72397  1.0000
  F   F8        1.0  0.13335  0.69048  0.27604  1.0000
  F   F9        1.0  0.80778  0.49058  0.79734  1.0000
  F   F10       1.0  0.19225  0.50938  0.20266  1.0000
  F   F11       1.0  0.09398  0.38846  0.78885  1.0000
  F   F12       1.0  0.90602  0.61151  0.21115  1.0000
