data_image0
_chemical_formula_structural       Cu4H36C52N8O4
_chemical_formula_sum              "Cu4 H36 C52 N8 O4"
_cell_length_a       8.90129
_cell_length_b       9.02984
_cell_length_c       13.7785
_cell_angle_alpha    100.715
_cell_angle_beta     89.9997
_cell_angle_gamma    90.0005

_space_group_name_H-M_alt    "P 1"
_space_group_IT_number       1

loop_
  _space_group_symop_operation_xyz
  'x, y, z'

loop_
  _atom_site_type_symbol
  _atom_site_label
  _atom_site_symmetry_multiplicity
  _atom_site_fract_x
  _atom_site_fract_y
  _atom_site_fract_z
  _atom_site_occupancy
  Cu  Cu1       1.0  0.36651  0.87725  0.19969  1.0000
  Cu  Cu2       1.0  0.86650  0.62276  0.80032  1.0000
  Cu  Cu3       1.0  0.63350  0.12276  0.80033  1.0000
  Cu  Cu4       1.0  0.13350  0.37725  0.19968  1.0000
  H   H1        1.0  0.50624  0.67642  0.01734  1.0000
  H   H2        1.0  0.00623  0.82358  0.98266  1.0000
  H   H3        1.0  0.49376  0.32359  0.98267  1.0000
  H   H4        1.0  0.99377  0.17640  0.01734  1.0000
  H   H5        1.0  0.75123  0.54629  0.97685  1.0000
  H   H6        1.0  0.25123  0.95370  0.02315  1.0000
  H   H7        1.0  0.24877  0.45372  0.02316  1.0000
  H   H8        1.0  0.74877  0.04629  0.97684  1.0000
  H   H9        1.0  0.96504  0.60264  0.10015  1.0000
  H   H10       1.0  0.46504  0.89734  0.89984  1.0000
  H   H11       1.0  0.03496  0.39736  0.89984  1.0000
  H   H12       1.0  0.53496  0.10266  0.10015  1.0000
  H   H13       1.0  0.92115  0.78641  0.25533  1.0000
  H   H14       1.0  0.42114  0.71359  0.74466  1.0000
  H   H15       1.0  0.07886  0.21360  0.74466  1.0000
  H   H16       1.0  0.57885  0.28641  0.25533  1.0000
  H   H17       1.0  0.92500  0.04407  0.26658  1.0000
  H   H18       1.0  0.42497  0.45593  0.73342  1.0000
  H   H19       1.0  0.07502  0.95594  0.73343  1.0000
  H   H20       1.0  0.57501  0.54406  0.26657  1.0000
  H   H21       1.0  0.09694  0.19692  0.38389  1.0000
  H   H22       1.0  0.59692  0.30308  0.61611  1.0000
  H   H23       1.0  0.90306  0.80308  0.61612  1.0000
  H   H24       1.0  0.40306  0.69692  0.38388  1.0000
  H   H25       1.0  0.03412  0.25882  0.56283  1.0000
  H   H26       1.0  0.53411  0.24118  0.43717  1.0000
  H   H27       1.0  0.96590  0.74118  0.43718  1.0000
  H   H28       1.0  0.46590  0.75882  0.56282  1.0000
  H   H29       1.0  0.80195  0.15398  0.62526  1.0000
  H   H30       1.0  0.30195  0.34602  0.37474  1.0000
  H   H31       1.0  0.19806  0.84602  0.37476  1.0000
  H   H32       1.0  0.69805  0.65398  0.62525  1.0000
  H   H33       1.0  0.62720  0.99958  0.50769  1.0000
  H   H34       1.0  0.12719  0.50042  0.49230  1.0000
  H   H35       1.0  0.37281  0.00042  0.49231  1.0000
  H   H36       1.0  0.87281  0.49957  0.50769  1.0000
  C   C1        1.0  0.27931  0.06420  0.19647  1.0000
  C   C2        1.0  0.77929  0.43582  0.80354  1.0000
  C   C3        1.0  0.72069  0.93581  0.80354  1.0000
  C   C4        1.0  0.22070  0.56419  0.19646  1.0000
  C   C5        1.0  0.60115  0.69923  0.06808  1.0000
  C   C6        1.0  0.10114  0.80077  0.93192  1.0000
  C   C7        1.0  0.39885  0.30078  0.93193  1.0000
  C   C8        1.0  0.89885  0.19922  0.06808  1.0000
  C   C9        1.0  0.73834  0.62632  0.04599  1.0000
  C   C10       1.0  0.23834  0.87367  0.95401  1.0000
  C   C11       1.0  0.26165  0.37368  0.95402  1.0000
  C   C12       1.0  0.76166  0.12632  0.04598  1.0000
  C   C13       1.0  0.85648  0.65873  0.11322  1.0000
  C   C14       1.0  0.35647  0.84126  0.88678  1.0000
  C   C15       1.0  0.14353  0.34128  0.88678  1.0000
  C   C16       1.0  0.64352  0.15873  0.11321  1.0000
  C   C17       1.0  0.83259  0.76260  0.20008  1.0000
  C   C18       1.0  0.33258  0.73740  0.79991  1.0000
  C   C19       1.0  0.16742  0.23741  0.79992  1.0000
  C   C20       1.0  0.66742  0.26259  0.20008  1.0000
  C   C21       1.0  0.69166  0.83156  0.21720  1.0000
  C   C22       1.0  0.19164  0.66844  0.78280  1.0000
  C   C23       1.0  0.30835  0.16844  0.78280  1.0000
  C   C24       1.0  0.80835  0.33156  0.21720  1.0000
  C   C25       1.0  0.64968  0.93331  0.31097  1.0000
  C   C26       1.0  0.14966  0.56668  0.68902  1.0000
  C   C27       1.0  0.35033  0.06669  0.68904  1.0000
  C   C28       1.0  0.85033  0.43331  0.31096  1.0000
  C   C29       1.0  0.76298  0.01237  0.37909  1.0000
  C   C30       1.0  0.26296  0.48763  0.62090  1.0000
  C   C31       1.0  0.23703  0.98763  0.62092  1.0000
  C   C32       1.0  0.73702  0.51237  0.37908  1.0000
  C   C33       1.0  0.89751  0.06645  0.34502  1.0000
  C   C34       1.0  0.39749  0.43355  0.65498  1.0000
  C   C35       1.0  0.10250  0.93356  0.65499  1.0000
  C   C36       1.0  0.60250  0.56644  0.34501  1.0000
  C   C37       1.0  0.99410  0.15451  0.41130  1.0000
  C   C38       1.0  0.49408  0.34549  0.58870  1.0000
  C   C39       1.0  0.00591  0.84550  0.58870  1.0000
  C   C40       1.0  0.50591  0.65449  0.41130  1.0000
  C   C41       1.0  0.95849  0.18853  0.51163  1.0000
  C   C42       1.0  0.45848  0.31147  0.48837  1.0000
  C   C43       1.0  0.04152  0.81147  0.48837  1.0000
  C   C44       1.0  0.54152  0.68852  0.51163  1.0000
  C   C45       1.0  0.82729  0.13141  0.54644  1.0000
  C   C46       1.0  0.32728  0.36859  0.45357  1.0000
  C   C47       1.0  0.17272  0.86858  0.45357  1.0000
  C   C48       1.0  0.67271  0.63142  0.54643  1.0000
  C   C49       1.0  0.72936  0.04446  0.48068  1.0000
  C   C50       1.0  0.22935  0.45555  0.51932  1.0000
  C   C51       1.0  0.27064  0.95554  0.51932  1.0000
  C   C52       1.0  0.77064  0.54446  0.48068  1.0000
  N   N1        1.0  0.23006  0.18588  0.19802  1.0000
  N   N2        1.0  0.73004  0.31413  0.80200  1.0000
  N   N3        1.0  0.76994  0.81413  0.80200  1.0000
  N   N4        1.0  0.26995  0.68588  0.19801  1.0000
  N   N5        1.0  0.57658  0.79959  0.15163  1.0000
  N   N6        1.0  0.07657  0.70041  0.84837  1.0000
  N   N7        1.0  0.42342  0.20041  0.84838  1.0000
  N   N8        1.0  0.92343  0.29958  0.15162  1.0000
  O   O1        1.0  0.51287  0.94953  0.33105  1.0000
  O   O2        1.0  0.01285  0.55046  0.66894  1.0000
  O   O3        1.0  0.48714  0.05046  0.66895  1.0000
  O   O4        1.0  0.98713  0.44954  0.33105  1.0000
