data_image0
_chemical_formula_structural       Tl4H56C40S4N4O8
_chemical_formula_sum              "Tl4 H56 C40 S4 N4 O8"
_cell_length_a       8.69217
_cell_length_b       10.5651
_cell_length_c       13.3988
_cell_angle_alpha    89.9999
_cell_angle_beta     89.9999
_cell_angle_gamma    89.9998

_space_group_name_H-M_alt    "P 1"
_space_group_IT_number       1

loop_
  _space_group_symop_operation_xyz
  'x, y, z'

loop_
  _atom_site_type_symbol
  _atom_site_label
  _atom_site_symmetry_multiplicity
  _atom_site_fract_x
  _atom_site_fract_y
  _atom_site_fract_z
  _atom_site_occupancy
  Tl  Tl1       1.0  0.46893  0.22550  0.59590  1.0000
  Tl  Tl2       1.0  0.03107  0.77450  0.09590  1.0000
  Tl  Tl3       1.0  0.96893  0.27450  0.40410  1.0000
  Tl  Tl4       1.0  0.53107  0.72550  0.90410  1.0000
  H   H1        1.0  0.46252  0.46434  0.15145  1.0000
  H   H2        1.0  0.03748  0.53566  0.65145  1.0000
  H   H3        1.0  0.96252  0.03566  0.84855  1.0000
  H   H4        1.0  0.53748  0.96434  0.34855  1.0000
  H   H5        1.0  0.65983  0.54344  0.27023  1.0000
  H   H6        1.0  0.84017  0.45656  0.77023  1.0000
  H   H7        1.0  0.15983  0.95656  0.72978  1.0000
  H   H8        1.0  0.34017  0.04344  0.22977  1.0000
  H   H9        1.0  0.66546  0.44803  0.44381  1.0000
  H   H10       1.0  0.83454  0.55197  0.94381  1.0000
  H   H11       1.0  0.16546  0.05197  0.55619  1.0000
  H   H12       1.0  0.33454  0.94803  0.05619  1.0000
  H   H13       1.0  0.11680  0.36220  0.00256  1.0000
  H   H14       1.0  0.38319  0.63780  0.50256  1.0000
  H   H15       1.0  0.61680  0.13780  0.99745  1.0000
  H   H16       1.0  0.88319  0.86220  0.49744  1.0000
  H   H17       1.0  0.09335  0.20167  0.03840  1.0000
  H   H18       1.0  0.40665  0.79833  0.53840  1.0000
  H   H19       1.0  0.59335  0.29833  0.96160  1.0000
  H   H20       1.0  0.90665  0.70167  0.46160  1.0000
  H   H21       1.0  0.34597  0.29657  0.89404  1.0000
  H   H22       1.0  0.15403  0.70343  0.39404  1.0000
  H   H23       1.0  0.84597  0.20343  0.10596  1.0000
  H   H24       1.0  0.65403  0.79657  0.60596  1.0000
  H   H25       1.0  0.17090  0.22348  0.85778  1.0000
  H   H26       1.0  0.32910  0.77652  0.35777  1.0000
  H   H27       1.0  0.67090  0.27652  0.14222  1.0000
  H   H28       1.0  0.82910  0.72348  0.64223  1.0000
  H   H29       1.0  0.30939  0.13579  0.92576  1.0000
  H   H30       1.0  0.19061  0.86421  0.42576  1.0000
  H   H31       1.0  0.80939  0.36421  0.07424  1.0000
  H   H32       1.0  0.69061  0.63579  0.57424  1.0000
  H   H33       1.0  0.25100  0.35514  0.69963  1.0000
  H   H34       1.0  0.24900  0.64486  0.19963  1.0000
  H   H35       1.0  0.75100  0.14486  0.30037  1.0000
  H   H36       1.0  0.74900  0.85514  0.80037  1.0000
  H   H37       1.0  0.27562  0.42466  0.57818  1.0000
  H   H38       1.0  0.22437  0.57534  0.07818  1.0000
  H   H39       1.0  0.77563  0.07534  0.42182  1.0000
  H   H40       1.0  0.72437  0.92466  0.92182  1.0000
  H   H41       1.0  0.41372  0.45590  0.67588  1.0000
  H   H42       1.0  0.08627  0.54410  0.17588  1.0000
  H   H43       1.0  0.91373  0.04410  0.32412  1.0000
  H   H44       1.0  0.58627  0.95590  0.82412  1.0000
  H   H45       1.0  0.48527  0.97353  0.63252  1.0000
  H   H46       1.0  0.01473  0.02647  0.13252  1.0000
  H   H47       1.0  0.98527  0.52647  0.36748  1.0000
  H   H48       1.0  0.51473  0.47353  0.86748  1.0000
  H   H49       1.0  0.67475  0.03198  0.60653  1.0000
  H   H50       1.0  0.82524  0.96802  0.10653  1.0000
  H   H51       1.0  0.17475  0.46802  0.39347  1.0000
  H   H52       1.0  0.32524  0.53198  0.89347  1.0000
  H   H53       1.0  0.54172  0.00357  0.50565  1.0000
  H   H54       1.0  0.95828  0.99643  0.00565  1.0000
  H   H55       1.0  0.04172  0.49643  0.49435  1.0000
  H   H56       1.0  0.45828  0.50357  0.99435  1.0000
  C   C1        1.0  0.37650  0.27946  0.35402  1.0000
  C   C2        1.0  0.12351  0.72054  0.85402  1.0000
  C   C3        1.0  0.87649  0.22054  0.64598  1.0000
  C   C4        1.0  0.62350  0.77946  0.14598  1.0000
  C   C5        1.0  0.36428  0.33169  0.25584  1.0000
  C   C6        1.0  0.13572  0.66832  0.75584  1.0000
  C   C7        1.0  0.86428  0.16831  0.74416  1.0000
  C   C8        1.0  0.63572  0.83168  0.24416  1.0000
  C   C9        1.0  0.46849  0.42543  0.22660  1.0000
  C   C10       1.0  0.03152  0.57457  0.72660  1.0000
  C   C11       1.0  0.96848  0.07457  0.77340  1.0000
  C   C12       1.0  0.53152  0.92543  0.27340  1.0000
  C   C13       1.0  0.57834  0.47072  0.29321  1.0000
  C   C14       1.0  0.92167  0.52928  0.79321  1.0000
  C   C15       1.0  0.07834  0.02928  0.70679  1.0000
  C   C16       1.0  0.42166  0.97072  0.20679  1.0000
  C   C17       1.0  0.58185  0.41727  0.38791  1.0000
  C   C18       1.0  0.91815  0.58273  0.88791  1.0000
  C   C19       1.0  0.08185  0.08273  0.61209  1.0000
  C   C20       1.0  0.41815  0.91727  0.11209  1.0000
  C   C21       1.0  0.24056  0.29518  0.18477  1.0000
  C   C22       1.0  0.25944  0.70483  0.68477  1.0000
  C   C23       1.0  0.74055  0.20483  0.81523  1.0000
  C   C24       1.0  0.75945  0.79517  0.31523  1.0000
  C   C25       1.0  0.17724  0.27144  0.01201  1.0000
  C   C26       1.0  0.32276  0.72856  0.51201  1.0000
  C   C27       1.0  0.67724  0.22856  0.98799  1.0000
  C   C28       1.0  0.82276  0.77144  0.48799  1.0000
  C   C29       1.0  0.25683  0.22970  0.91758  1.0000
  C   C30       1.0  0.24317  0.77031  0.41758  1.0000
  C   C31       1.0  0.75683  0.27030  0.08242  1.0000
  C   C32       1.0  0.74317  0.72970  0.58242  1.0000
  C   C33       1.0  0.33444  0.38659  0.64374  1.0000
  C   C34       1.0  0.16556  0.61341  0.14374  1.0000
  C   C35       1.0  0.83444  0.11341  0.35625  1.0000
  C   C36       1.0  0.66556  0.88659  0.85625  1.0000
  C   C37       1.0  0.55420  0.03378  0.58321  1.0000
  C   C38       1.0  0.94580  0.96622  0.08321  1.0000
  C   C39       1.0  0.05420  0.46622  0.41679  1.0000
  C   C40       1.0  0.44580  0.53378  0.91679  1.0000
  S   S1        1.0  0.26454  0.15715  0.39935  1.0000
  S   S2        1.0  0.23546  0.84285  0.89935  1.0000
  S   S3        1.0  0.76454  0.34285  0.60065  1.0000
  S   S4        1.0  0.73546  0.65714  0.10065  1.0000
  N   N1        1.0  0.48692  0.32439  0.41672  1.0000
  N   N2        1.0  0.01308  0.67561  0.91672  1.0000
  N   N3        1.0  0.98692  0.17561  0.58328  1.0000
  N   N4        1.0  0.51308  0.82439  0.08328  1.0000
  O   O1        1.0  0.10527  0.27577  0.20680  1.0000
  O   O2        1.0  0.39474  0.72423  0.70680  1.0000
  O   O3        1.0  0.60527  0.22423  0.79321  1.0000
  O   O4        1.0  0.89472  0.77576  0.29321  1.0000
  O   O5        1.0  0.29353  0.28979  0.08983  1.0000
  O   O6        1.0  0.20647  0.71022  0.58983  1.0000
  O   O7        1.0  0.79353  0.21021  0.91017  1.0000
  O   O8        1.0  0.70647  0.78978  0.41017  1.0000
