data_image0
_chemical_formula_structural       Tl4H48C36S4N4O8
_chemical_formula_sum              "Tl4 H48 C36 S4 N4 O8"
_cell_length_a       7.78508
_cell_length_b       7.7853
_cell_length_c       21.0625
_cell_angle_alpha    80.402
_cell_angle_beta     80.4034
_cell_angle_gamma    63.5524

_space_group_name_H-M_alt    "P 1"
_space_group_IT_number       1

loop_
  _space_group_symop_operation_xyz
  'x, y, z'

loop_
  _atom_site_type_symbol
  _atom_site_label
  _atom_site_symmetry_multiplicity
  _atom_site_fract_x
  _atom_site_fract_y
  _atom_site_fract_z
  _atom_site_occupancy
  Tl  Tl1       1.0  0.13779  0.33293  0.31317  1.0000
  Tl  Tl2       1.0  0.66705  0.86222  0.18681  1.0000
  Tl  Tl3       1.0  0.86221  0.66706  0.68683  1.0000
  Tl  Tl4       1.0  0.33295  0.13777  0.81318  1.0000
  H   H1        1.0  0.10433  0.27026  0.01163  1.0000
  H   H2        1.0  0.72970  0.89563  0.48836  1.0000
  H   H3        1.0  0.89569  0.72972  0.98837  1.0000
  H   H4        1.0  0.27026  0.10438  0.51164  1.0000
  H   H5        1.0  0.79836  0.34152  0.08885  1.0000
  H   H6        1.0  0.65846  0.20158  0.41113  1.0000
  H   H7        1.0  0.20163  0.65843  0.91115  1.0000
  H   H8        1.0  0.34152  0.79841  0.58886  1.0000
  H   H9        1.0  0.81195  0.36635  0.20447  1.0000
  H   H10       1.0  0.63370  0.18797  0.29551  1.0000
  H   H11       1.0  0.18804  0.63363  0.79553  1.0000
  H   H12       1.0  0.36633  0.81199  0.70449  1.0000
  H   H13       1.0  0.73574  0.27823  0.97341  1.0000
  H   H14       1.0  0.72179  0.26427  0.52661  1.0000
  H   H15       1.0  0.26428  0.72178  0.02661  1.0000
  H   H16       1.0  0.27824  0.73574  0.47340  1.0000
  H   H17       1.0  0.58523  0.40375  0.90893  1.0000
  H   H18       1.0  0.59627  0.41480  0.59107  1.0000
  H   H19       1.0  0.41482  0.59624  0.09107  1.0000
  H   H20       1.0  0.40374  0.58522  0.40894  1.0000
  H   H21       1.0  0.66162  0.14744  0.92997  1.0000
  H   H22       1.0  0.85255  0.33838  0.57004  1.0000
  H   H23       1.0  0.33841  0.85256  0.07004  1.0000
  H   H24       1.0  0.14742  0.66163  0.42996  1.0000
  H   H25       1.0  0.07717  0.69423  0.33125  1.0000
  H   H26       1.0  0.30575  0.92285  0.16874  1.0000
  H   H27       1.0  0.92283  0.30577  0.66875  1.0000
  H   H28       1.0  0.69425  0.07715  0.83126  1.0000
  H   H29       1.0  0.15500  0.65029  0.24797  1.0000
  H   H30       1.0  0.34971  0.84498  0.25203  1.0000
  H   H31       1.0  0.84500  0.34972  0.75204  1.0000
  H   H32       1.0  0.65029  0.15502  0.74798  1.0000
  H   H33       1.0  0.32865  0.55436  0.30559  1.0000
  H   H34       1.0  0.44563  0.67137  0.19441  1.0000
  H   H35       1.0  0.67134  0.44565  0.69441  1.0000
  H   H36       1.0  0.55437  0.32865  0.80559  1.0000
  H   H37       1.0  0.30421  0.94872  0.35303  1.0000
  H   H38       1.0  0.05129  0.69582  0.14697  1.0000
  H   H39       1.0  0.69582  0.05128  0.64697  1.0000
  H   H40       1.0  0.94871  0.30420  0.85304  1.0000
  H   H41       1.0  0.08426  0.00742  0.31972  1.0000
  H   H42       1.0  0.99258  0.91576  0.18028  1.0000
  H   H43       1.0  0.91577  0.99257  0.68029  1.0000
  H   H44       1.0  0.00742  0.08425  0.81971  1.0000
  H   H45       1.0  0.07426  0.06862  0.39936  1.0000
  H   H46       1.0  0.93138  0.92576  0.10063  1.0000
  H   H47       1.0  0.92574  0.93138  0.60064  1.0000
  H   H48       1.0  0.06861  0.07429  0.89936  1.0000
  C   C1        1.0  0.26306  0.28469  0.15213  1.0000
  C   C2        1.0  0.71531  0.73688  0.34785  1.0000
  C   C3        1.0  0.73693  0.71532  0.84787  1.0000
  C   C4        1.0  0.28471  0.26311  0.65214  1.0000
  C   C5        1.0  0.26747  0.26176  0.08608  1.0000
  C   C6        1.0  0.73823  0.73247  0.41390  1.0000
  C   C7        1.0  0.73253  0.73822  0.91392  1.0000
  C   C8        1.0  0.26180  0.26750  0.58609  1.0000
  C   C9        1.0  0.10008  0.28639  0.06241  1.0000
  C   C10       1.0  0.71362  0.89985  0.43757  1.0000
  C   C11       1.0  0.89989  0.71361  0.93760  1.0000
  C   C12       1.0  0.28636  0.10016  0.56243  1.0000
  C   C13       1.0  0.93140  0.32549  0.10464  1.0000
  C   C14       1.0  0.67451  0.06852  0.39534  1.0000
  C   C15       1.0  0.06858  0.67449  0.89537  1.0000
  C   C16       1.0  0.32547  0.93147  0.60466  1.0000
  C   C17       1.0  0.93883  0.33872  0.16913  1.0000
  C   C18       1.0  0.66132  0.06108  0.33085  1.0000
  C   C19       1.0  0.06118  0.66127  0.83087  1.0000
  C   C20       1.0  0.33868  0.93888  0.66915  1.0000
  C   C21       1.0  0.45279  0.20132  0.04312  1.0000
  C   C22       1.0  0.79866  0.54718  0.45687  1.0000
  C   C23       1.0  0.54722  0.79869  0.95689  1.0000
  C   C24       1.0  0.20133  0.45284  0.54313  1.0000
  C   C25       1.0  0.61990  0.28584  0.94814  1.0000
  C   C26       1.0  0.71416  0.38013  0.55186  1.0000
  C   C27       1.0  0.38013  0.71417  0.05187  1.0000
  C   C28       1.0  0.28582  0.61989  0.44815  1.0000
  C   C29       1.0  0.17984  0.59208  0.29808  1.0000
  C   C30       1.0  0.40791  0.82017  0.20191  1.0000
  C   C31       1.0  0.82015  0.40793  0.70192  1.0000
  C   C32       1.0  0.59209  0.17983  0.79809  1.0000
  C   C33       1.0  0.15288  0.05175  0.35092  1.0000
  C   C34       1.0  0.94826  0.84714  0.14908  1.0000
  C   C35       1.0  0.84714  0.94825  0.64909  1.0000
  C   C36       1.0  0.05174  0.15288  0.85091  1.0000
  S   S1        1.0  0.46112  0.27270  0.18339  1.0000
  S   S2        1.0  0.72729  0.53882  0.31659  1.0000
  S   S3        1.0  0.53888  0.72729  0.81660  1.0000
  S   S4        1.0  0.27270  0.46116  0.68340  1.0000
  N   N1        1.0  0.09754  0.32080  0.19211  1.0000
  N   N2        1.0  0.67920  0.90240  0.30786  1.0000
  N   N3        1.0  0.90247  0.67921  0.80787  1.0000
  N   N4        1.0  0.32080  0.09758  0.69214  1.0000
  O   O1        1.0  0.59558  0.04786  0.05204  1.0000
  O   O2        1.0  0.95213  0.40440  0.44795  1.0000
  O   O3        1.0  0.40440  0.95214  0.94796  1.0000
  O   O4        1.0  0.04784  0.59565  0.55204  1.0000
  O   O5        1.0  0.44426  0.33334  0.99214  1.0000
  O   O6        1.0  0.66665  0.55573  0.50786  1.0000
  O   O7        1.0  0.55576  0.66666  0.00787  1.0000
  O   O8        1.0  0.33332  0.44429  0.49214  1.0000
