data_image0
_chemical_formula_structural       Tl4H64C44S4N4O8
_chemical_formula_sum              "Tl4 H64 C44 S4 N4 O8"
_cell_length_a       8.95703
_cell_length_b       11.5857
_cell_length_c       12.9968
_cell_angle_alpha    90.0001
_cell_angle_beta     90.0001
_cell_angle_gamma    90

_space_group_name_H-M_alt    "P 1"
_space_group_IT_number       1

loop_
  _space_group_symop_operation_xyz
  'x, y, z'

loop_
  _atom_site_type_symbol
  _atom_site_label
  _atom_site_symmetry_multiplicity
  _atom_site_fract_x
  _atom_site_fract_y
  _atom_site_fract_z
  _atom_site_occupancy
  Tl  Tl1       1.0  0.46649  0.72659  0.90276  1.0000
  Tl  Tl2       1.0  0.03351  0.27341  0.40276  1.0000
  Tl  Tl3       1.0  0.96649  0.77341  0.09724  1.0000
  Tl  Tl4       1.0  0.53352  0.22659  0.59724  1.0000
  H   H1        1.0  0.63455  0.02215  0.23387  1.0000
  H   H2        1.0  0.86545  0.97785  0.73387  1.0000
  H   H3        1.0  0.13455  0.47785  0.76613  1.0000
  H   H4        1.0  0.36545  0.52215  0.26613  1.0000
  H   H5        1.0  0.65639  0.91710  0.06348  1.0000
  H   H6        1.0  0.84361  0.08290  0.56348  1.0000
  H   H7        1.0  0.15639  0.58290  0.93652  1.0000
  H   H8        1.0  0.34361  0.41710  0.43652  1.0000
  H   H9        1.0  0.42962  0.96048  0.35344  1.0000
  H   H10       1.0  0.07038  0.03952  0.85343  1.0000
  H   H11       1.0  0.92962  0.53952  0.64656  1.0000
  H   H12       1.0  0.57038  0.46048  0.14657  1.0000
  H   H13       1.0  0.48128  0.51422  0.98805  1.0000
  H   H14       1.0  0.01872  0.48578  0.48805  1.0000
  H   H15       1.0  0.98129  0.98578  0.01195  1.0000
  H   H16       1.0  0.51872  0.01422  0.51195  1.0000
  H   H17       1.0  0.66396  0.55508  0.94235  1.0000
  H   H18       1.0  0.83605  0.44492  0.44235  1.0000
  H   H19       1.0  0.16396  0.94492  0.05765  1.0000
  H   H20       1.0  0.33604  0.05508  0.55765  1.0000
  H   H21       1.0  0.52563  0.50387  0.85297  1.0000
  H   H22       1.0  0.97437  0.49612  0.35297  1.0000
  H   H23       1.0  0.02563  0.99613  0.14703  1.0000
  H   H24       1.0  0.47437  0.00387  0.64703  1.0000
  H   H25       1.0  0.33845  0.87560  0.76806  1.0000
  H   H26       1.0  0.16155  0.12440  0.26806  1.0000
  H   H27       1.0  0.83845  0.62440  0.23194  1.0000
  H   H28       1.0  0.66155  0.37560  0.73194  1.0000
  H   H29       1.0  0.38042  0.95030  0.88572  1.0000
  H   H30       1.0  0.11958  0.04970  0.38572  1.0000
  H   H31       1.0  0.88042  0.54970  0.11428  1.0000
  H   H32       1.0  0.61958  0.45030  0.61428  1.0000
  H   H33       1.0  0.21855  0.85793  0.87814  1.0000
  H   H34       1.0  0.28145  0.14207  0.37813  1.0000
  H   H35       1.0  0.71855  0.64207  0.12187  1.0000
  H   H36       1.0  0.78145  0.35793  0.62187  1.0000
  H   H37       1.0  0.08356  0.69887  0.46162  1.0000
  H   H38       1.0  0.41644  0.30113  0.96162  1.0000
  H   H39       1.0  0.58356  0.80113  0.53838  1.0000
  H   H40       1.0  0.91644  0.19887  0.03838  1.0000
  H   H41       1.0  0.36665  0.69164  0.59707  1.0000
  H   H42       1.0  0.13335  0.30835  0.09707  1.0000
  H   H43       1.0  0.86665  0.80836  0.40292  1.0000
  H   H44       1.0  0.63335  0.19164  0.90293  1.0000
  H   H45       1.0  0.30027  0.57804  0.51642  1.0000
  H   H46       1.0  0.19973  0.42196  0.01642  1.0000
  H   H47       1.0  0.80027  0.92196  0.48357  1.0000
  H   H48       1.0  0.69973  0.07804  0.98358  1.0000
  H   H49       1.0  0.19588  0.62109  0.62549  1.0000
  H   H50       1.0  0.30412  0.37891  0.12549  1.0000
  H   H51       1.0  0.69588  0.87891  0.37451  1.0000
  H   H52       1.0  0.80412  0.12109  0.87451  1.0000
  H   H53       1.0  0.22983  0.88621  0.59531  1.0000
  H   H54       1.0  0.27017  0.11379  0.09531  1.0000
  H   H55       1.0  0.72983  0.61379  0.40469  1.0000
  H   H56       1.0  0.77017  0.38621  0.90469  1.0000
  H   H57       1.0  0.05378  0.81962  0.61927  1.0000
  H   H58       1.0  0.44622  0.18038  0.11927  1.0000
  H   H59       1.0  0.55378  0.68038  0.38073  1.0000
  H   H60       1.0  0.94622  0.31962  0.88073  1.0000
  H   H61       1.0  0.07712  0.90801  0.50928  1.0000
  H   H62       1.0  0.42288  0.09199  0.00928  1.0000
  H   H63       1.0  0.57712  0.59199  0.49072  1.0000
  H   H64       1.0  0.92288  0.40801  0.99072  1.0000
  C   C1        1.0  0.55644  0.95417  0.21214  1.0000
  C   C2        1.0  0.94356  0.04583  0.71214  1.0000
  C   C3        1.0  0.05645  0.54583  0.78786  1.0000
  C   C4        1.0  0.44355  0.45417  0.28786  1.0000
  C   C5        1.0  0.36118  0.77821  0.15148  1.0000
  C   C6        1.0  0.13882  0.22179  0.65148  1.0000
  C   C7        1.0  0.86118  0.72179  0.84852  1.0000
  C   C8        1.0  0.63882  0.27821  0.34852  1.0000
  C   C9        1.0  0.56805  0.89675  0.11862  1.0000
  C   C10       1.0  0.93195  0.10325  0.61861  1.0000
  C   C11       1.0  0.06805  0.60325  0.88138  1.0000
  C   C12       1.0  0.43195  0.39675  0.38138  1.0000
  C   C13       1.0  0.44230  0.91986  0.27834  1.0000
  C   C14       1.0  0.05770  0.08014  0.77834  1.0000
  C   C15       1.0  0.94231  0.58014  0.72166  1.0000
  C   C16       1.0  0.55770  0.41986  0.22166  1.0000
  C   C17       1.0  0.34353  0.83274  0.24908  1.0000
  C   C18       1.0  0.15647  0.16726  0.74908  1.0000
  C   C19       1.0  0.84353  0.66726  0.75092  1.0000
  C   C20       1.0  0.65647  0.33274  0.25092  1.0000
  C   C21       1.0  0.22384  0.79760  0.32234  1.0000
  C   C22       1.0  0.27616  0.20240  0.82234  1.0000
  C   C23       1.0  0.72384  0.70240  0.67766  1.0000
  C   C24       1.0  0.77616  0.29760  0.17766  1.0000
  C   C25       1.0  0.54485  0.55166  0.92447  1.0000
  C   C26       1.0  0.95515  0.44834  0.42447  1.0000
  C   C27       1.0  0.04485  0.94834  0.07553  1.0000
  C   C28       1.0  0.45515  0.05166  0.57553  1.0000
  C   C29       1.0  0.33332  0.87180  0.85208  1.0000
  C   C30       1.0  0.16668  0.12820  0.35208  1.0000
  C   C31       1.0  0.83332  0.62820  0.14792  1.0000
  C   C32       1.0  0.66668  0.37180  0.64792  1.0000
  C   C33       1.0  0.18056  0.73916  0.49884  1.0000
  C   C34       1.0  0.31944  0.26084  0.99884  1.0000
  C   C35       1.0  0.68056  0.76084  0.50116  1.0000
  C   C36       1.0  0.81944  0.23916  0.00116  1.0000
  C   C37       1.0  0.26664  0.65269  0.56278  1.0000
  C   C38       1.0  0.23336  0.34731  0.06277  1.0000
  C   C39       1.0  0.76665  0.84731  0.43722  1.0000
  C   C40       1.0  0.73335  0.15269  0.93722  1.0000
  C   C41       1.0  0.13299  0.84493  0.55900  1.0000
  C   C42       1.0  0.36701  0.15507  0.05900  1.0000
  C   C43       1.0  0.63299  0.65507  0.44100  1.0000
  C   C44       1.0  0.86701  0.34493  0.94100  1.0000
  S   S1        1.0  0.25124  0.66463  0.10924  1.0000
  S   S2        1.0  0.24876  0.33537  0.60924  1.0000
  S   S3        1.0  0.75124  0.83537  0.89076  1.0000
  S   S4        1.0  0.74876  0.16463  0.39076  1.0000
  N   N1        1.0  0.47489  0.81241  0.08918  1.0000
  N   N2        1.0  0.02511  0.18759  0.58918  1.0000
  N   N3        1.0  0.97489  0.68759  0.91082  1.0000
  N   N4        1.0  0.52511  0.31241  0.41082  1.0000
  O   O1        1.0  0.28273  0.77534  0.41564  1.0000
  O   O2        1.0  0.21727  0.22466  0.91564  1.0000
  O   O3        1.0  0.78273  0.72466  0.58436  1.0000
  O   O4        1.0  0.71727  0.27534  0.08436  1.0000
  O   O5        1.0  0.09003  0.79080  0.30222  1.0000
  O   O6        1.0  0.40997  0.20920  0.80222  1.0000
  O   O7        1.0  0.59003  0.70920  0.69778  1.0000
  O   O8        1.0  0.90997  0.29080  0.19778  1.0000
