data_image0
_chemical_formula_structural       H16PbC24N2O4
_chemical_formula_sum              "H16 Pb1 C24 N2 O4"
_cell_length_a       7.18901
_cell_length_b       8.34037
_cell_length_c       9.44632
_cell_angle_alpha    104.331
_cell_angle_beta     89.9328
_cell_angle_gamma    115.562

_space_group_name_H-M_alt    "P 1"
_space_group_IT_number       1

loop_
  _space_group_symop_operation_xyz
  'x, y, z'

loop_
  _atom_site_type_symbol
  _atom_site_label
  _atom_site_symmetry_multiplicity
  _atom_site_fract_x
  _atom_site_fract_y
  _atom_site_fract_z
  _atom_site_occupancy
  H   H1        1.0  0.94790  0.57173  0.46990  1.0000
  H   H2        1.0  0.37784  0.42813  0.52997  1.0000
  H   H3        1.0  0.59075  0.47213  0.35805  1.0000
  H   H4        1.0  0.11990  0.52749  0.64162  1.0000
  H   H5        1.0  0.53405  0.55482  0.13211  1.0000
  H   H6        1.0  0.97971  0.44501  0.86766  1.0000
  H   H7        1.0  0.19741  0.81777  0.12257  1.0000
  H   H8        1.0  0.38045  0.18274  0.87755  1.0000
  H   H9        1.0  0.53495  0.74653  0.01822  1.0000
  H   H10       1.0  0.78898  0.25385  0.98203  1.0000
  H   H11       1.0  0.49827  0.83596  0.78950  1.0000
  H   H12       1.0  0.66214  0.16441  0.21077  1.0000
  H   H13       1.0  0.05929  0.85019  0.67280  1.0000
  H   H14       1.0  0.20814  0.14943  0.32695  1.0000
  H   H15       1.0  0.12007  0.76165  0.89268  1.0000
  H   H16       1.0  0.35825  0.23803  0.10711  1.0000
  Pb  Pb1       1.0  0.74718  0.99932  0.49958  1.0000
  C   C1        1.0  0.31343  0.77245  0.36847  1.0000
  C   C2        1.0  0.54228  0.22738  0.63176  1.0000
  C   C3        1.0  0.09413  0.70192  0.30170  1.0000
  C   C4        1.0  0.39368  0.29837  0.69837  1.0000
  C   C5        1.0  0.92363  0.60586  0.36968  1.0000
  C   C6        1.0  0.31927  0.39414  0.63027  1.0000
  C   C7        1.0  0.72271  0.55139  0.30681  1.0000
  C   C8        1.0  0.17256  0.44849  0.69304  1.0000
  C   C9        1.0  0.69127  0.59495  0.17834  1.0000
  C   C10       1.0  0.09719  0.40517  0.82162  1.0000
  C   C11       1.0  0.86046  0.69049  0.10826  1.0000
  C   C12       1.0  0.17075  0.30985  0.89182  1.0000
  C   C13       1.0  0.06097  0.74056  0.17090  1.0000
  C   C14       1.0  0.32136  0.25985  0.82920  1.0000
  C   C15       1.0  0.82953  0.74178  0.97466  1.0000
  C   C16       1.0  0.08816  0.25851  0.02542  1.0000
  C   C17       1.0  0.65244  0.76341  0.94267  1.0000
  C   C18       1.0  0.88938  0.23695  0.05750  1.0000
  C   C19       1.0  0.63214  0.81494  0.81647  1.0000
  C   C20       1.0  0.81706  0.18535  0.18367  1.0000
  C   C21       1.0  0.94476  0.82479  0.75118  1.0000
  C   C22       1.0  0.11940  0.17512  0.24874  1.0000
  C   C23       1.0  0.97849  0.77521  0.87513  1.0000
  C   C24       1.0  0.20315  0.22470  0.12480  1.0000
  N   N1        1.0  0.77433  0.84446  0.72137  1.0000
  N   N2        1.0  0.92930  0.15563  0.27867  1.0000
  O   O1        1.0  0.45797  0.83182  0.28807  1.0000
  O   O2        1.0  0.62673  0.16775  0.71220  1.0000
  O   O3        1.0  0.34846  0.77744  0.50202  1.0000
  O   O4        1.0  0.57274  0.22210  0.49814  1.0000
