data_image0
_chemical_formula_structural       Ag6H26C18S2N4O16
_chemical_formula_sum              "Ag6 H26 C18 S2 N4 O16"
_cell_length_a       7.52648
_cell_length_b       8.3345
_cell_length_c       13.6976
_cell_angle_alpha    77.2378
_cell_angle_beta     75.719
_cell_angle_gamma    71.9085

_space_group_name_H-M_alt    "P 1"
_space_group_IT_number       1

loop_
  _space_group_symop_operation_xyz
  'x, y, z'

loop_
  _atom_site_type_symbol
  _atom_site_label
  _atom_site_symmetry_multiplicity
  _atom_site_fract_x
  _atom_site_fract_y
  _atom_site_fract_z
  _atom_site_occupancy
  Ag  Ag1       1.0  0.26318  0.86576  0.33288  1.0000
  Ag  Ag2       1.0  0.73682  0.13424  0.66711  1.0000
  Ag  Ag3       1.0  0.50000  1.00000  1.00000  1.0000
  Ag  Ag4       1.0  0.00000  0.00000  0.50000  1.0000
  Ag  Ag5       1.0  0.47060  0.67407  0.09426  1.0000
  Ag  Ag6       1.0  0.52939  0.32593  0.90574  1.0000
  H   H1        1.0  0.05586  0.31368  0.27656  1.0000
  H   H2        1.0  0.94414  0.68633  0.72343  1.0000
  H   H3        1.0  0.72592  0.34818  0.37620  1.0000
  H   H4        1.0  0.27408  0.65182  0.62379  1.0000
  H   H5        1.0  0.62830  0.47416  0.53451  1.0000
  H   H6        1.0  0.37170  0.52583  0.46548  1.0000
  H   H7        1.0  0.66743  0.93753  0.24161  1.0000
  H   H8        1.0  0.33257  0.06247  0.75839  1.0000
  H   H9        1.0  0.72301  0.72186  0.30068  1.0000
  H   H10       1.0  0.27700  0.27814  0.69932  1.0000
  H   H11       1.0  0.08279  0.54789  0.15107  1.0000
  H   H12       1.0  0.91720  0.45212  0.84894  1.0000
  H   H13       1.0  0.14917  0.57456  0.01716  1.0000
  H   H14       1.0  0.85082  0.42543  0.98285  1.0000
  H   H15       1.0  0.15144  0.86936  0.02753  1.0000
  H   H16       1.0  0.84855  0.13064  0.97247  1.0000
  H   H17       1.0  0.10783  0.82045  0.15261  1.0000
  H   H18       1.0  0.89217  0.17956  0.84739  1.0000
  H   H19       1.0  0.46694  0.01400  0.39888  1.0000
  H   H20       1.0  0.53307  0.98600  0.60112  1.0000
  H   H21       1.0  0.51279  0.81617  0.45690  1.0000
  H   H22       1.0  0.48721  0.18383  0.54310  1.0000
  H   H23       1.0  0.32415  0.18426  0.17897  1.0000
  H   H24       1.0  0.67586  0.81574  0.82103  1.0000
  H   H25       1.0  0.18140  0.13669  0.12895  1.0000
  H   H26       1.0  0.81860  0.86331  0.87105  1.0000
  C   C1        1.0  0.14528  0.42008  0.37881  1.0000
  C   C2        1.0  0.85472  0.57992  0.62119  1.0000
  C   C3        1.0  0.01457  0.36944  0.34620  1.0000
  C   C4        1.0  0.98544  0.63056  0.65379  1.0000
  C   C5        1.0  0.82749  0.38851  0.40296  1.0000
  C   C6        1.0  0.17251  0.61150  0.59703  1.0000
  C   C7        1.0  0.77328  0.45844  0.49160  1.0000
  C   C8        1.0  0.22672  0.54155  0.50839  1.0000
  C   C9        1.0  0.90414  0.50985  0.52866  1.0000
  C   C10       1.0  0.09586  0.49014  0.47134  1.0000
  C   C11       1.0  0.68229  0.85424  0.31513  1.0000
  C   C12       1.0  0.31771  0.14576  0.68487  1.0000
  C   C13       1.0  0.84503  0.88234  0.35133  1.0000
  C   C14       1.0  0.15497  0.11767  0.64867  1.0000
  C   C15       1.0  0.86766  0.72000  0.07069  1.0000
  C   C16       1.0  0.13233  0.28001  0.92931  1.0000
  C   C17       1.0  0.07557  0.64342  0.08199  1.0000
  C   C18       1.0  0.92442  0.35658  0.91802  1.0000
  S   S1        1.0  0.38298  0.38486  0.30622  1.0000
  S   S2        1.0  0.61702  0.61514  0.69378  1.0000
  N   N1        1.0  0.17268  0.76938  0.08634  1.0000
  N   N2        1.0  0.82732  0.23062  0.91366  1.0000
  N   N3        1.0  0.49925  0.88946  0.38695  1.0000
  N   N4        1.0  0.50076  0.11054  0.61305  1.0000
  O   O1        1.0  0.43819  0.54482  0.29007  1.0000
  O   O2        1.0  0.56181  0.45518  0.70993  1.0000
  O   O3        1.0  0.49841  0.24407  0.36905  1.0000
  O   O4        1.0  0.50159  0.75593  0.63095  1.0000
  O   O5        1.0  0.37798  0.34147  0.20814  1.0000
  O   O6        1.0  0.62203  0.65853  0.79186  1.0000
  O   O7        1.0  0.80873  0.92336  0.43920  1.0000
  O   O8        1.0  0.19128  0.07664  0.56080  1.0000
  O   O9        1.0  0.00503  0.86106  0.28954  1.0000
  O   O10       1.0  0.99497  0.13895  0.71045  1.0000
  O   O11       1.0  0.81148  0.87877  0.03890  1.0000
  O   O12       1.0  0.18851  0.12123  0.96110  1.0000
  O   O13       1.0  0.76970  0.61180  0.09225  1.0000
  O   O14       1.0  0.23030  0.38821  0.90775  1.0000
  O   O15       1.0  0.29075  0.08717  0.16247  1.0000
  O   O16       1.0  0.70925  0.91283  0.83753  1.0000
