data_image0
_chemical_formula_structural       Dy4H28C24O32
_chemical_formula_sum              "Dy4 H28 C24 O32"
_cell_length_a       6.0924
_cell_length_b       10.0664
_cell_length_c       15.3405
_cell_angle_alpha    102.742
_cell_angle_beta     90.0035
_cell_angle_gamma    107.642

_space_group_name_H-M_alt    "P 1"
_space_group_IT_number       1

loop_
  _space_group_symop_operation_xyz
  'x, y, z'

loop_
  _atom_site_type_symbol
  _atom_site_label
  _atom_site_symmetry_multiplicity
  _atom_site_fract_x
  _atom_site_fract_y
  _atom_site_fract_z
  _atom_site_occupancy
  Dy  Dy1       1.0  0.84835  0.81541  0.29491  1.0000
  Dy  Dy2       1.0  0.03286  0.18480  0.20503  1.0000
  Dy  Dy3       1.0  0.15165  0.18459  0.70509  1.0000
  Dy  Dy4       1.0  0.96714  0.81520  0.79497  1.0000
  H   H1        1.0  0.08951  0.57651  0.06572  1.0000
  H   H2        1.0  0.51363  0.42375  0.43437  1.0000
  H   H3        1.0  0.91049  0.42349  0.93428  1.0000
  H   H4        1.0  0.48636  0.57625  0.56562  1.0000
  H   H5        1.0  0.58801  0.71142  0.00682  1.0000
  H   H6        1.0  0.87715  0.28888  0.49305  1.0000
  H   H7        1.0  0.41199  0.28858  0.99318  1.0000
  H   H8        1.0  0.12285  0.71112  0.50695  1.0000
  H   H9        1.0  0.38332  0.80116  0.03659  1.0000
  H   H10       1.0  0.58254  0.19912  0.46338  1.0000
  H   H11       1.0  0.61668  0.19884  0.96341  1.0000
  H   H12       1.0  0.41746  0.80088  0.53662  1.0000
  H   H13       1.0  0.21563  0.95084  0.45316  1.0000
  H   H14       1.0  0.26454  0.04913  0.04689  1.0000
  H   H15       1.0  0.78437  0.04916  0.54684  1.0000
  H   H16       1.0  0.73546  0.95087  0.95311  1.0000
  H   H17       1.0  0.29552  0.50097  0.01366  1.0000
  H   H18       1.0  0.79548  0.49930  0.48631  1.0000
  H   H19       1.0  0.70448  0.49903  0.98634  1.0000
  H   H20       1.0  0.20452  0.50070  0.51369  1.0000
  H   H21       1.0  0.31260  0.87559  0.36093  1.0000
  H   H22       1.0  0.43689  0.12452  0.13911  1.0000
  H   H23       1.0  0.68741  0.12441  0.63907  1.0000
  H   H24       1.0  0.56311  0.87548  0.86089  1.0000
  H   H25       1.0  0.53341  0.54619  0.18385  1.0000
  H   H26       1.0  0.98750  0.45401  0.31597  1.0000
  H   H27       1.0  0.46659  0.45381  0.81615  1.0000
  H   H28       1.0  0.01250  0.54598  0.68403  1.0000
  C   C1        1.0  0.52558  0.77342  0.06433  1.0000
  C   C2        1.0  0.75251  0.22682  0.43559  1.0000
  C   C3        1.0  0.47442  0.22658  0.93567  1.0000
  C   C4        1.0  0.24749  0.77317  0.56441  1.0000
  C   C5        1.0  0.23981  0.54418  0.07930  1.0000
  C   C6        1.0  0.69626  0.45607  0.42070  1.0000
  C   C7        1.0  0.76019  0.45582  0.92070  1.0000
  C   C8        1.0  0.30374  0.54393  0.57930  1.0000
  C   C9        1.0  0.16438  0.42332  0.12733  1.0000
  C   C10       1.0  0.74158  0.57694  0.37265  1.0000
  C   C11       1.0  0.83563  0.57668  0.87267  1.0000
  C   C12       1.0  0.25842  0.42306  0.62735  1.0000
  C   C13       1.0  0.33409  0.76057  0.20978  1.0000
  C   C14       1.0  0.57350  0.23965  0.29020  1.0000
  C   C15       1.0  0.66591  0.23942  0.79022  1.0000
  C   C16       1.0  0.42650  0.76035  0.70980  1.0000
  C   C17       1.0  0.72170  0.90935  0.10124  1.0000
  C   C18       1.0  0.81248  0.09085  0.39872  1.0000
  C   C19       1.0  0.27831  0.09065  0.89875  1.0000
  C   C20       1.0  0.18752  0.90915  0.60128  1.0000
  C   C21       1.0  0.43182  0.67717  0.12969  1.0000
  C   C22       1.0  0.75494  0.32309  0.37024  1.0000
  C   C23       1.0  0.56819  0.32283  0.87030  1.0000
  C   C24       1.0  0.24506  0.67691  0.62976  1.0000
  O   O1        1.0  0.61726  0.63670  0.16393  1.0000
  O   O2        1.0  0.98083  0.36356  0.33595  1.0000
  O   O3        1.0  0.38274  0.36330  0.83607  1.0000
  O   O4        1.0  0.01917  0.63644  0.66406  1.0000
  O   O5        1.0  0.77109  0.01183  0.06177  1.0000
  O   O6        1.0  0.75939  0.98848  0.43826  1.0000
  O   O7        1.0  0.22891  0.98817  0.93823  1.0000
  O   O8        1.0  0.24060  0.01152  0.56174  1.0000
  O   O9        1.0  0.46664  0.81584  0.28174  1.0000
  O   O10       1.0  0.65054  0.18405  0.21830  1.0000
  O   O11       1.0  0.53336  0.18416  0.71826  1.0000
  O   O12       1.0  0.34946  0.81595  0.78171  1.0000
  O   O13       1.0  0.29671  0.42014  0.19222  1.0000
  O   O14       1.0  0.87675  0.58012  0.30766  1.0000
  O   O15       1.0  0.70330  0.57987  0.80778  1.0000
  O   O16       1.0  0.12325  0.41988  0.69234  1.0000
  O   O17       1.0  0.13547  0.77086  0.19978  1.0000
  O   O18       1.0  0.36467  0.22957  0.30019  1.0000
  O   O19       1.0  0.86453  0.22914  0.80022  1.0000
  O   O20       1.0  0.63533  0.77043  0.69981  1.0000
  O   O21       1.0  0.17626  0.89824  0.38896  1.0000
  O   O22       1.0  0.27797  0.10203  0.11102  1.0000
  O   O23       1.0  0.82374  0.10176  0.61104  1.0000
  O   O24       1.0  0.72203  0.89797  0.88898  1.0000
  O   O25       1.0  0.83946  0.92346  0.17365  1.0000
  O   O26       1.0  0.91594  0.07666  0.32628  1.0000
  O   O27       1.0  0.16054  0.07654  0.82635  1.0000
  O   O28       1.0  0.08405  0.92334  0.67372  1.0000
  O   O29       1.0  0.97621  0.32379  0.10225  1.0000
  O   O30       1.0  0.65317  0.67650  0.39783  1.0000
  O   O31       1.0  0.02379  0.67622  0.89776  1.0000
  O   O32       1.0  0.34684  0.32350  0.60217  1.0000
