data_image0
_chemical_formula_structural       Pr2H40C66I6N4O12
_chemical_formula_sum              "Pr2 H40 C66 I6 N4 O12"
_cell_length_a       11.6497
_cell_length_b       13.2363
_cell_length_c       13.1585
_cell_angle_alpha    115.581
_cell_angle_beta     114.852
_cell_angle_gamma    90.7604

_space_group_name_H-M_alt    "P 1"
_space_group_IT_number       1

loop_
  _space_group_symop_operation_xyz
  'x, y, z'

loop_
  _atom_site_type_symbol
  _atom_site_label
  _atom_site_symmetry_multiplicity
  _atom_site_fract_x
  _atom_site_fract_y
  _atom_site_fract_z
  _atom_site_occupancy
  Pr  Pr1       1.0  0.10897  0.15690  0.05909  1.0000
  Pr  Pr2       1.0  0.89103  0.84310  0.94091  1.0000
  H   H1        1.0  0.37741  0.53174  0.42782  1.0000
  H   H2        1.0  0.62259  0.46825  0.57218  1.0000
  H   H3        1.0  0.55050  0.71843  0.56128  1.0000
  H   H4        1.0  0.44949  0.28157  0.43871  1.0000
  H   H5        1.0  0.68984  0.75609  0.47702  1.0000
  H   H6        1.0  0.31016  0.24392  0.52297  1.0000
  H   H7        1.0  0.66659  0.60824  0.26732  1.0000
  H   H8        1.0  0.33341  0.39176  0.73268  1.0000
  H   H9        1.0  0.38537  0.95807  0.93823  1.0000
  H   H10       1.0  0.61463  0.04193  0.06177  1.0000
  H   H11       1.0  0.51703  0.86315  0.82939  1.0000
  H   H12       1.0  0.48297  0.13685  0.17061  1.0000
  H   H13       1.0  0.40848  0.68189  0.62242  1.0000
  H   H14       1.0  0.59153  0.31811  0.37758  1.0000
  H   H15       1.0  0.17258  0.59790  0.52208  1.0000
  H   H16       1.0  0.82743  0.40210  0.47791  1.0000
  H   H17       1.0  0.11238  0.03464  0.37672  1.0000
  H   H18       1.0  0.88762  0.96536  0.62328  1.0000
  H   H19       1.0  0.18167  0.94050  0.51387  1.0000
  H   H20       1.0  0.81833  0.05951  0.48613  1.0000
  H   H21       1.0  0.35624  0.83342  0.51651  1.0000
  H   H22       1.0  0.64375  0.16658  0.48349  1.0000
  H   H23       1.0  0.45754  0.81728  0.37948  1.0000
  H   H24       1.0  0.54245  0.18272  0.62052  1.0000
  H   H25       1.0  0.88082  0.31688  0.10054  1.0000
  H   H26       1.0  0.11918  0.68312  0.89947  1.0000
  H   H27       1.0  0.74346  0.44342  0.03534  1.0000
  H   H28       1.0  0.25654  0.55658  0.96467  1.0000
  H   H29       1.0  0.75175  0.48592  0.86966  1.0000
  H   H30       1.0  0.24825  0.51409  0.13035  1.0000
  H   H31       1.0  0.84812  0.46594  0.72846  1.0000
  H   H32       1.0  0.15188  0.53406  0.27155  1.0000
  H   H33       1.0  0.99273  0.37753  0.63539  1.0000
  H   H34       1.0  0.00728  0.62248  0.36461  1.0000
  H   H35       1.0  0.14118  0.24683  0.61696  1.0000
  H   H36       1.0  0.85882  0.75317  0.38304  1.0000
  H   H37       1.0  0.27193  0.12216  0.69696  1.0000
  H   H38       1.0  0.72807  0.87784  0.30304  1.0000
  H   H39       1.0  0.24609  0.08879  0.86061  1.0000
  H   H40       1.0  0.75392  0.91121  0.13940  1.0000
  C   C1        1.0  0.32489  0.35629  0.20833  1.0000
  C   C2        1.0  0.67511  0.64371  0.79167  1.0000
  C   C3        1.0  0.43040  0.46392  0.27852  1.0000
  C   C4        1.0  0.56960  0.53608  0.72147  1.0000
  C   C5        1.0  0.44359  0.55004  0.39577  1.0000
  C   C6        1.0  0.55641  0.44996  0.60423  1.0000
  C   C7        1.0  0.53739  0.65336  0.46849  1.0000
  C   C8        1.0  0.46261  0.34664  0.53151  1.0000
  C   C9        1.0  0.61759  0.67432  0.42169  1.0000
  C   C10       1.0  0.38241  0.32568  0.57831  1.0000
  C   C11       1.0  0.60532  0.59132  0.30470  1.0000
  C   C12       1.0  0.39468  0.40868  0.69530  1.0000
  C   C13       1.0  0.51381  0.48564  0.23420  1.0000
  C   C14       1.0  0.48619  0.51436  0.76579  1.0000
  C   C15       1.0  0.14190  0.88887  0.87338  1.0000
  C   C16       1.0  0.85810  0.11112  0.12662  1.0000
  C   C17       1.0  0.20809  0.83027  0.79499  1.0000
  C   C18       1.0  0.79191  0.16972  0.20500  1.0000
  C   C19       1.0  0.34082  0.87881  0.84679  1.0000
  C   C20       1.0  0.65918  0.12119  0.15320  1.0000
  C   C21       1.0  0.41336  0.82697  0.78611  1.0000
  C   C22       1.0  0.58665  0.17302  0.21388  1.0000
  C   C23       1.0  0.35236  0.72501  0.66972  1.0000
  C   C24       1.0  0.64764  0.27498  0.33027  1.0000
  C   C25       1.0  0.21979  0.67679  0.61371  1.0000
  C   C26       1.0  0.78021  0.32321  0.38628  1.0000
  C   C27       1.0  0.14792  0.72898  0.67612  1.0000
  C   C28       1.0  0.85208  0.27102  0.32387  1.0000
  C   C29       1.0  0.20000  0.03898  0.22110  1.0000
  C   C30       1.0  0.80000  0.96102  0.77891  1.0000
  C   C31       1.0  0.24752  0.98172  0.30293  1.0000
  C   C32       1.0  0.75248  0.01828  0.69708  1.0000
  C   C33       1.0  0.18984  0.98865  0.37966  1.0000
  C   C34       1.0  0.81015  0.01135  0.62034  1.0000
  C   C35       1.0  0.22866  0.93586  0.45626  1.0000
  C   C36       1.0  0.77133  0.06414  0.54374  1.0000
  C   C37       1.0  0.32579  0.87509  0.45702  1.0000
  C   C38       1.0  0.67420  0.12491  0.54298  1.0000
  C   C39       1.0  0.38341  0.86637  0.38053  1.0000
  C   C40       1.0  0.61659  0.13363  0.61947  1.0000
  C   C41       1.0  0.34411  0.91965  0.30411  1.0000
  C   C42       1.0  0.65589  0.08036  0.69589  1.0000
  C   C43       1.0  0.88123  0.33619  0.02804  1.0000
  C   C44       1.0  0.11877  0.66381  0.97197  1.0000
  C   C45       1.0  0.80468  0.40768  0.99140  1.0000
  C   C46       1.0  0.19532  0.59232  0.00860  1.0000
  C   C47       1.0  0.80922  0.43087  0.90049  1.0000
  C   C48       1.0  0.19078  0.56913  0.09951  1.0000
  C   C49       1.0  0.89008  0.38254  0.84612  1.0000
  C   C50       1.0  0.10992  0.61746  0.15389  1.0000
  C   C51       1.0  0.90172  0.40627  0.75410  1.0000
  C   C52       1.0  0.09828  0.59373  0.24590  1.0000
  C   C53       1.0  0.98136  0.35857  0.70401  1.0000
  C   C54       1.0  0.01864  0.64143  0.29599  1.0000
  C   C55       1.0  0.05403  0.28345  0.74143  1.0000
  C   C56       1.0  0.94597  0.71655  0.25857  1.0000
  C   C57       1.0  0.13539  0.23101  0.68973  1.0000
  C   C58       1.0  0.86461  0.76899  0.31027  1.0000
  C   C59       1.0  0.20552  0.16146  0.73203  1.0000
  C   C60       1.0  0.79448  0.83854  0.26797  1.0000
  C   C61       1.0  0.19231  0.14301  0.82450  1.0000
  C   C62       1.0  0.80770  0.85699  0.17551  1.0000
  C   C63       1.0  0.04596  0.25910  0.83396  1.0000
  C   C64       1.0  0.95404  0.74090  0.16604  1.0000
  C   C65       1.0  0.96281  0.31014  0.88787  1.0000
  C   C66       1.0  0.03720  0.68986  0.11214  1.0000
  I   I1        1.0  0.50757  0.37000  0.05902  1.0000
  I   I2        1.0  0.49242  0.63000  0.94097  1.0000
  I   I3        1.0  0.94495  0.65506  0.57661  1.0000
  I   I4        1.0  0.05506  0.34494  0.42338  1.0000
  I   I5        1.0  0.42848  0.89800  0.18403  1.0000
  I   I6        1.0  0.57152  0.10201  0.81598  1.0000
  N   N1        1.0  0.95770  0.28804  0.97813  1.0000
  N   N2        1.0  0.04230  0.71196  0.02187  1.0000
  N   N3        1.0  0.11432  0.18904  0.87331  1.0000
  N   N4        1.0  0.88568  0.81096  0.12669  1.0000
  O   O1        1.0  0.22494  0.36449  0.22693  1.0000
  O   O2        1.0  0.77507  0.63551  0.77307  1.0000
  O   O3        1.0  0.33557  0.26132  0.13255  1.0000
  O   O4        1.0  0.66443  0.73867  0.86745  1.0000
  O   O5        1.0  0.18667  0.99688  0.94842  1.0000
  O   O6        1.0  0.81333  0.00312  0.05158  1.0000
  O   O7        1.0  0.04868  0.82656  0.86189  1.0000
  O   O8        1.0  0.95133  0.17343  0.13810  1.0000
  O   O9        1.0  0.08726  0.99136  0.12250  1.0000
  O   O10       1.0  0.91274  0.00864  0.87750  1.0000
  O   O11       1.0  0.26770  0.13253  0.25187  1.0000
  O   O12       1.0  0.73230  0.86748  0.74814  1.0000
