data_image0
_chemical_formula_structural       Zn2H28C48N8O8
_chemical_formula_sum              "Zn2 H28 C48 N8 O8"
_cell_length_a       7.88886
_cell_length_b       11.3726
_cell_length_c       11.603
_cell_angle_alpha    66.8816
_cell_angle_beta     88.7541
_cell_angle_gamma    81.3855

_space_group_name_H-M_alt    "P 1"
_space_group_IT_number       1

loop_
  _space_group_symop_operation_xyz
  'x, y, z'

loop_
  _atom_site_type_symbol
  _atom_site_label
  _atom_site_symmetry_multiplicity
  _atom_site_fract_x
  _atom_site_fract_y
  _atom_site_fract_z
  _atom_site_occupancy
  Zn  Zn1       1.0  0.36009  0.37143  0.03662  1.0000
  Zn  Zn2       1.0  0.63991  0.62857  0.96338  1.0000
  H   H1        1.0  0.06387  0.41716  0.18051  1.0000
  H   H2        1.0  0.93613  0.58284  0.81949  1.0000
  H   H3        1.0  0.74691  0.35445  0.16679  1.0000
  H   H4        1.0  0.25309  0.64555  0.83321  1.0000
  H   H5        1.0  0.20354  0.73860  0.58450  1.0000
  H   H6        1.0  0.79646  0.26140  0.41551  1.0000
  H   H7        1.0  0.44292  0.82417  0.64655  1.0000
  H   H8        1.0  0.55708  0.17583  0.35345  1.0000
  H   H9        1.0  0.72854  0.81101  0.55036  1.0000
  H   H10       1.0  0.27146  0.18899  0.44964  1.0000
  H   H11       1.0  0.77523  0.71027  0.39482  1.0000
  H   H12       1.0  0.22477  0.28973  0.60518  1.0000
  H   H13       1.0  0.09375  0.62815  0.46090  1.0000
  H   H14       1.0  0.90625  0.37185  0.53910  1.0000
  H   H15       1.0  0.66440  0.60756  0.26723  1.0000
  H   H16       1.0  0.33560  0.39245  0.73277  1.0000
  H   H17       1.0  0.55037  0.99848  0.81845  1.0000
  H   H18       1.0  0.44963  0.00152  0.18155  1.0000
  H   H19       1.0  0.69006  0.91636  0.66775  1.0000
  H   H20       1.0  0.30995  0.08364  0.33226  1.0000
  H   H21       1.0  0.99374  0.94313  0.61158  1.0000
  H   H22       1.0  0.00626  0.05687  0.38842  1.0000
  H   H23       1.0  0.15677  0.05604  0.70555  1.0000
  H   H24       1.0  0.84323  0.94397  0.29445  1.0000
  H   H25       1.0  0.56309  0.11394  0.96201  1.0000
  H   H26       1.0  0.43690  0.88606  0.03798  1.0000
  H   H27       1.0  0.16886  0.17198  0.84770  1.0000
  H   H28       1.0  0.83114  0.82802  0.15230  1.0000
  C   C1        1.0  0.32773  0.73589  0.54158  1.0000
  C   C2        1.0  0.67227  0.26411  0.45842  1.0000
  C   C3        1.0  0.46073  0.78342  0.57538  1.0000
  C   C4        1.0  0.53927  0.21658  0.42461  1.0000
  C   C5        1.0  0.62283  0.77592  0.52098  1.0000
  C   C6        1.0  0.37717  0.22408  0.47902  1.0000
  C   C7        1.0  0.64956  0.72139  0.43380  1.0000
  C   C8        1.0  0.35044  0.27861  0.56620  1.0000
  C   C9        1.0  0.51435  0.67278  0.39604  1.0000
  C   C10       1.0  0.48565  0.32722  0.60396  1.0000
  C   C11       1.0  0.34985  0.67961  0.45138  1.0000
  C   C12       1.0  0.65015  0.32039  0.54862  1.0000
  C   C13       1.0  0.21664  0.62848  0.41622  1.0000
  C   C14       1.0  0.78336  0.37152  0.58378  1.0000
  C   C15       1.0  0.24305  0.57234  0.32957  1.0000
  C   C16       1.0  0.75695  0.42766  0.67043  1.0000
  C   C17       1.0  0.40600  0.56690  0.27428  1.0000
  C   C18       1.0  0.59400  0.43310  0.72572  1.0000
  C   C19       1.0  0.53922  0.61592  0.30753  1.0000
  C   C20       1.0  0.46078  0.38408  0.69247  1.0000
  C   C21       1.0  0.43037  0.50818  0.18307  1.0000
  C   C22       1.0  0.56963  0.49182  0.81693  1.0000
  C   C23       1.0  0.10522  0.51587  0.29552  1.0000
  C   C24       1.0  0.89478  0.48413  0.70448  1.0000
  C   C25       1.0  0.68194  0.01253  0.79319  1.0000
  C   C26       1.0  0.31806  0.98747  0.20681  1.0000
  C   C27       1.0  0.76066  0.96615  0.70937  1.0000
  C   C28       1.0  0.23934  0.03385  0.29063  1.0000
  C   C29       1.0  0.93282  0.98186  0.67732  1.0000
  C   C30       1.0  0.06718  0.01814  0.32268  1.0000
  C   C31       1.0  0.02399  0.04428  0.72940  1.0000
  C   C32       1.0  0.97601  0.95572  0.27060  1.0000
  C   C33       1.0  0.94701  0.09363  0.81661  1.0000
  C   C34       1.0  0.05299  0.90637  0.18339  1.0000
  C   C35       1.0  0.77200  0.07699  0.84951  1.0000
  C   C36       1.0  0.22800  0.92301  0.15049  1.0000
  C   C37       1.0  0.69575  0.12413  0.93691  1.0000
  C   C38       1.0  0.30425  0.87587  0.06309  1.0000
  C   C39       1.0  0.78808  0.18574  0.99083  1.0000
  C   C40       1.0  0.21192  0.81427  0.00916  1.0000
  C   C41       1.0  0.95988  0.20374  0.95740  1.0000
  C   C42       1.0  0.04012  0.79626  0.04260  1.0000
  C   C43       1.0  0.03716  0.15746  0.87180  1.0000
  C   C44       1.0  0.96284  0.84254  0.12820  1.0000
  C   C45       1.0  0.71160  0.23850  0.07816  1.0000
  C   C46       1.0  0.28840  0.76150  0.92184  1.0000
  C   C47       1.0  0.05103  0.27243  0.01357  1.0000
  C   C48       1.0  0.94897  0.72757  0.98643  1.0000
  N   N1        1.0  0.30446  0.45727  0.15530  1.0000
  N   N2        1.0  0.69554  0.54273  0.84470  1.0000
  N   N3        1.0  0.15007  0.45947  0.21196  1.0000
  N   N4        1.0  0.84993  0.54053  0.78804  1.0000
  N   N5        1.0  0.81028  0.30013  0.12136  1.0000
  N   N6        1.0  0.18972  0.69987  0.87864  1.0000
  N   N7        1.0  0.97601  0.32080  0.09269  1.0000
  N   N8        1.0  0.02399  0.67920  0.90731  1.0000
  O   O1        1.0  0.57508  0.50195  0.12750  1.0000
  O   O2        1.0  0.42492  0.49805  0.87250  1.0000
  O   O3        1.0  0.95843  0.51560  0.33732  1.0000
  O   O4        1.0  0.04157  0.48440  0.66268  1.0000
  O   O5        1.0  0.55672  0.22992  0.11359  1.0000
  O   O6        1.0  0.44328  0.77008  0.88641  1.0000
  O   O7        1.0  0.20712  0.28588  0.98161  1.0000
  O   O8        1.0  0.79288  0.71412  0.01840  1.0000
