data_image0
_chemical_formula_structural       Cd2H32C32N36
_chemical_formula_sum              "Cd2 H32 C32 N36"
_cell_length_a       8.63041
_cell_length_b       8.77048
_cell_length_c       15.0045
_cell_angle_alpha    92.2737
_cell_angle_beta     90.0001
_cell_angle_gamma    90

_space_group_name_H-M_alt    "P 1"
_space_group_IT_number       1

loop_
  _space_group_symop_operation_xyz
  'x, y, z'

loop_
  _atom_site_type_symbol
  _atom_site_label
  _atom_site_symmetry_multiplicity
  _atom_site_fract_x
  _atom_site_fract_y
  _atom_site_fract_z
  _atom_site_occupancy
  Cd  Cd1       1.0  0.00000  0.00000  1.00000  1.0000
  Cd  Cd2       1.0  0.50000  0.50000  0.50000  1.0000
  H   H1        1.0  0.06484  0.39033  0.95346  1.0000
  H   H2        1.0  0.56484  0.10967  0.54654  1.0000
  H   H3        1.0  0.93516  0.60968  0.04654  1.0000
  H   H4        1.0  0.43516  0.89032  0.45346  1.0000
  H   H5        1.0  0.26571  0.14531  0.15968  1.0000
  H   H6        1.0  0.76571  0.35469  0.34032  1.0000
  H   H7        1.0  0.73429  0.85469  0.84032  1.0000
  H   H8        1.0  0.23429  0.64531  0.65968  1.0000
  H   H9        1.0  0.61308  0.06646  0.93319  1.0000
  H   H10       1.0  0.11308  0.43354  0.56681  1.0000
  H   H11       1.0  0.38692  0.93354  0.06681  1.0000
  H   H12       1.0  0.88692  0.56645  0.43319  1.0000
  H   H13       1.0  0.83272  0.28954  0.15300  1.0000
  H   H14       1.0  0.33272  0.21046  0.34700  1.0000
  H   H15       1.0  0.16728  0.71046  0.84700  1.0000
  H   H16       1.0  0.66728  0.78954  0.65300  1.0000
  H   H17       1.0  0.42340  0.35341  0.23067  1.0000
  H   H18       1.0  0.92340  0.14659  0.26933  1.0000
  H   H19       1.0  0.57660  0.64659  0.76933  1.0000
  H   H20       1.0  0.07660  0.85341  0.73067  1.0000
  H   H21       1.0  0.36623  0.54455  0.21077  1.0000
  H   H22       1.0  0.86623  0.95546  0.28923  1.0000
  H   H23       1.0  0.63377  0.45546  0.78923  1.0000
  H   H24       1.0  0.13377  0.04454  0.71077  1.0000
  H   H25       1.0  0.54121  0.55029  0.07889  1.0000
  H   H26       1.0  0.04121  0.94971  0.42111  1.0000
  H   H27       1.0  0.45879  0.44971  0.92111  1.0000
  H   H28       1.0  0.95879  0.05029  0.57889  1.0000
  H   H29       1.0  0.64505  0.50518  0.17701  1.0000
  H   H30       1.0  0.14504  0.99482  0.32299  1.0000
  H   H31       1.0  0.35496  0.49482  0.82299  1.0000
  H   H32       1.0  0.85495  0.00518  0.67701  1.0000
  C   C1        1.0  0.13351  0.36103  0.01079  1.0000
  C   C2        1.0  0.63352  0.13897  0.48921  1.0000
  C   C3        1.0  0.86649  0.63897  0.98921  1.0000
  C   C4        1.0  0.36649  0.86103  0.51079  1.0000
  C   C5        1.0  0.23059  0.23329  0.11477  1.0000
  C   C6        1.0  0.73059  0.26671  0.38523  1.0000
  C   C7        1.0  0.76941  0.76671  0.88523  1.0000
  C   C8        1.0  0.26941  0.73329  0.61477  1.0000
  C   C9        1.0  0.63801  0.14414  0.98946  1.0000
  C   C10       1.0  0.13801  0.35585  0.51054  1.0000
  C   C11       1.0  0.36199  0.85586  0.01054  1.0000
  C   C12       1.0  0.86199  0.64414  0.48946  1.0000
  C   C13       1.0  0.75193  0.25260  0.10072  1.0000
  C   C14       1.0  0.25193  0.24741  0.39928  1.0000
  C   C15       1.0  0.24807  0.74741  0.89928  1.0000
  C   C16       1.0  0.74807  0.75259  0.60072  1.0000
  C   C17       1.0  0.40609  0.43680  0.17920  1.0000
  C   C18       1.0  0.90609  0.06319  0.32080  1.0000
  C   C19       1.0  0.59391  0.56320  0.82080  1.0000
  C   C20       1.0  0.09391  0.93680  0.67920  1.0000
  C   C21       1.0  0.55721  0.46382  0.12909  1.0000
  C   C22       1.0  0.05721  0.03619  0.37091  1.0000
  C   C23       1.0  0.44279  0.53619  0.87091  1.0000
  C   C24       1.0  0.94279  0.96381  0.62909  1.0000
  C   C25       1.0  0.06829  0.79423  0.18475  1.0000
  C   C26       1.0  0.56829  0.70576  0.31525  1.0000
  C   C27       1.0  0.93171  0.20577  0.81525  1.0000
  C   C28       1.0  0.43171  0.29422  0.68475  1.0000
  C   C29       1.0  0.01393  0.56234  0.24393  1.0000
  C   C30       1.0  0.51393  0.93766  0.25607  1.0000
  C   C31       1.0  0.98606  0.43766  0.75607  1.0000
  C   C32       1.0  0.48606  0.06235  0.74393  1.0000
  N   N1        1.0  0.28449  0.37691  0.12064  1.0000
  N   N2        1.0  0.78449  0.12309  0.37937  1.0000
  N   N3        1.0  0.71551  0.62309  0.87937  1.0000
  N   N4        1.0  0.21551  0.87691  0.62063  1.0000
  N   N5        1.0  0.22376  0.46090  0.05472  1.0000
  N   N6        1.0  0.72375  0.03910  0.44528  1.0000
  N   N7        1.0  0.77624  0.53910  0.94528  1.0000
  N   N8        1.0  0.27624  0.96090  0.55472  1.0000
  N   N9        1.0  0.13367  0.21963  0.04554  1.0000
  N   N10       1.0  0.63367  0.28037  0.45446  1.0000
  N   N11       1.0  0.86633  0.78037  0.95446  1.0000
  N   N12       1.0  0.36633  0.71963  0.54554  1.0000
  N   N13       1.0  0.61835  0.32585  0.08493  1.0000
  N   N14       1.0  0.11835  0.17415  0.41507  1.0000
  N   N15       1.0  0.38165  0.67416  0.91507  1.0000
  N   N16       1.0  0.88165  0.82584  0.58493  1.0000
  N   N17       1.0  0.54395  0.25817  0.01358  1.0000
  N   N18       1.0  0.04395  0.24183  0.48642  1.0000
  N   N19       1.0  0.45605  0.74183  0.98642  1.0000
  N   N20       1.0  0.95605  0.75817  0.51358  1.0000
  N   N21       1.0  0.76768  0.13594  0.04125  1.0000
  N   N22       1.0  0.26768  0.36405  0.45875  1.0000
  N   N23       1.0  0.23232  0.86406  0.95875  1.0000
  N   N24       1.0  0.73232  0.63594  0.54125  1.0000
  N   N25       1.0  0.09756  0.68467  0.23720  1.0000
  N   N26       1.0  0.59756  0.81533  0.26280  1.0000
  N   N27       1.0  0.90244  0.31533  0.76280  1.0000
  N   N28       1.0  0.40244  0.18467  0.73720  1.0000
  N   N29       1.0  0.05162  0.90356  0.14204  1.0000
  N   N30       1.0  0.55162  0.59644  0.35796  1.0000
  N   N31       1.0  0.94838  0.09644  0.85796  1.0000
  N   N32       1.0  0.44838  0.40356  0.64203  1.0000
  N   N33       1.0  0.94722  0.44666  0.25449  1.0000
  N   N34       1.0  0.44722  0.05334  0.24551  1.0000
  N   N35       1.0  0.05278  0.55335  0.74551  1.0000
  N   N36       1.0  0.55278  0.94665  0.75449  1.0000
