data_image0
_chemical_formula_structural       Hg4H36C32I8N4O8
_chemical_formula_sum              "Hg4 H36 C32 I8 N4 O8"
_cell_length_a       4.2887
_cell_length_b       12.2639
_cell_length_c       24.4072
_cell_angle_alpha    89.9999
_cell_angle_beta     89.9994
_cell_angle_gamma    93.5965

_space_group_name_H-M_alt    "P 1"
_space_group_IT_number       1

loop_
  _space_group_symop_operation_xyz
  'x, y, z'

loop_
  _atom_site_type_symbol
  _atom_site_label
  _atom_site_symmetry_multiplicity
  _atom_site_fract_x
  _atom_site_fract_y
  _atom_site_fract_z
  _atom_site_occupancy
  Hg  Hg1       1.0  0.82562  0.94746  0.91016  1.0000
  Hg  Hg2       1.0  0.67436  0.55254  0.41016  1.0000
  Hg  Hg3       1.0  0.17439  0.05255  0.08985  1.0000
  Hg  Hg4       1.0  0.32564  0.44745  0.58984  1.0000
  H   H1        1.0  0.50690  0.88961  0.78837  1.0000
  H   H2        1.0  0.99299  0.61038  0.28837  1.0000
  H   H3        1.0  0.49304  0.11040  0.21163  1.0000
  H   H4        1.0  0.00701  0.38960  0.71163  1.0000
  H   H5        1.0  0.35611  0.73643  0.72446  1.0000
  H   H6        1.0  0.14387  0.76355  0.22446  1.0000
  H   H7        1.0  0.64385  0.26357  0.27554  1.0000
  H   H8        1.0  0.85613  0.23644  0.77554  1.0000
  H   H9        1.0  0.50629  0.54638  0.74900  1.0000
  H   H10       1.0  0.99374  0.95360  0.24899  1.0000
  H   H11       1.0  0.49372  0.45363  0.25101  1.0000
  H   H12       1.0  0.00622  0.04638  0.75100  1.0000
  H   H13       1.0  0.95245  0.68513  0.89396  1.0000
  H   H14       1.0  0.54758  0.81488  0.39397  1.0000
  H   H15       1.0  0.04757  0.31490  0.10604  1.0000
  H   H16       1.0  0.45242  0.18509  0.60603  1.0000
  H   H17       1.0  0.26267  0.35201  0.86467  1.0000
  H   H18       1.0  0.23735  0.14799  0.36467  1.0000
  H   H19       1.0  0.73736  0.64801  0.13533  1.0000
  H   H20       1.0  0.76266  0.85200  0.63533  1.0000
  H   H21       1.0  0.91174  0.32335  0.90223  1.0000
  H   H22       1.0  0.58828  0.17665  0.40223  1.0000
  H   H23       1.0  0.08829  0.67666  0.09776  1.0000
  H   H24       1.0  0.41173  0.82334  0.59776  1.0000
  H   H25       1.0  0.49525  0.45616  0.94661  1.0000
  H   H26       1.0  0.00475  0.04384  0.44661  1.0000
  H   H27       1.0  0.50476  0.54385  0.05339  1.0000
  H   H28       1.0  0.99525  0.95615  0.55339  1.0000
  H   H29       1.0  0.38673  0.31737  0.96294  1.0000
  H   H30       1.0  0.11327  0.18263  0.46294  1.0000
  H   H31       1.0  0.61326  0.68263  0.03706  1.0000
  H   H32       1.0  0.88674  0.81737  0.53706  1.0000
  H   H33       1.0  0.14614  0.42169  0.98437  1.0000
  H   H34       1.0  0.35387  0.07831  0.48437  1.0000
  H   H35       1.0  0.85385  0.57831  0.01563  1.0000
  H   H36       1.0  0.64615  0.92168  0.51563  1.0000
  C   C1        1.0  0.57225  0.80664  0.79690  1.0000
  C   C2        1.0  0.92769  0.69335  0.29690  1.0000
  C   C3        1.0  0.42772  0.19337  0.20310  1.0000
  C   C4        1.0  0.07230  0.30663  0.70310  1.0000
  C   C5        1.0  0.48628  0.72062  0.76160  1.0000
  C   C6        1.0  0.01370  0.77937  0.26160  1.0000
  C   C7        1.0  0.51369  0.27938  0.23840  1.0000
  C   C8        1.0  0.98629  0.22061  0.73840  1.0000
  C   C9        1.0  0.57010  0.61631  0.77513  1.0000
  C   C10       1.0  0.92992  0.88369  0.27513  1.0000
  C   C11       1.0  0.42991  0.38371  0.22487  1.0000
  C   C12       1.0  0.07005  0.11629  0.72487  1.0000
  C   C13       1.0  0.74103  0.60142  0.82317  1.0000
  C   C14       1.0  0.75899  0.89858  0.32317  1.0000
  C   C15       1.0  0.25899  0.39860  0.17683  1.0000
  C   C16       1.0  0.24099  0.10140  0.67683  1.0000
  C   C17       1.0  0.81920  0.69238  0.85613  1.0000
  C   C18       1.0  0.68081  0.80762  0.35614  1.0000
  C   C19       1.0  0.18080  0.30764  0.14386  1.0000
  C   C20       1.0  0.31919  0.19235  0.64386  1.0000
  C   C21       1.0  0.83350  0.48981  0.83695  1.0000
  C   C22       1.0  0.66652  0.01019  0.33695  1.0000
  C   C23       1.0  0.16654  0.51021  0.16305  1.0000
  C   C24       1.0  0.33344  0.98979  0.66305  1.0000
  C   C25       1.0  0.11731  0.38088  0.89807  1.0000
  C   C26       1.0  0.38271  0.11912  0.39807  1.0000
  C   C27       1.0  0.88271  0.61913  0.10193  1.0000
  C   C28       1.0  0.61729  0.88087  0.60193  1.0000
  C   C29       1.0  0.29665  0.39582  0.95102  1.0000
  C   C30       1.0  0.20336  0.10418  0.45101  1.0000
  C   C31       1.0  0.70335  0.60419  0.04899  1.0000
  C   C32       1.0  0.79666  0.89581  0.54899  1.0000
  I   I1        1.0  0.47946  0.09543  0.86015  1.0000
  I   I2        1.0  0.02053  0.40457  0.36015  1.0000
  I   I3        1.0  0.52053  0.90459  0.13986  1.0000
  I   I4        1.0  0.97947  0.59541  0.63985  1.0000
  I   I5        1.0  0.21089  0.84434  0.97822  1.0000
  I   I6        1.0  0.28910  0.65567  0.47822  1.0000
  I   I7        1.0  0.78911  0.15567  0.02179  1.0000
  I   I8        1.0  0.71090  0.34434  0.52178  1.0000
  N   N1        1.0  0.73449  0.79242  0.84318  1.0000
  N   N2        1.0  0.76548  0.70758  0.34318  1.0000
  N   N3        1.0  0.26550  0.20761  0.15682  1.0000
  N   N4        1.0  0.23452  0.29240  0.65682  1.0000
  O   O1        1.0  0.01200  0.48790  0.88235  1.0000
  O   O2        1.0  0.48803  0.01210  0.38235  1.0000
  O   O3        1.0  0.98801  0.51212  0.11765  1.0000
  O   O4        1.0  0.51197  0.98788  0.61765  1.0000
  O   O5        1.0  0.75432  0.40872  0.80964  1.0000
  O   O6        1.0  0.74570  0.09128  0.30964  1.0000
  O   O7        1.0  0.24576  0.59130  0.19036  1.0000
  O   O8        1.0  0.25424  0.90870  0.69036  1.0000
