data_image0
_chemical_formula_structural       Cs4Ca2H16C8O24
_chemical_formula_sum              "Cs4 Ca2 H16 C8 O24"
_cell_length_a       7.6566
_cell_length_b       9.42797
_cell_length_c       11.3474
_cell_angle_alpha    84.775
_cell_angle_beta     70.2884
_cell_angle_gamma    66.0847

_space_group_name_H-M_alt    "P 1"
_space_group_IT_number       1

loop_
  _space_group_symop_operation_xyz
  'x, y, z'

loop_
  _atom_site_type_symbol
  _atom_site_label
  _atom_site_symmetry_multiplicity
  _atom_site_fract_x
  _atom_site_fract_y
  _atom_site_fract_z
  _atom_site_occupancy
  Cs  Cs1       1.0  0.82383  0.79880  0.90157  1.0000
  Cs  Cs2       1.0  0.52374  0.70120  0.59855  1.0000
  Cs  Cs3       1.0  0.17617  0.20121  0.09843  1.0000
  Cs  Cs4       1.0  0.47627  0.29880  0.40145  1.0000
  Ca  Ca1       1.0  0.64950  0.25006  0.74980  1.0000
  Ca  Ca2       1.0  0.35050  0.74994  0.25020  1.0000
  H   H1        1.0  0.78852  0.04045  0.13734  1.0000
  H   H2        1.0  0.96647  0.45965  0.36258  1.0000
  H   H3        1.0  0.21148  0.95955  0.86265  1.0000
  H   H4        1.0  0.03352  0.54035  0.63742  1.0000
  H   H5        1.0  0.89010  0.91783  0.22253  1.0000
  H   H6        1.0  0.03024  0.58237  0.27740  1.0000
  H   H7        1.0  0.10989  0.08216  0.77747  1.0000
  H   H8        1.0  0.96976  0.41763  0.72260  1.0000
  H   H9        1.0  0.40504  0.06154  0.77104  1.0000
  H   H10       1.0  0.23772  0.43845  0.72898  1.0000
  H   H11       1.0  0.59495  0.93847  0.22895  1.0000
  H   H12       1.0  0.76228  0.56155  0.27102  1.0000
  H   H13       1.0  0.61379  0.00350  0.65150  1.0000
  H   H14       1.0  0.26926  0.49633  0.84850  1.0000
  H   H15       1.0  0.38620  0.99650  0.34849  1.0000
  H   H16       1.0  0.73074  0.50367  0.15150  1.0000
  C   C1        1.0  0.97732  0.24039  0.48860  1.0000
  C   C2        1.0  0.70578  0.25968  0.01124  1.0000
  C   C3        1.0  0.02268  0.75961  0.51140  1.0000
  C   C4        1.0  0.29421  0.74033  0.98877  1.0000
  C   C5        1.0  0.09528  0.10413  0.55879  1.0000
  C   C6        1.0  0.75783  0.39608  0.94124  1.0000
  C   C7        1.0  0.90471  0.89587  0.44121  1.0000
  C   C8        1.0  0.24217  0.60391  0.05876  1.0000
  O   O1        1.0  0.78664  0.30896  0.54148  1.0000
  O   O2        1.0  0.63690  0.19101  0.95806  1.0000
  O   O3        1.0  0.21337  0.69104  0.45852  1.0000
  O   O4        1.0  0.36311  0.80898  0.04195  1.0000
  O   O5        1.0  0.08036  0.27451  0.38631  1.0000
  O   O6        1.0  0.74033  0.22556  0.11362  1.0000
  O   O7        1.0  0.91964  0.72550  0.61370  1.0000
  O   O8        1.0  0.25969  0.77444  0.88638  1.0000
  O   O9        1.0  0.28046  0.02563  0.50567  1.0000
  O   O10       1.0  0.81148  0.47447  0.99452  1.0000
  O   O11       1.0  0.71953  0.97436  0.49432  1.0000
  O   O12       1.0  0.18852  0.52553  0.00549  1.0000
  O   O13       1.0  0.99225  0.08463  0.66957  1.0000
  O   O14       1.0  0.74621  0.41576  0.83043  1.0000
  O   O15       1.0  0.00775  0.91536  0.33041  1.0000
  O   O16       1.0  0.25378  0.58424  0.16958  1.0000
  O   O17       1.0  0.82169  0.92888  0.15965  1.0000
  O   O18       1.0  0.91013  0.57117  0.34030  1.0000
  O   O19       1.0  0.17830  0.07112  0.84034  1.0000
  O   O20       1.0  0.08987  0.42883  0.65971  1.0000
  O   O21       1.0  0.55105  0.04953  0.73942  1.0000
  O   O22       1.0  0.34025  0.45034  0.76055  1.0000
  O   O23       1.0  0.44895  0.95048  0.26058  1.0000
  O   O24       1.0  0.65975  0.54965  0.23945  1.0000
