data_image0
_chemical_formula_structural       Fe2H24C36S12N20
_chemical_formula_sum              "Fe2 H24 C36 S12 N20"
_cell_length_a       7.96299
_cell_length_b       10.2344
_cell_length_c       15.7403
_cell_angle_alpha    88.8155
_cell_angle_beta     89.9814
_cell_angle_gamma    114.104

_space_group_name_H-M_alt    "P 1"
_space_group_IT_number       1

loop_
  _space_group_symop_operation_xyz
  'x, y, z'

loop_
  _atom_site_type_symbol
  _atom_site_label
  _atom_site_symmetry_multiplicity
  _atom_site_fract_x
  _atom_site_fract_y
  _atom_site_fract_z
  _atom_site_occupancy
  Fe  Fe1       1.0  0.49997  0.99975  0.50027  1.0000
  Fe  Fe2       1.0  0.00596  0.01738  0.99843  1.0000
  H   H1        1.0  0.33898  0.24012  0.47937  1.0000
  H   H2        1.0  0.17078  0.77773  0.97851  1.0000
  H   H3        1.0  0.88173  0.22920  0.52842  1.0000
  H   H4        1.0  0.60496  0.77767  0.02183  1.0000
  H   H5        1.0  0.66171  0.75926  0.52111  1.0000
  H   H6        1.0  0.85048  0.23608  0.02667  1.0000
  H   H7        1.0  0.11895  0.76986  0.47182  1.0000
  H   H8        1.0  0.39021  0.24009  0.97182  1.0000
  H   H9        1.0  0.49258  0.28849  0.77987  1.0000
  H   H10       1.0  0.99677  0.70568  0.27825  1.0000
  H   H11       1.0  0.78030  0.27599  0.22673  1.0000
  H   H12       1.0  0.72116  0.71148  0.72546  1.0000
  H   H13       1.0  0.50880  0.71247  0.22053  1.0000
  H   H14       1.0  0.99685  0.28135  0.72434  1.0000
  H   H15       1.0  0.21879  0.72426  0.77380  1.0000
  H   H16       1.0  0.27162  0.27400  0.27200  1.0000
  H   H17       1.0  0.58483  0.13224  0.68646  1.0000
  H   H18       1.0  0.91651  0.87379  0.18431  1.0000
  H   H19       1.0  0.53286  0.10424  0.31996  1.0000
  H   H20       1.0  0.96778  0.88493  0.81603  1.0000
  H   H21       1.0  0.41579  0.86785  0.31433  1.0000
  H   H22       1.0  0.07831  0.11765  0.81872  1.0000
  H   H23       1.0  0.46659  0.89603  0.68063  1.0000
  H   H24       1.0  0.02633  0.11132  0.17827  1.0000
  C   C1        1.0  0.17762  0.00313  0.39408  1.0000
  C   C2        1.0  0.32490  0.00599  0.89363  1.0000
  C   C3        1.0  0.82273  0.99635  0.60592  1.0000
  C   C4        1.0  0.67633  0.00255  0.10569  1.0000
  C   C5        1.0  0.37593  0.25277  0.54619  1.0000
  C   C6        1.0  0.12866  0.75927  0.04495  1.0000
  C   C7        1.0  0.85840  0.23872  0.46116  1.0000
  C   C8        1.0  0.63129  0.76105  0.95609  1.0000
  C   C9        1.0  0.62459  0.74673  0.45430  1.0000
  C   C10       1.0  0.88355  0.24595  0.95931  1.0000
  C   C11       1.0  0.14192  0.76050  0.53913  1.0000
  C   C12       1.0  0.36352  0.24746  0.03874  1.0000
  C   C13       1.0  0.33218  0.34343  0.59854  1.0000
  C   C14       1.0  0.16390  0.66146  0.09750  1.0000
  C   C15       1.0  0.99415  0.33465  0.40736  1.0000
  C   C16       1.0  0.49803  0.66200  0.90504  1.0000
  C   C17       1.0  0.66823  0.65617  0.40182  1.0000
  C   C18       1.0  0.84176  0.33759  0.90484  1.0000
  C   C19       1.0  0.00608  0.66463  0.59288  1.0000
  C   C20       1.0  0.49789  0.33703  0.09298  1.0000
  C   C21       1.0  0.45936  0.27959  0.71241  1.0000
  C   C22       1.0  0.03430  0.71988  0.21099  1.0000
  C   C23       1.0  0.80561  0.26587  0.29419  1.0000
  C   C24       1.0  0.69378  0.72465  0.79190  1.0000
  C   C25       1.0  0.54139  0.72068  0.28807  1.0000
  C   C26       1.0  0.96226  0.27155  0.79188  1.0000
  C   C27       1.0  0.19400  0.73393  0.70623  1.0000
  C   C28       1.0  0.30079  0.26674  0.20500  1.0000
  C   C29       1.0  0.50977  0.19199  0.66086  1.0000
  C   C30       1.0  0.99103  0.81428  0.15953  1.0000
  C   C31       1.0  0.66643  0.16923  0.34585  1.0000
  C   C32       1.0  0.83121  0.82195  0.84169  1.0000
  C   C33       1.0  0.49083  0.80797  0.33979  1.0000
  C   C34       1.0  0.00764  0.17948  0.84387  1.0000
  C   C35       1.0  0.33325  0.83063  0.65464  1.0000
  C   C36       1.0  0.16285  0.17546  0.15321  1.0000
  S   S1        1.0  0.99330  0.00284  0.35294  1.0000
  S   S2        1.0  0.50415  0.99592  0.85213  1.0000
  S   S3        1.0  0.00802  0.99700  0.64616  1.0000
  S   S4        1.0  0.49272  0.00227  0.14893  1.0000
  S   S5        1.0  0.22098  0.45560  0.56692  1.0000
  S   S6        1.0  0.26924  0.54619  0.06676  1.0000
  S   S7        1.0  0.21746  0.45633  0.43777  1.0000
  S   S8        1.0  0.27143  0.54657  0.93755  1.0000
  S   S9        1.0  0.77904  0.54367  0.43326  1.0000
  S   S10       1.0  0.73865  0.45517  0.93430  1.0000
  S   S11       1.0  0.78299  0.54263  0.56240  1.0000
  S   S12       1.0  0.72694  0.45243  0.06330  1.0000
  N   N1        1.0  0.31406  0.00243  0.42501  1.0000
  N   N2        1.0  0.19264  0.01279  0.92503  1.0000
  N   N3        1.0  0.68579  0.99698  0.57554  1.0000
  N   N4        1.0  0.81169  0.00278  0.07327  1.0000
  N   N5        1.0  0.46541  0.17699  0.57820  1.0000
  N   N6        1.0  0.04184  0.83526  0.07730  1.0000
  N   N7        1.0  0.69256  0.15230  0.42976  1.0000
  N   N8        1.0  0.79818  0.84154  0.92321  1.0000
  N   N9        1.0  0.53513  0.82263  0.42246  1.0000
  N   N10       1.0  0.96526  0.16366  0.92802  1.0000
  N   N11       1.0  0.30748  0.84723  0.57065  1.0000
  N   N12       1.0  0.19398  0.16326  0.06966  1.0000
  N   N13       1.0  0.37031  0.35581  0.68140  1.0000
  N   N14       1.0  0.12087  0.64334  0.18013  1.0000
  N   N15       1.0  0.97162  0.34854  0.32398  1.0000
  N   N16       1.0  0.52633  0.64448  0.82326  1.0000
  N   N17       1.0  0.63021  0.64417  0.31892  1.0000
  N   N18       1.0  0.87771  0.35058  0.82145  1.0000
  N   N19       1.0  0.02821  0.65095  0.67632  1.0000
  N   N20       1.0  0.47008  0.34744  0.17579  1.0000
