data_image0
_chemical_formula_structural       Gd2H42C56O24
_chemical_formula_sum              "Gd2 H42 C56 O24"
_cell_length_a       9.58794
_cell_length_b       11.4286
_cell_length_c       12.5039
_cell_angle_alpha    75.1728
_cell_angle_beta     73.6907
_cell_angle_gamma    73.4059

_space_group_name_H-M_alt    "P 1"
_space_group_IT_number       1

loop_
  _space_group_symop_operation_xyz
  'x, y, z'

loop_
  _atom_site_type_symbol
  _atom_site_label
  _atom_site_symmetry_multiplicity
  _atom_site_fract_x
  _atom_site_fract_y
  _atom_site_fract_z
  _atom_site_occupancy
  Gd  Gd1       1.0  0.28842  0.95515  0.05153  1.0000
  Gd  Gd2       1.0  0.71158  0.04485  0.94847  1.0000
  H   H1        1.0  0.20801  0.69103  0.26244  1.0000
  H   H2        1.0  0.79199  0.30897  0.73756  1.0000
  H   H3        1.0  0.48890  0.92641  0.20114  1.0000
  H   H4        1.0  0.51110  0.07359  0.79886  1.0000
  H   H5        1.0  0.39628  0.82060  0.26090  1.0000
  H   H6        1.0  0.60372  0.17940  0.73910  1.0000
  H   H7        1.0  0.14817  0.89025  0.89189  1.0000
  H   H8        1.0  0.85183  0.10975  0.10811  1.0000
  H   H9        1.0  0.04978  0.85215  0.01211  1.0000
  H   H10       1.0  0.95022  0.14785  0.98789  1.0000
  H   H11       1.0  0.09518  0.76858  0.43552  1.0000
  H   H12       1.0  0.90482  0.23142  0.56448  1.0000
  H   H13       1.0  0.93671  0.76453  0.63305  1.0000
  H   H14       1.0  0.06329  0.23547  0.36695  1.0000
  H   H15       1.0  0.70335  0.92899  0.66814  1.0000
  H   H16       1.0  0.29665  0.07101  0.33186  1.0000
  H   H17       1.0  0.62360  0.08994  0.50841  1.0000
  H   H18       1.0  0.37640  0.91006  0.49159  1.0000
  H   H19       1.0  0.79937  0.27384  0.39264  1.0000
  H   H20       1.0  0.20063  0.72616  0.60736  1.0000
  H   H21       1.0  0.63348  0.48806  0.38993  1.0000
  H   H22       1.0  0.36652  0.51194  0.61006  1.0000
  H   H23       1.0  0.35986  0.39741  0.21739  1.0000
  H   H24       1.0  0.64014  0.60259  0.78261  1.0000
  H   H25       1.0  0.53034  0.18527  0.21508  1.0000
  H   H26       1.0  0.46967  0.81473  0.78492  1.0000
  H   H27       1.0  0.44220  0.46056  0.94919  1.0000
  H   H28       1.0  0.55780  0.53944  0.05080  1.0000
  H   H29       1.0  0.25157  0.64700  0.01048  1.0000
  H   H30       1.0  0.74843  0.35300  0.98952  1.0000
  H   H31       1.0  0.94356  0.41359  0.18907  1.0000
  H   H32       1.0  0.05644  0.58641  0.81093  1.0000
  H   H33       1.0  0.13418  0.22848  0.13109  1.0000
  H   H34       1.0  0.86582  0.77152  0.86891  1.0000
  H   H35       1.0  0.01248  0.48556  0.33108  1.0000
  H   H36       1.0  0.98752  0.51444  0.66892  1.0000
  H   H37       1.0  0.84535  0.51791  0.51747  1.0000
  H   H38       1.0  0.15465  0.48209  0.48253  1.0000
  H   H39       1.0  0.64042  0.70963  0.53156  1.0000
  H   H40       1.0  0.35958  0.29037  0.46844  1.0000
  H   H41       1.0  0.60967  0.86957  0.35703  1.0000
  H   H42       1.0  0.39033  0.13044  0.64296  1.0000
  C   C1        1.0  0.05434  0.93417  0.24854  1.0000
  C   C2        1.0  0.94566  0.06583  0.75146  1.0000
  C   C3        1.0  0.95061  0.93104  0.36197  1.0000
  C   C4        1.0  0.04939  0.06896  0.63803  1.0000
  C   C5        1.0  0.99094  0.83801  0.45292  1.0000
  C   C6        1.0  0.00906  0.16199  0.54708  1.0000
  C   C7        1.0  0.90340  0.83620  0.56261  1.0000
  C   C8        1.0  0.09660  0.16380  0.43739  1.0000
  C   C9        1.0  0.77173  0.92757  0.58246  1.0000
  C   C10       1.0  0.22827  0.07243  0.41754  1.0000
  C   C11       1.0  0.72726  0.01952  0.49315  1.0000
  C   C12       1.0  0.27274  0.98048  0.50686  1.0000
  C   C13       1.0  0.81631  0.02165  0.38338  1.0000
  C   C14       1.0  0.18369  0.97835  0.61662  1.0000
  C   C15       1.0  0.67329  0.21910  0.30313  1.0000
  C   C16       1.0  0.32670  0.78090  0.69688  1.0000
  C   C17       1.0  0.70354  0.30240  0.35378  1.0000
  C   C18       1.0  0.29645  0.69760  0.64622  1.0000
  C   C19       1.0  0.61077  0.42092  0.35280  1.0000
  C   C20       1.0  0.38923  0.57908  0.64720  1.0000
  C   C21       1.0  0.48659  0.45607  0.30357  1.0000
  C   C22       1.0  0.51341  0.54393  0.69643  1.0000
  C   C23       1.0  0.45654  0.37057  0.25499  1.0000
  C   C24       1.0  0.54346  0.62943  0.74501  1.0000
  C   C25       1.0  0.55016  0.25248  0.25376  1.0000
  C   C26       1.0  0.44984  0.74752  0.74624  1.0000
  C   C27       1.0  0.39118  0.58382  0.30232  1.0000
  C   C28       1.0  0.60883  0.41618  0.69768  1.0000
  C   C29       1.0  0.42558  0.22535  0.01078  1.0000
  C   C30       1.0  0.57442  0.77465  0.98922  1.0000
  C   C31       1.0  0.30233  0.33281  0.03841  1.0000
  C   C32       1.0  0.69767  0.66719  0.96159  1.0000
  C   C33       1.0  0.33287  0.45160  0.00184  1.0000
  C   C34       1.0  0.66713  0.54839  0.99816  1.0000
  C   C35       1.0  0.22817  0.55479  0.03547  1.0000
  C   C36       1.0  0.77183  0.44521  0.96453  1.0000
  C   C37       1.0  0.09081  0.53886  0.10663  1.0000
  C   C38       1.0  0.90919  0.46114  0.89337  1.0000
  C   C39       1.0  0.05432  0.42273  0.13892  1.0000
  C   C40       1.0  0.94568  0.57727  0.86108  1.0000
  C   C41       1.0  0.16114  0.31944  0.10507  1.0000
  C   C42       1.0  0.83886  0.68056  0.89493  1.0000
  C   C43       1.0  0.90176  0.65705  0.23864  1.0000
  C   C44       1.0  0.09824  0.34295  0.76136  1.0000
  C   C45       1.0  0.92145  0.56800  0.33684  1.0000
  C   C46       1.0  0.07855  0.43200  0.66317  1.0000
  C   C47       1.0  0.82754  0.58729  0.44140  1.0000
  C   C48       1.0  0.17246  0.41271  0.55860  1.0000
  C   C49       1.0  0.71287  0.69464  0.44972  1.0000
  C   C50       1.0  0.28713  0.30536  0.55027  1.0000
  C   C51       1.0  0.69520  0.78347  0.35261  1.0000
  C   C52       1.0  0.30480  0.21653  0.64739  1.0000
  C   C53       1.0  0.78865  0.76779  0.24613  1.0000
  C   C54       1.0  0.21135  0.23221  0.75387  1.0000
  C   C55       1.0  0.76833  0.86992  0.14769  1.0000
  C   C56       1.0  0.23167  0.13008  0.85231  1.0000
  O   O1        1.0  0.13821  0.83309  0.21743  1.0000
  O   O2        1.0  0.86179  0.16691  0.78257  1.0000
  O   O3        1.0  0.06503  0.03800  0.18198  1.0000
  O   O4        1.0  0.93497  0.96200  0.81802  1.0000
  O   O5        1.0  0.76972  0.10460  0.29126  1.0000
  O   O6        1.0  0.23028  0.89540  0.70875  1.0000
  O   O7        1.0  0.42889  0.66744  0.32629  1.0000
  O   O8        1.0  0.57111  0.33255  0.67371  1.0000
  O   O9        1.0  0.26209  0.59955  0.27387  1.0000
  O   O10       1.0  0.73791  0.40045  0.72613  1.0000
  O   O11       1.0  0.40427  0.11421  0.03618  1.0000
  O   O12       1.0  0.59573  0.88579  0.96382  1.0000
  O   O13       1.0  0.55613  0.24375  0.96485  1.0000
  O   O14       1.0  0.44387  0.75625  0.03515  1.0000
  O   O15       1.0  0.99289  0.64687  0.13404  1.0000
  O   O16       1.0  0.00711  0.35313  0.86596  1.0000
  O   O17       1.0  0.86349  0.87153  0.05293  1.0000
  O   O18       1.0  0.13651  0.12847  0.94707  1.0000
  O   O19       1.0  0.65150  0.96081  0.15612  1.0000
  O   O20       1.0  0.34850  0.03919  0.84388  1.0000
  O   O21       1.0  0.38878  0.90708  0.21635  1.0000
  O   O22       1.0  0.61122  0.09292  0.78365  1.0000
  O   O23       1.0  0.15251  0.86311  0.97196  1.0000
  O   O24       1.0  0.84749  0.13689  0.02804  1.0000
