data_image0
_chemical_formula_structural       FeH40C34S2N14O2
_chemical_formula_sum              "Fe1 H40 C34 S2 N14 O2"
_cell_length_a       9.18879
_cell_length_b       9.24198
_cell_length_c       10.402
_cell_angle_alpha    91.5387
_cell_angle_beta     95.1692
_cell_angle_gamma    90.7026

_space_group_name_H-M_alt    "P 1"
_space_group_IT_number       1

loop_
  _space_group_symop_operation_xyz
  'x, y, z'

loop_
  _atom_site_type_symbol
  _atom_site_label
  _atom_site_symmetry_multiplicity
  _atom_site_fract_x
  _atom_site_fract_y
  _atom_site_fract_z
  _atom_site_occupancy
  Fe  Fe1       1.0  0.00434  0.50817  0.98736  1.0000
  H   H1        1.0  0.13404  0.80103  0.14299  1.0000
  H   H2        1.0  0.86859  0.20731  0.84227  1.0000
  H   H3        1.0  0.20552  0.99876  0.27207  1.0000
  H   H4        1.0  0.79278  0.00002  0.72999  1.0000
  H   H5        1.0  0.16181  0.05967  0.42382  1.0000
  H   H6        1.0  0.83427  0.93546  0.57857  1.0000
  H   H7        1.0  0.08519  0.89382  0.35667  1.0000
  H   H8        1.0  0.91228  0.10218  0.64204  1.0000
  H   H9        1.0  0.35880  0.44357  0.00370  1.0000
  H   H10       1.0  0.64735  0.56245  0.98961  1.0000
  H   H11       1.0  0.38102  0.96825  0.19376  1.0000
  H   H12       1.0  0.61853  0.03359  0.80958  1.0000
  H   H13       1.0  0.54678  0.87462  0.19342  1.0000
  H   H14       1.0  0.45410  0.12939  0.81038  1.0000
  H   H15       1.0  0.08867  0.81478  0.88013  1.0000
  H   H16       1.0  0.91498  0.19083  0.12357  1.0000
  H   H17       1.0  0.01699  0.41818  0.67145  1.0000
  H   H18       1.0  0.98696  0.57483  0.34897  1.0000
  H   H19       1.0  0.38780  0.64634  0.79013  1.0000
  H   H20       1.0  0.61155  0.35208  0.21272  1.0000
  H   H21       1.0  0.37994  0.83420  0.82735  1.0000
  H   H22       1.0  0.61910  0.16485  0.17366  1.0000
  H   H23       1.0  0.55108  0.75012  0.81645  1.0000
  H   H24       1.0  0.44787  0.24909  0.18409  1.0000
  H   H25       1.0  0.20051  0.95110  0.71891  1.0000
  H   H26       1.0  0.79454  0.04674  0.27905  1.0000
  H   H27       1.0  0.09203  0.92824  0.57006  1.0000
  H   H28       1.0  0.90224  0.06150  0.42881  1.0000
  H   H29       1.0  0.67722  0.49141  0.52394  1.0000
  H   H30       1.0  0.32088  0.50977  0.47288  1.0000
  H   H31       1.0  0.56435  0.49286  0.65631  1.0000
  H   H32       1.0  0.43702  0.50353  0.34287  1.0000
  H   H33       1.0  0.75935  0.49529  0.68636  1.0000
  H   H34       1.0  0.24253  0.50266  0.30888  1.0000
  H   H35       1.0  0.77827  0.70494  0.43591  1.0000
  H   H36       1.0  0.22053  0.29542  0.56583  1.0000
  H   H37       1.0  0.72858  0.82385  0.30776  1.0000
  H   H38       1.0  0.26943  0.17578  0.69373  1.0000
  H   H39       1.0  0.66425  0.64441  0.29694  1.0000
  H   H40       1.0  0.33542  0.35470  0.70467  1.0000
  C   C1        1.0  0.15582  0.21576  0.95648  1.0000
  C   C2        1.0  0.84508  0.79307  0.03278  1.0000
  C   C3        1.0  0.21841  0.72609  0.12104  1.0000
  C   C4        1.0  0.78477  0.28095  0.86807  1.0000
  C   C5        1.0  0.43277  0.78402  0.63233  1.0000
  C   C6        1.0  0.56465  0.21265  0.36860  1.0000
  C   C7        1.0  0.18536  0.96150  0.36792  1.0000
  C   C8        1.0  0.81182  0.03489  0.63313  1.0000
  C   C9        1.0  0.33514  0.54551  0.05088  1.0000
  C   C10       1.0  0.66982  0.46015  0.94253  1.0000
  C   C11       1.0  0.43629  0.86903  0.22488  1.0000
  C   C12       1.0  0.56381  0.13260  0.77707  1.0000
  C   C13       1.0  0.55375  0.75047  0.56428  1.0000
  C   C14       1.0  0.44404  0.24735  0.43678  1.0000
  C   C15       1.0  0.31304  0.88217  0.43373  1.0000
  C   C16       1.0  0.68393  0.11379  0.56710  1.0000
  C   C17       1.0  0.07967  0.72944  0.80597  1.0000
  C   C18       1.0  0.92308  0.27230  0.20123  1.0000
  C   C19       1.0  0.43581  0.84553  0.36816  1.0000
  C   C20       1.0  0.56208  0.15244  0.63308  1.0000
  C   C21       1.0  0.31122  0.84730  0.56480  1.0000
  C   C22       1.0  0.68529  0.14746  0.43578  1.0000
  C   C23       1.0  0.55743  0.77876  0.43285  1.0000
  C   C24       1.0  0.44056  0.21938  0.56833  1.0000
  C   C25       1.0  0.04539  0.52994  0.69739  1.0000
  C   C26       1.0  0.95726  0.46473  0.31769  1.0000
  C   C27       1.0  0.43777  0.75241  0.77376  1.0000
  C   C28       1.0  0.56084  0.24594  0.22757  1.0000
  C   C29       1.0  0.17669  0.87793  0.63393  1.0000
  C   C30       1.0  0.81936  0.11607  0.36631  1.0000
  C   C31       1.0  0.66717  0.53280  0.62283  1.0000
  C   C32       1.0  0.33278  0.46576  0.37508  1.0000
  C   C33       1.0  0.68926  0.73608  0.36537  1.0000
  C   C34       1.0  0.30937  0.26332  0.63615  1.0000
  S   S1        1.0  0.23576  0.05965  0.96369  1.0000
  S   S2        1.0  0.75922  0.94580  0.03498  1.0000
  N   N1        1.0  0.19711  0.59747  0.05859  1.0000
  N   N2        1.0  0.80744  0.41131  0.92702  1.0000
  N   N3        1.0  0.36260  0.74871  0.14912  1.0000
  N   N4        1.0  0.64014  0.25445  0.84896  1.0000
  N   N5        1.0  0.03756  0.59104  0.81822  1.0000
  N   N6        1.0  0.96805  0.40961  0.19604  1.0000
  N   N7        1.0  0.11323  0.74740  0.68466  1.0000
  N   N8        1.0  0.88577  0.24768  0.32088  1.0000
  N   N9        1.0  0.43864  0.63465  0.10566  1.0000
  N   N10       1.0  0.56526  0.36767  0.89548  1.0000
  N   N11       1.0  0.09854  0.33020  0.95323  1.0000
  N   N12       1.0  0.90659  0.68095  0.03007  1.0000
  N   N13       1.0  0.09106  0.62226  0.61329  1.0000
  N   N14       1.0  0.90784  0.36918  0.39753  1.0000
  O   O1        1.0  0.67430  0.68851  0.63039  1.0000
  O   O2        1.0  0.32386  0.31003  0.37073  1.0000
