data_image0
_chemical_formula_structural       Tb2H42C56O24
_chemical_formula_sum              "Tb2 H42 C56 O24"
_cell_length_a       9.60537
_cell_length_b       11.4367
_cell_length_c       12.4556
_cell_angle_alpha    75.2771
_cell_angle_beta     73.8204
_cell_angle_gamma    73.3561

_space_group_name_H-M_alt    "P 1"
_space_group_IT_number       1

loop_
  _space_group_symop_operation_xyz
  'x, y, z'

loop_
  _atom_site_type_symbol
  _atom_site_label
  _atom_site_symmetry_multiplicity
  _atom_site_fract_x
  _atom_site_fract_y
  _atom_site_fract_z
  _atom_site_occupancy
  Tb  Tb1       1.0  0.71602  0.04524  0.94686  1.0000
  Tb  Tb2       1.0  0.28398  0.95476  0.05314  1.0000
  H   H1        1.0  0.55816  0.54359  0.04857  1.0000
  H   H2        1.0  0.44184  0.45642  0.95142  1.0000
  H   H3        1.0  0.74569  0.35480  0.98894  1.0000
  H   H4        1.0  0.25431  0.64520  0.01106  1.0000
  H   H5        1.0  0.05987  0.58168  0.81140  1.0000
  H   H6        1.0  0.94013  0.41831  0.18860  1.0000
  H   H7        1.0  0.87193  0.76905  0.86818  1.0000
  H   H8        1.0  0.12807  0.23095  0.13182  1.0000
  H   H9        1.0  0.39233  0.12929  0.64407  1.0000
  H   H10       1.0  0.60767  0.87071  0.35593  1.0000
  H   H11       1.0  0.36272  0.28906  0.46891  1.0000
  H   H12       1.0  0.63728  0.71094  0.53109  1.0000
  H   H13       1.0  0.15657  0.47979  0.48184  1.0000
  H   H14       1.0  0.84343  0.52021  0.51816  1.0000
  H   H15       1.0  0.98733  0.51165  0.66800  1.0000
  H   H16       1.0  0.01267  0.48835  0.33201  1.0000
  H   H17       1.0  0.90654  0.23319  0.56241  1.0000
  H   H18       1.0  0.09346  0.76681  0.43759  1.0000
  H   H19       1.0  0.06362  0.23576  0.36429  1.0000
  H   H20       1.0  0.93638  0.76424  0.63570  1.0000
  H   H21       1.0  0.29569  0.07050  0.32907  1.0000
  H   H22       1.0  0.70432  0.92950  0.67092  1.0000
  H   H23       1.0  0.37555  0.90995  0.48945  1.0000
  H   H24       1.0  0.62446  0.09006  0.51055  1.0000
  H   H25       1.0  0.47046  0.81607  0.78350  1.0000
  H   H26       1.0  0.52954  0.18392  0.21650  1.0000
  H   H27       1.0  0.64008  0.60360  0.78153  1.0000
  H   H28       1.0  0.35992  0.39640  0.21847  1.0000
  H   H29       1.0  0.36423  0.51270  0.61058  1.0000
  H   H30       1.0  0.63577  0.48730  0.38942  1.0000
  H   H31       1.0  0.19944  0.72741  0.60693  1.0000
  H   H32       1.0  0.80056  0.27259  0.39307  1.0000
  H   H33       1.0  0.85374  0.11060  0.10765  1.0000
  H   H34       1.0  0.14626  0.88940  0.89235  1.0000
  H   H35       1.0  0.94893  0.15047  0.98688  1.0000
  H   H36       1.0  0.05107  0.84953  0.01312  1.0000
  H   H37       1.0  0.51185  0.07345  0.80079  1.0000
  H   H38       1.0  0.48815  0.92655  0.19921  1.0000
  H   H39       1.0  0.60170  0.18053  0.74021  1.0000
  H   H40       1.0  0.39830  0.81947  0.25979  1.0000
  H   H41       1.0  0.79150  0.31014  0.73552  1.0000
  H   H42       1.0  0.20850  0.68985  0.26448  1.0000
  C   C1        1.0  0.58076  0.77816  0.98549  1.0000
  C   C2        1.0  0.41924  0.22184  0.01451  1.0000
  C   C3        1.0  0.66807  0.55061  0.99641  1.0000
  C   C4        1.0  0.33193  0.44939  0.00359  1.0000
  C   C5        1.0  0.77095  0.44619  0.96352  1.0000
  C   C6        1.0  0.22905  0.55382  0.03648  1.0000
  C   C7        1.0  0.90923  0.45965  0.89298  1.0000
  C   C8        1.0  0.09077  0.54036  0.10701  1.0000
  C   C9        1.0  0.94855  0.57445  0.86092  1.0000
  C   C10       1.0  0.05145  0.42555  0.13908  1.0000
  C   C11       1.0  0.84348  0.67886  0.89403  1.0000
  C   C12       1.0  0.15652  0.32114  0.10597  1.0000
  C   C13       1.0  0.70133  0.66818  0.95973  1.0000
  C   C14       1.0  0.29867  0.33182  0.04027  1.0000
  C   C15       1.0  0.09786  0.34066  0.76135  1.0000
  C   C16       1.0  0.90214  0.65934  0.23865  1.0000
  C   C17       1.0  0.21152  0.23031  0.75442  1.0000
  C   C18       1.0  0.78848  0.76968  0.24558  1.0000
  C   C19       1.0  0.30615  0.21501  0.64802  1.0000
  C   C20       1.0  0.69384  0.78499  0.35198  1.0000
  C   C21       1.0  0.28910  0.30374  0.55053  1.0000
  C   C22       1.0  0.71089  0.69626  0.44947  1.0000
  C   C23       1.0  0.17381  0.41063  0.55827  1.0000
  C   C24       1.0  0.82619  0.58937  0.44173  1.0000
  C   C25       1.0  0.07880  0.42959  0.66273  1.0000
  C   C26       1.0  0.92120  0.57040  0.33727  1.0000
  C   C27       1.0  0.23146  0.12851  0.85333  1.0000
  C   C28       1.0  0.76854  0.87149  0.14667  1.0000
  C   C29       1.0  0.94731  0.06790  0.75020  1.0000
  C   C30       1.0  0.05269  0.93211  0.24980  1.0000
  C   C31       1.0  0.05045  0.07055  0.63642  1.0000
  C   C32       1.0  0.94955  0.92945  0.36358  1.0000
  C   C33       1.0  0.01023  0.16334  0.54504  1.0000
  C   C34       1.0  0.98977  0.83667  0.45495  1.0000
  C   C35       1.0  0.09712  0.16441  0.43501  1.0000
  C   C36       1.0  0.90289  0.83559  0.56498  1.0000
  C   C37       1.0  0.22800  0.07250  0.41499  1.0000
  C   C38       1.0  0.77201  0.92751  0.58501  1.0000
  C   C39       1.0  0.27246  0.98084  0.50467  1.0000
  C   C40       1.0  0.72754  0.01916  0.49533  1.0000
  C   C41       1.0  0.18421  0.97948  0.61489  1.0000
  C   C42       1.0  0.81580  0.02053  0.38511  1.0000
  C   C43       1.0  0.32682  0.78225  0.69573  1.0000
  C   C44       1.0  0.67318  0.21775  0.30427  1.0000
  C   C45       1.0  0.45013  0.74881  0.74503  1.0000
  C   C46       1.0  0.54988  0.25119  0.25496  1.0000
  C   C47       1.0  0.54317  0.63052  0.74416  1.0000
  C   C48       1.0  0.45683  0.36947  0.25584  1.0000
  C   C49       1.0  0.51214  0.54489  0.69613  1.0000
  C   C50       1.0  0.48786  0.45511  0.30387  1.0000
  C   C51       1.0  0.38769  0.58007  0.64712  1.0000
  C   C52       1.0  0.61231  0.41993  0.35289  1.0000
  C   C53       1.0  0.29558  0.69881  0.64558  1.0000
  C   C54       1.0  0.70441  0.30119  0.35442  1.0000
  C   C55       1.0  0.60720  0.41703  0.69731  1.0000
  C   C56       1.0  0.39280  0.58297  0.30270  1.0000
  O   O1        1.0  0.84689  0.13900  0.02783  1.0000
  O   O2        1.0  0.15311  0.86100  0.97217  1.0000
  O   O3        1.0  0.61121  0.09389  0.78439  1.0000
  O   O4        1.0  0.38879  0.90611  0.21561  1.0000
  O   O5        1.0  0.60705  0.88714  0.95870  1.0000
  O   O6        1.0  0.39295  0.11286  0.04130  1.0000
  O   O7        1.0  0.44901  0.76304  0.03068  1.0000
  O   O8        1.0  0.55100  0.23696  0.96932  1.0000
  O   O9        1.0  0.86175  0.16871  0.78080  1.0000
  O   O10       1.0  0.13825  0.83129  0.21920  1.0000
  O   O11       1.0  0.93854  0.96436  0.81783  1.0000
  O   O12       1.0  0.06146  0.03564  0.18216  1.0000
  O   O13       1.0  0.13491  0.12673  0.94748  1.0000
  O   O14       1.0  0.86508  0.87327  0.05252  1.0000
  O   O15       1.0  0.34877  0.03827  0.84610  1.0000
  O   O16       1.0  0.65122  0.96173  0.15390  1.0000
  O   O17       1.0  0.73706  0.40153  0.72437  1.0000
  O   O18       1.0  0.26294  0.59847  0.27563  1.0000
  O   O19       1.0  0.56863  0.33320  0.67442  1.0000
  O   O20       1.0  0.43136  0.66680  0.32559  1.0000
  O   O21       1.0  0.23110  0.89700  0.70730  1.0000
  O   O22       1.0  0.76891  0.10300  0.29270  1.0000
  O   O23       1.0  0.00504  0.35079  0.86570  1.0000
  O   O24       1.0  0.99495  0.64921  0.13430  1.0000
