data_image0
_chemical_formula_structural       Er2H42C56O24
_chemical_formula_sum              "Er2 H42 C56 O24"
_cell_length_a       9.63709
_cell_length_b       11.4789
_cell_length_c       12.3877
_cell_angle_alpha    75.2542
_cell_angle_beta     73.9909
_cell_angle_gamma    72.8761

_space_group_name_H-M_alt    "P 1"
_space_group_IT_number       1

loop_
  _space_group_symop_operation_xyz
  'x, y, z'

loop_
  _atom_site_type_symbol
  _atom_site_label
  _atom_site_symmetry_multiplicity
  _atom_site_fract_x
  _atom_site_fract_y
  _atom_site_fract_z
  _atom_site_occupancy
  Er  Er1       1.0  0.27652  0.45446  0.05587  1.0000
  Er  Er2       1.0  0.72348  0.54554  0.94413  1.0000
  H   H1        1.0  0.11847  0.73456  0.13288  1.0000
  H   H2        1.0  0.88153  0.26545  0.86711  1.0000
  H   H3        1.0  0.93575  0.92587  0.18758  1.0000
  H   H4        1.0  0.06426  0.07413  0.81242  1.0000
  H   H5        1.0  0.25919  0.14037  0.01165  1.0000
  H   H6        1.0  0.74082  0.85963  0.98834  1.0000
  H   H7        1.0  0.44221  0.94741  0.95506  1.0000
  H   H8        1.0  0.55779  0.05259  0.04494  1.0000
  H   H9        1.0  0.01341  0.99122  0.33259  1.0000
  H   H10       1.0  0.98660  0.00878  0.66742  1.0000
  H   H11       1.0  0.84096  0.02251  0.51828  1.0000
  H   H12       1.0  0.15904  0.97749  0.48172  1.0000
  H   H13       1.0  0.63328  0.21297  0.52960  1.0000
  H   H14       1.0  0.36671  0.78703  0.47040  1.0000
  H   H15       1.0  0.60522  0.37303  0.35340  1.0000
  H   H16       1.0  0.39478  0.62697  0.64660  1.0000
  H   H17       1.0  0.09442  0.26320  0.43877  1.0000
  H   H18       1.0  0.90558  0.73680  0.56123  1.0000
  H   H19       1.0  0.93907  0.26078  0.63794  1.0000
  H   H20       1.0  0.06093  0.73922  0.36206  1.0000
  H   H21       1.0  0.70797  0.42728  0.67408  1.0000
  H   H22       1.0  0.29203  0.57272  0.32592  1.0000
  H   H23       1.0  0.62590  0.58815  0.51333  1.0000
  H   H24       1.0  0.37410  0.41185  0.48667  1.0000
  H   H25       1.0  0.52841  0.68304  0.21695  1.0000
  H   H26       1.0  0.47158  0.31696  0.78305  1.0000
  H   H27       1.0  0.36013  0.89642  0.21865  1.0000
  H   H28       1.0  0.63986  0.10358  0.78135  1.0000
  H   H29       1.0  0.63912  0.98398  0.38916  1.0000
  H   H30       1.0  0.36089  0.01602  0.61085  1.0000
  H   H31       1.0  0.80166  0.76780  0.39395  1.0000
  H   H32       1.0  0.19833  0.23220  0.60605  1.0000
  H   H33       1.0  0.39959  0.31823  0.25767  1.0000
  H   H34       1.0  0.60041  0.68176  0.74233  1.0000
  H   H35       1.0  0.48477  0.42680  0.19567  1.0000
  H   H36       1.0  0.51524  0.57319  0.80434  1.0000
  H   H37       1.0  0.05464  0.34839  0.01429  1.0000
  H   H38       1.0  0.94537  0.65160  0.98571  1.0000
  H   H39       1.0  0.15021  0.38779  0.89357  1.0000
  H   H40       1.0  0.84979  0.61221  0.10643  1.0000
  H   H41       1.0  0.21033  0.18952  0.26449  1.0000
  H   H42       1.0  0.78967  0.81048  0.73551  1.0000
  C   C1        1.0  0.40883  0.71421  0.02072  1.0000
  C   C2        1.0  0.59117  0.28579  0.97928  1.0000
  C   C3        1.0  0.29363  0.82870  0.04348  1.0000
  C   C4        1.0  0.70637  0.17131  0.95652  1.0000
  C   C5        1.0  0.14996  0.82298  0.10745  1.0000
  C   C6        1.0  0.85004  0.17703  0.89254  1.0000
  C   C7        1.0  0.04796  0.92947  0.13912  1.0000
  C   C8        1.0  0.95205  0.07053  0.86088  1.0000
  C   C9        1.0  0.09143  0.04171  0.10705  1.0000
  C   C10       1.0  0.90858  0.95829  0.89295  1.0000
  C   C11       1.0  0.23103  0.05059  0.03747  1.0000
  C   C12       1.0  0.76898  0.94941  0.96252  1.0000
  C   C13       1.0  0.33129  0.94383  0.00621  1.0000
  C   C14       1.0  0.66872  0.05617  0.99379  1.0000
  C   C15       1.0  0.90348  0.16240  0.23792  1.0000
  C   C16       1.0  0.09652  0.83760  0.76208  1.0000
  C   C17       1.0  0.92150  0.07330  0.33719  1.0000
  C   C18       1.0  0.07850  0.92670  0.66281  1.0000
  C   C19       1.0  0.82456  0.09190  0.44134  1.0000
  C   C20       1.0  0.17544  0.90810  0.55866  1.0000
  C   C21       1.0  0.70834  0.19862  0.44813  1.0000
  C   C22       1.0  0.29166  0.80138  0.55187  1.0000
  C   C23       1.0  0.69212  0.28742  0.35005  1.0000
  C   C24       1.0  0.30788  0.71257  0.64995  1.0000
  C   C25       1.0  0.78871  0.27248  0.24396  1.0000
  C   C26       1.0  0.21129  0.72751  0.75604  1.0000
  C   C27       1.0  0.76937  0.37460  0.14464  1.0000
  C   C28       1.0  0.23064  0.62540  0.85536  1.0000
  C   C29       1.0  0.05140  0.43009  0.25066  1.0000
  C   C30       1.0  0.94859  0.56991  0.74933  1.0000
  C   C31       1.0  0.94946  0.42647  0.36498  1.0000
  C   C32       1.0  0.05053  0.57353  0.63502  1.0000
  C   C33       1.0  0.99088  0.33340  0.45646  1.0000
  C   C34       1.0  0.00911  0.66660  0.54354  1.0000
  C   C35       1.0  0.90501  0.33247  0.56707  1.0000
  C   C36       1.0  0.09499  0.66753  0.43293  1.0000
  C   C37       1.0  0.77447  0.42499  0.58757  1.0000
  C   C38       1.0  0.22553  0.57501  0.41243  1.0000
  C   C39       1.0  0.72879  0.51687  0.49775  1.0000
  C   C40       1.0  0.27120  0.48312  0.50225  1.0000
  C   C41       1.0  0.81557  0.51765  0.38689  1.0000
  C   C42       1.0  0.18443  0.48235  0.61311  1.0000
  C   C43       1.0  0.67276  0.71509  0.30518  1.0000
  C   C44       1.0  0.32724  0.28491  0.69482  1.0000
  C   C45       1.0  0.54932  0.74970  0.25556  1.0000
  C   C46       1.0  0.45068  0.25031  0.74444  1.0000
  C   C47       1.0  0.45726  0.86852  0.25616  1.0000
  C   C48       1.0  0.54273  0.13149  0.74383  1.0000
  C   C49       1.0  0.48968  0.95339  0.30388  1.0000
  C   C50       1.0  0.51032  0.04660  0.69612  1.0000
  C   C51       1.0  0.61455  0.91711  0.35295  1.0000
  C   C52       1.0  0.38546  0.08289  0.64705  1.0000
  C   C53       1.0  0.70545  0.79769  0.35502  1.0000
  C   C54       1.0  0.29455  0.20231  0.64498  1.0000
  C   C55       1.0  0.39555  0.08171  0.30197  1.0000
  C   C56       1.0  0.60446  0.91830  0.69803  1.0000
  O   O1        1.0  0.38653  0.40526  0.21446  1.0000
  O   O2        1.0  0.61348  0.59473  0.78553  1.0000
  O   O3        1.0  0.15720  0.35772  0.97373  1.0000
  O   O4        1.0  0.84281  0.64228  0.02627  1.0000
  O   O5        1.0  0.37264  0.61018  0.04950  1.0000
  O   O6        1.0  0.62735  0.38982  0.95051  1.0000
  O   O7        1.0  0.54290  0.72197  0.97671  1.0000
  O   O8        1.0  0.45710  0.27804  0.02329  1.0000
  O   O9        1.0  0.13972  0.33017  0.21933  1.0000
  O   O10       1.0  0.86028  0.66983  0.78066  1.0000
  O   O11       1.0  0.05722  0.53367  0.18281  1.0000
  O   O12       1.0  0.94278  0.46634  0.81720  1.0000
  O   O13       1.0  0.26492  0.09797  0.27579  1.0000
  O   O14       1.0  0.73508  0.90203  0.72421  1.0000
  O   O15       1.0  0.43540  0.16521  0.32327  1.0000
  O   O16       1.0  0.56460  0.83479  0.67673  1.0000
  O   O17       1.0  0.64989  0.46297  0.14923  1.0000
  O   O18       1.0  0.35011  0.53702  0.85077  1.0000
  O   O19       1.0  0.86941  0.37851  0.05232  1.0000
  O   O20       1.0  0.13060  0.62149  0.94768  1.0000
  O   O21       1.0  0.76712  0.59953  0.29420  1.0000
  O   O22       1.0  0.23287  0.40046  0.70580  1.0000
  O   O23       1.0  0.99845  0.15201  0.13396  1.0000
  O   O24       1.0  0.00155  0.84800  0.86604  1.0000
