data_image0
_chemical_formula_structural       Dy2H42C56O24
_chemical_formula_sum              "Dy2 H42 C56 O24"
_cell_length_a       9.61393
_cell_length_b       11.4278
_cell_length_c       12.4593
_cell_angle_alpha    75.2745
_cell_angle_beta     73.8923
_cell_angle_gamma    73.3561

_space_group_name_H-M_alt    "P 1"
_space_group_IT_number       1

loop_
  _space_group_symop_operation_xyz
  'x, y, z'

loop_
  _atom_site_type_symbol
  _atom_site_label
  _atom_site_symmetry_multiplicity
  _atom_site_fract_x
  _atom_site_fract_y
  _atom_site_fract_z
  _atom_site_occupancy
  Dy  Dy1       1.0  0.78230  0.95517  0.05364  1.0000
  Dy  Dy2       1.0  0.21770  0.04483  0.94636  1.0000
  H   H1        1.0  0.59484  0.76660  0.43691  1.0000
  H   H2        1.0  0.40516  0.23340  0.56309  1.0000
  H   H3        1.0  0.43787  0.76367  0.63487  1.0000
  H   H4        1.0  0.56213  0.23633  0.36513  1.0000
  H   H5        1.0  0.20513  0.92839  0.66984  1.0000
  H   H6        1.0  0.79487  0.07161  0.33016  1.0000
  H   H7        1.0  0.12465  0.08870  0.50936  1.0000
  H   H8        1.0  0.87535  0.91130  0.49064  1.0000
  H   H9        1.0  0.30004  0.27132  0.39342  1.0000
  H   H10       1.0  0.69996  0.72868  0.60658  1.0000
  H   H11       1.0  0.13543  0.48623  0.39008  1.0000
  H   H12       1.0  0.86458  0.51377  0.60992  1.0000
  H   H13       1.0  0.86142  0.39633  0.21665  1.0000
  H   H14       1.0  0.13858  0.60367  0.78335  1.0000
  H   H15       1.0  0.03121  0.18378  0.21437  1.0000
  H   H16       1.0  0.96879  0.81621  0.78563  1.0000
  H   H17       1.0  0.48543  0.51139  0.66904  1.0000
  H   H18       1.0  0.51457  0.48861  0.33096  1.0000
  H   H19       1.0  0.65487  0.48022  0.48308  1.0000
  H   H20       1.0  0.34513  0.51978  0.51691  1.0000
  H   H21       1.0  0.86198  0.28992  0.47022  1.0000
  H   H22       1.0  0.13802  0.71008  0.52978  1.0000
  H   H23       1.0  0.89235  0.13009  0.64541  1.0000
  H   H24       1.0  0.10765  0.86991  0.35459  1.0000
  H   H25       1.0  0.24431  0.35514  0.99005  1.0000
  H   H26       1.0  0.75568  0.64486  0.00995  1.0000
  H   H27       1.0  0.05750  0.54483  0.04883  1.0000
  H   H28       1.0  0.94250  0.45517  0.95118  1.0000
  H   H29       1.0  0.37207  0.76919  0.86726  1.0000
  H   H30       1.0  0.62793  0.23080  0.13275  1.0000
  H   H31       1.0  0.55899  0.58092  0.81141  1.0000
  H   H32       1.0  0.44101  0.41908  0.18859  1.0000
  H   H33       1.0  0.64749  0.88972  0.89278  1.0000
  H   H34       1.0  0.35251  0.11028  0.10722  1.0000
  H   H35       1.0  0.55119  0.85019  0.01312  1.0000
  H   H36       1.0  0.44881  0.14981  0.98688  1.0000
  H   H37       1.0  0.89793  0.81940  0.25902  1.0000
  H   H38       1.0  0.10207  0.18060  0.74098  1.0000
  H   H39       1.0  0.98717  0.92674  0.19806  1.0000
  H   H40       1.0  0.01283  0.07326  0.80194  1.0000
  H   H41       1.0  0.70961  0.68946  0.26319  1.0000
  H   H42       1.0  0.29039  0.31054  0.73681  1.0000
  C   C1        1.0  0.55317  0.93179  0.24924  1.0000
  C   C2        1.0  0.44683  0.06821  0.75076  1.0000
  C   C3        1.0  0.45021  0.92890  0.36287  1.0000
  C   C4        1.0  0.54979  0.07110  0.63713  1.0000
  C   C5        1.0  0.49097  0.83623  0.45422  1.0000
  C   C6        1.0  0.50903  0.16377  0.54578  1.0000
  C   C7        1.0  0.40413  0.83501  0.56415  1.0000
  C   C8        1.0  0.59587  0.16499  0.43585  1.0000
  C   C9        1.0  0.27293  0.92658  0.58396  1.0000
  C   C10       1.0  0.72707  0.07342  0.41604  1.0000
  C   C11       1.0  0.22807  0.01819  0.49428  1.0000
  C   C12       1.0  0.77193  0.98181  0.50572  1.0000
  C   C13       1.0  0.31629  0.01974  0.38420  1.0000
  C   C14       1.0  0.68371  0.98026  0.61580  1.0000
  C   C15       1.0  0.17360  0.21709  0.30349  1.0000
  C   C16       1.0  0.82640  0.78291  0.69651  1.0000
  C   C17       1.0  0.20433  0.30022  0.35433  1.0000
  C   C18       1.0  0.79567  0.69978  0.64567  1.0000
  C   C19       1.0  0.11234  0.41905  0.35299  1.0000
  C   C20       1.0  0.88766  0.58095  0.64701  1.0000
  C   C21       1.0  0.98834  0.45441  0.30350  1.0000
  C   C22       1.0  0.01166  0.54559  0.69650  1.0000
  C   C23       1.0  0.95775  0.36907  0.25474  1.0000
  C   C24       1.0  0.04225  0.63093  0.74526  1.0000
  C   C25       1.0  0.05084  0.25078  0.25363  1.0000
  C   C26       1.0  0.94916  0.74922  0.74637  1.0000
  C   C27       1.0  0.89343  0.58235  0.30207  1.0000
  C   C28       1.0  0.10658  0.41765  0.69792  1.0000
  C   C29       1.0  0.73121  0.12852  0.85434  1.0000
  C   C30       1.0  0.26879  0.87148  0.14566  1.0000
  C   C31       1.0  0.71088  0.23053  0.75560  1.0000
  C   C32       1.0  0.28912  0.76947  0.24440  1.0000
  C   C33       1.0  0.59654  0.34051  0.76242  1.0000
  C   C34       1.0  0.40346  0.65949  0.23758  1.0000
  C   C35       1.0  0.57724  0.42953  0.66381  1.0000
  C   C36       1.0  0.42276  0.57047  0.33619  1.0000
  C   C37       1.0  0.67247  0.41093  0.55949  1.0000
  C   C38       1.0  0.32753  0.58907  0.44051  1.0000
  C   C39       1.0  0.78824  0.30433  0.55181  1.0000
  C   C40       1.0  0.21176  0.69567  0.44819  1.0000
  C   C41       1.0  0.80576  0.21560  0.64933  1.0000
  C   C42       1.0  0.19424  0.78440  0.35067  1.0000
  C   C43       1.0  0.40807  0.45943  0.89367  1.0000
  C   C44       1.0  0.59193  0.54057  0.10633  1.0000
  C   C45       1.0  0.26990  0.44653  0.96431  1.0000
  C   C46       1.0  0.73009  0.55347  0.03569  1.0000
  C   C47       1.0  0.08200  0.78009  0.98387  1.0000
  C   C48       1.0  0.91800  0.21991  0.01613  1.0000
  C   C49       1.0  0.20115  0.66899  0.95912  1.0000
  C   C50       1.0  0.79885  0.33101  0.04088  1.0000
  C   C51       1.0  0.16740  0.55149  0.99663  1.0000
  C   C52       1.0  0.83259  0.44851  0.00337  1.0000
  C   C53       1.0  0.34329  0.67901  0.89352  1.0000
  C   C54       1.0  0.65671  0.32099  0.10648  1.0000
  C   C55       1.0  0.44774  0.57414  0.86096  1.0000
  C   C56       1.0  0.55226  0.42586  0.13904  1.0000
  O   O1        1.0  0.65336  0.86145  0.97278  1.0000
  O   O2        1.0  0.34664  0.13856  0.02722  1.0000
  O   O3        1.0  0.88806  0.90608  0.21482  1.0000
  O   O4        1.0  0.11194  0.09392  0.78518  1.0000
  O   O5        1.0  0.56190  0.03550  0.18184  1.0000
  O   O6        1.0  0.43810  0.96450  0.81816  1.0000
  O   O7        1.0  0.63886  0.83112  0.21842  1.0000
  O   O8        1.0  0.36114  0.16888  0.78158  1.0000
  O   O9        1.0  0.84872  0.03855  0.84744  1.0000
  O   O10       1.0  0.15128  0.96145  0.15256  1.0000
  O   O11       1.0  0.63436  0.12618  0.94820  1.0000
  O   O12       1.0  0.36564  0.87382  0.05180  1.0000
  O   O13       1.0  0.11105  0.88801  0.95674  1.0000
  O   O14       1.0  0.88895  0.11199  0.04326  1.0000
  O   O15       1.0  0.76405  0.59801  0.27422  1.0000
  O   O16       1.0  0.23595  0.40199  0.72578  1.0000
  O   O17       1.0  0.93170  0.66626  0.32522  1.0000
  O   O18       1.0  0.06830  0.33374  0.67478  1.0000
  O   O19       1.0  0.50336  0.35036  0.86648  1.0000
  O   O20       1.0  0.49664  0.64964  0.13352  1.0000
  O   O21       1.0  0.26926  0.10226  0.29183  1.0000
  O   O22       1.0  0.73074  0.89773  0.70817  1.0000
  O   O23       1.0  0.94956  0.76674  0.02839  1.0000
  O   O24       1.0  0.05044  0.23326  0.97161  1.0000
