data_image0
_chemical_formula_structural       Ho2H42C56O24
_chemical_formula_sum              "Ho2 H42 C56 O24"
_cell_length_a       9.6297
_cell_length_b       11.4673
_cell_length_c       12.449
_cell_angle_alpha    75.1185
_cell_angle_beta     73.841
_cell_angle_gamma    73.0658

_space_group_name_H-M_alt    "P 1"
_space_group_IT_number       1

loop_
  _space_group_symop_operation_xyz
  'x, y, z'

loop_
  _atom_site_type_symbol
  _atom_site_label
  _atom_site_symmetry_multiplicity
  _atom_site_fract_x
  _atom_site_fract_y
  _atom_site_fract_z
  _atom_site_occupancy
  Ho  Ho1       1.0  0.27826  0.45453  0.05577  1.0000
  Ho  Ho2       1.0  0.72174  0.54547  0.94423  1.0000
  H   H1        1.0  0.21028  0.19005  0.26337  1.0000
  H   H2        1.0  0.78971  0.80995  0.73663  1.0000
  H   H3        1.0  0.48622  0.42623  0.19593  1.0000
  H   H4        1.0  0.51378  0.57377  0.80407  1.0000
  H   H5        1.0  0.39914  0.31828  0.25831  1.0000
  H   H6        1.0  0.60086  0.68172  0.74169  1.0000
  H   H7        1.0  0.15345  0.38767  0.89345  1.0000
  H   H8        1.0  0.84655  0.61233  0.10655  1.0000
  H   H9        1.0  0.05318  0.35058  0.01300  1.0000
  H   H10       1.0  0.94682  0.64943  0.98700  1.0000
  H   H11       1.0  0.09475  0.26554  0.43774  1.0000
  H   H12       1.0  0.90525  0.73446  0.56226  1.0000
  H   H13       1.0  0.93902  0.26185  0.63643  1.0000
  H   H14       1.0  0.06098  0.73815  0.36357  1.0000
  H   H15       1.0  0.70703  0.42700  0.67254  1.0000
  H   H16       1.0  0.29296  0.57300  0.32746  1.0000
  H   H17       1.0  0.62465  0.58756  0.51237  1.0000
  H   H18       1.0  0.37534  0.41244  0.48763  1.0000
  H   H19       1.0  0.80021  0.76918  0.39367  1.0000
  H   H20       1.0  0.19978  0.23082  0.60633  1.0000
  H   H21       1.0  0.63713  0.98462  0.38945  1.0000
  H   H22       1.0  0.36287  0.01538  0.61056  1.0000
  H   H23       1.0  0.35994  0.89669  0.21848  1.0000
  H   H24       1.0  0.64006  0.10331  0.78152  1.0000
  H   H25       1.0  0.52823  0.68391  0.21657  1.0000
  H   H26       1.0  0.47177  0.31609  0.78343  1.0000
  H   H27       1.0  0.44375  0.94922  0.95534  1.0000
  H   H28       1.0  0.55625  0.05078  0.04467  1.0000
  H   H29       1.0  0.26067  0.14155  0.01191  1.0000
  H   H30       1.0  0.73933  0.85845  0.98810  1.0000
  H   H31       1.0  0.93685  0.92506  0.18705  1.0000
  H   H32       1.0  0.06315  0.07494  0.81295  1.0000
  H   H33       1.0  0.11977  0.73434  0.13255  1.0000
  H   H34       1.0  0.88023  0.26567  0.86745  1.0000
  H   H35       1.0  0.01350  0.99068  0.33162  1.0000
  H   H36       1.0  0.98650  0.00932  0.66838  1.0000
  H   H37       1.0  0.84184  0.02225  0.51689  1.0000
  H   H38       1.0  0.15816  0.97775  0.48311  1.0000
  H   H39       1.0  0.63520  0.21300  0.52832  1.0000
  H   H40       1.0  0.36480  0.78701  0.47168  1.0000
  H   H41       1.0  0.60693  0.37260  0.35222  1.0000
  H   H42       1.0  0.39307  0.62740  0.64779  1.0000
  C   C1        1.0  0.05129  0.43156  0.25043  1.0000
  C   C2        1.0  0.94872  0.56844  0.74957  1.0000
  C   C3        1.0  0.94910  0.42786  0.36442  1.0000
  C   C4        1.0  0.05089  0.57214  0.63558  1.0000
  C   C5        1.0  0.99078  0.33498  0.45556  1.0000
  C   C6        1.0  0.00921  0.66502  0.54443  1.0000
  C   C7        1.0  0.90482  0.33345  0.56584  1.0000
  C   C8        1.0  0.09517  0.66655  0.43415  1.0000
  C   C9        1.0  0.77381  0.42523  0.58629  1.0000
  C   C10       1.0  0.22619  0.57477  0.41371  1.0000
  C   C11       1.0  0.72799  0.51695  0.49678  1.0000
  C   C12       1.0  0.27201  0.48305  0.50322  1.0000
  C   C13       1.0  0.81500  0.51850  0.38624  1.0000
  C   C14       1.0  0.18500  0.48150  0.61376  1.0000
  C   C15       1.0  0.67208  0.71588  0.30495  1.0000
  C   C16       1.0  0.32792  0.28412  0.69505  1.0000
  C   C17       1.0  0.70422  0.79866  0.35480  1.0000
  C   C18       1.0  0.29578  0.20134  0.64520  1.0000
  C   C19       1.0  0.61303  0.91784  0.35296  1.0000
  C   C20       1.0  0.38697  0.08215  0.64705  1.0000
  C   C21       1.0  0.48860  0.95397  0.30378  1.0000
  C   C22       1.0  0.51140  0.04603  0.69622  1.0000
  C   C23       1.0  0.45676  0.86901  0.25600  1.0000
  C   C24       1.0  0.54324  0.13099  0.74400  1.0000
  C   C25       1.0  0.54895  0.75039  0.25534  1.0000
  C   C26       1.0  0.45105  0.24961  0.74466  1.0000
  C   C27       1.0  0.39462  0.08224  0.30166  1.0000
  C   C28       1.0  0.60538  0.91776  0.69834  1.0000
  C   C29       1.0  0.41138  0.71636  0.01977  1.0000
  C   C30       1.0  0.58862  0.28364  0.98023  1.0000
  C   C31       1.0  0.29508  0.82973  0.04310  1.0000
  C   C32       1.0  0.70492  0.17027  0.95690  1.0000
  C   C33       1.0  0.33261  0.94526  0.00617  1.0000
  C   C34       1.0  0.66739  0.05474  0.99383  1.0000
  C   C35       1.0  0.23222  0.05165  0.03741  1.0000
  C   C36       1.0  0.76778  0.94835  0.96259  1.0000
  C   C37       1.0  0.09244  0.04190  0.10664  1.0000
  C   C38       1.0  0.90757  0.95810  0.89336  1.0000
  C   C39       1.0  0.04914  0.92921  0.13857  1.0000
  C   C40       1.0  0.95086  0.07079  0.86143  1.0000
  C   C41       1.0  0.15139  0.82300  0.10698  1.0000
  C   C42       1.0  0.84861  0.17700  0.89302  1.0000
  C   C43       1.0  0.90411  0.16181  0.23711  1.0000
  C   C44       1.0  0.09589  0.83820  0.76289  1.0000
  C   C45       1.0  0.92188  0.07278  0.33620  1.0000
  C   C46       1.0  0.07811  0.92722  0.66380  1.0000
  C   C47       1.0  0.82537  0.09156  0.44013  1.0000
  C   C48       1.0  0.17463  0.90844  0.55987  1.0000
  C   C49       1.0  0.70966  0.19835  0.44699  1.0000
  C   C50       1.0  0.29034  0.80165  0.55301  1.0000
  C   C51       1.0  0.69338  0.28691  0.34906  1.0000
  C   C52       1.0  0.30662  0.71310  0.65094  1.0000
  C   C53       1.0  0.78957  0.27180  0.24320  1.0000
  C   C54       1.0  0.21043  0.72821  0.75680  1.0000
  C   C55       1.0  0.77000  0.37389  0.14417  1.0000
  C   C56       1.0  0.23000  0.62611  0.85583  1.0000
  O   O1        1.0  0.05839  0.53521  0.18287  1.0000
  O   O2        1.0  0.94161  0.46479  0.81713  1.0000
  O   O3        1.0  0.13838  0.33129  0.21944  1.0000
  O   O4        1.0  0.86162  0.66871  0.78056  1.0000
  O   O5        1.0  0.76665  0.60054  0.29389  1.0000
  O   O6        1.0  0.23336  0.39946  0.70611  1.0000
  O   O7        1.0  0.43385  0.16556  0.32400  1.0000
  O   O8        1.0  0.56615  0.83444  0.67600  1.0000
  O   O9        1.0  0.26496  0.09872  0.27415  1.0000
  O   O10       1.0  0.73504  0.90127  0.72585  1.0000
  O   O11       1.0  0.37716  0.61115  0.04751  1.0000
  O   O12       1.0  0.62284  0.38885  0.95249  1.0000
  O   O13       1.0  0.54516  0.72588  0.97602  1.0000
  O   O14       1.0  0.45484  0.27413  0.02398  1.0000
  O   O15       1.0  0.99891  0.15186  0.13337  1.0000
  O   O16       1.0  0.00109  0.84814  0.86663  1.0000
  O   O17       1.0  0.86936  0.37798  0.05162  1.0000
  O   O18       1.0  0.13064  0.62202  0.94838  1.0000
  O   O19       1.0  0.65063  0.46219  0.14940  1.0000
  O   O20       1.0  0.34937  0.53782  0.85060  1.0000
  O   O21       1.0  0.38747  0.40510  0.21444  1.0000
  O   O22       1.0  0.61253  0.59490  0.78556  1.0000
  O   O23       1.0  0.15696  0.35852  0.97394  1.0000
  O   O24       1.0  0.84304  0.64148  0.02606  1.0000
