data_image0
_chemical_formula_structural       Tb4H4C4O16
_chemical_formula_sum              "Tb4 H4 C4 O16"
_cell_length_a       4.83371
_cell_length_b       7.02635
_cell_length_c       8.48833
_cell_angle_alpha    89.9994
_cell_angle_beta     90
_cell_angle_gamma    90

_space_group_name_H-M_alt    "P 1"
_space_group_IT_number       1

loop_
  _space_group_symop_operation_xyz
  'x, y, z'

loop_
  _atom_site_type_symbol
  _atom_site_label
  _atom_site_symmetry_multiplicity
  _atom_site_fract_x
  _atom_site_fract_y
  _atom_site_fract_z
  _atom_site_occupancy
  Tb  Tb1       1.0  0.01830  0.11711  0.16541  1.0000
  Tb  Tb2       1.0  0.48170  0.88289  0.66541  1.0000
  Tb  Tb3       1.0  0.51830  0.38289  0.83459  1.0000
  Tb  Tb4       1.0  0.98170  0.61711  0.33459  1.0000
  H   H1        1.0  0.86744  0.75635  0.03144  1.0000
  H   H2        1.0  0.63256  0.24365  0.53144  1.0000
  H   H3        1.0  0.36744  0.74365  0.96856  1.0000
  H   H4        1.0  0.13256  0.25635  0.46856  1.0000
  C   C1        1.0  0.50544  0.45086  0.17031  1.0000
  C   C2        1.0  0.99456  0.54913  0.67032  1.0000
  C   C3        1.0  0.00544  0.04914  0.82969  1.0000
  C   C4        1.0  0.49456  0.95087  0.32968  1.0000
  O   O1        1.0  0.00159  0.79683  0.11168  1.0000
  O   O2        1.0  0.49841  0.20317  0.61168  1.0000
  O   O3        1.0  0.50159  0.70317  0.88832  1.0000
  O   O4        1.0  0.99841  0.29683  0.38832  1.0000
  O   O5        1.0  0.29492  0.38982  0.09124  1.0000
  O   O6        1.0  0.20509  0.61018  0.59123  1.0000
  O   O7        1.0  0.79492  0.11018  0.90877  1.0000
  O   O8        1.0  0.70509  0.88982  0.40877  1.0000
  O   O9        1.0  0.75261  0.41712  0.11774  1.0000
  O   O10       1.0  0.74739  0.58289  0.61773  1.0000
  O   O11       1.0  0.25261  0.08289  0.88226  1.0000
  O   O12       1.0  0.24740  0.91711  0.38227  1.0000
  O   O13       1.0  0.47596  0.55300  0.29479  1.0000
  O   O14       1.0  0.02402  0.44702  0.79478  1.0000
  O   O15       1.0  0.97596  0.94700  0.70521  1.0000
  O   O16       1.0  0.52402  0.05298  0.20522  1.0000
