data_image0
_chemical_formula_structural       Co2H40C52S2N4O12
_chemical_formula_sum              "Co2 H40 C52 S2 N4 O12"
_cell_length_a       8.57714
_cell_length_b       11.8373
_cell_length_c       12.8032
_cell_angle_alpha    105.475
_cell_angle_beta     91.5107
_cell_angle_gamma    100.865

_space_group_name_H-M_alt    "P 1"
_space_group_IT_number       1

loop_
  _space_group_symop_operation_xyz
  'x, y, z'

loop_
  _atom_site_type_symbol
  _atom_site_label
  _atom_site_symmetry_multiplicity
  _atom_site_fract_x
  _atom_site_fract_y
  _atom_site_fract_z
  _atom_site_occupancy
  Co  Co1       1.0  0.62817  0.09220  0.23600  1.0000
  Co  Co2       1.0  0.37184  0.90780  0.76400  1.0000
  H   H1        1.0  0.19517  0.06133  0.99412  1.0000
  H   H2        1.0  0.80484  0.93867  0.00587  1.0000
  H   H3        1.0  0.10541  0.31301  0.30892  1.0000
  H   H4        1.0  0.89457  0.68697  0.69109  1.0000
  H   H5        1.0  0.78764  0.30677  0.57535  1.0000
  H   H6        1.0  0.21234  0.69323  0.42467  1.0000
  H   H7        1.0  0.29194  0.89362  0.47940  1.0000
  H   H8        1.0  0.70808  0.10639  0.52060  1.0000
  H   H9        1.0  0.13336  0.24172  0.73496  1.0000
  H   H10       1.0  0.86665  0.75830  0.26504  1.0000
  H   H11       1.0  0.88252  0.40573  0.00396  1.0000
  H   H12       1.0  0.11748  0.59427  0.99605  1.0000
  H   H13       1.0  0.47917  0.30309  0.29702  1.0000
  H   H14       1.0  0.52080  0.69689  0.70298  1.0000
  H   H15       1.0  0.38774  0.44250  0.20572  1.0000
  H   H16       1.0  0.61224  0.55749  0.79428  1.0000
  H   H17       1.0  0.65057  0.12057  0.01422  1.0000
  H   H18       1.0  0.34944  0.87943  0.98578  1.0000
  H   H19       1.0  0.56777  0.25384  0.91106  1.0000
  H   H20       1.0  0.43224  0.74616  0.08894  1.0000
  H   H21       1.0  0.96585  0.27777  0.10987  1.0000
  H   H22       1.0  0.03415  0.72223  0.89013  1.0000
  H   H23       1.0  0.24971  0.49480  0.73164  1.0000
  H   H24       1.0  0.75027  0.50523  0.26836  1.0000
  H   H25       1.0  0.03706  0.05629  0.28303  1.0000
  H   H26       1.0  0.96295  0.94370  0.71697  1.0000
  H   H27       1.0  0.32586  0.48206  0.02987  1.0000
  H   H28       1.0  0.67415  0.51793  0.97012  1.0000
  H   H29       1.0  0.39364  0.40290  0.90756  1.0000
  H   H30       1.0  0.60638  0.59710  0.09243  1.0000
  H   H31       1.0  0.28285  0.09964  0.19394  1.0000
  H   H32       1.0  0.71716  0.90035  0.80605  1.0000
  H   H33       1.0  0.89003  0.93369  0.39656  1.0000
  H   H34       1.0  0.10998  0.06630  0.60343  1.0000
  H   H35       1.0  0.99582  0.86530  0.47566  1.0000
  H   H36       1.0  0.00419  0.13469  0.52433  1.0000
  H   H37       1.0  0.53093  0.94170  0.37910  1.0000
  H   H38       1.0  0.46908  0.05830  0.62090  1.0000
  H   H39       1.0  0.36045  0.46800  0.55089  1.0000
  H   H40       1.0  0.63953  0.53202  0.44911  1.0000
  C   C1        1.0  0.97347  0.32621  0.46830  1.0000
  C   C2        1.0  0.02651  0.67379  0.53172  1.0000
  C   C3        1.0  0.87329  0.25329  0.36828  1.0000
  C   C4        1.0  0.12668  0.74671  0.63174  1.0000
  C   C5        1.0  0.14257  0.17763  0.87651  1.0000
  C   C6        1.0  0.85744  0.82238  0.12349  1.0000
  C   C7        1.0  0.91314  0.34235  0.57084  1.0000
  C   C8        1.0  0.08684  0.65765  0.42918  1.0000
  C   C9        1.0  0.28495  0.93829  0.41556  1.0000
  C   C10       1.0  0.71507  0.06171  0.58444  1.0000
  C   C11       1.0  0.99952  0.33219  0.86034  1.0000
  C   C12       1.0  0.00048  0.66782  0.13966  1.0000
  C   C13       1.0  0.09459  0.25102  0.81658  1.0000
  C   C14       1.0  0.90541  0.74899  0.18343  1.0000
  C   C15       1.0  0.95464  0.34120  0.96711  1.0000
  C   C16       1.0  0.04536  0.65880  0.03290  1.0000
  C   C17       1.0  0.47192  0.36067  0.05029  1.0000
  C   C18       1.0  0.52808  0.63932  0.94971  1.0000
  C   C19       1.0  0.09498  0.18675  0.98307  1.0000
  C   C20       1.0  0.90503  0.81326  0.01694  1.0000
  C   C21       1.0  0.49777  0.29578  0.21173  1.0000
  C   C22       1.0  0.50222  0.70420  0.78826  1.0000
  C   C23       1.0  0.44770  0.37348  0.16033  1.0000
  C   C24       1.0  0.55229  0.62651  0.83967  1.0000
  C   C25       1.0  0.59252  0.19343  0.05330  1.0000
  C   C26       1.0  0.40749  0.80657  0.94670  1.0000
  C   C27       1.0  0.54634  0.26831  0.99682  1.0000
  C   C28       1.0  0.45367  0.73169  0.00318  1.0000
  C   C29       1.0  0.00124  0.27018  0.02758  1.0000
  C   C30       1.0  0.99877  0.72982  0.97243  1.0000
  C   C31       1.0  0.01079  0.40147  0.66580  1.0000
  C   C32       1.0  0.98920  0.59854  0.33420  1.0000
  C   C33       1.0  0.17291  0.44704  0.65780  1.0000
  C   C34       1.0  0.82707  0.55297  0.34221  1.0000
  C   C35       1.0  0.13683  0.37306  0.46110  1.0000
  C   C36       1.0  0.86314  0.62694  0.53890  1.0000
  C   C37       1.0  0.23645  0.08858  0.82521  1.0000
  C   C38       1.0  0.76357  0.91143  0.17479  1.0000
  C   C39       1.0  0.14299  0.02843  0.30746  1.0000
  C   C40       1.0  0.85702  0.97156  0.69253  1.0000
  C   C41       1.0  0.42850  0.44744  0.99416  1.0000
  C   C42       1.0  0.57151  0.55255  0.00584  1.0000
  C   C43       1.0  0.28133  0.05340  0.25702  1.0000
  C   C44       1.0  0.71868  0.94659  0.74297  1.0000
  C   C45       1.0  0.99848  0.94670  0.44945  1.0000
  C   C46       1.0  0.00154  0.05330  0.55055  1.0000
  C   C47       1.0  0.41860  0.96547  0.36152  1.0000
  C   C48       1.0  0.58141  0.03453  0.63847  1.0000
  C   C49       1.0  0.14253  0.96985  0.38910  1.0000
  C   C50       1.0  0.85748  0.03014  0.61089  1.0000
  C   C51       1.0  0.23517  0.43274  0.55728  1.0000
  C   C52       1.0  0.76481  0.56727  0.44272  1.0000
  S   S1        1.0  0.92620  0.42675  0.79240  1.0000
  S   S2        1.0  0.07380  0.57327  0.20761  1.0000
  N   N1        1.0  0.56911  0.20656  0.15927  1.0000
  N   N2        1.0  0.43090  0.79344  0.84072  1.0000
  N   N3        1.0  0.41855  0.02341  0.28359  1.0000
  N   N4        1.0  0.58145  0.97658  0.71640  1.0000
  O   O1        1.0  0.27426  0.01672  0.88019  1.0000
  O   O2        1.0  0.72574  0.98329  0.11980  1.0000
  O   O3        1.0  0.27817  0.07569  0.73000  1.0000
  O   O4        1.0  0.72185  0.92433  0.27000  1.0000
  O   O5        1.0  0.73256  0.19654  0.37765  1.0000
  O   O6        1.0  0.26741  0.80347  0.62236  1.0000
  O   O7        1.0  0.93075  0.24330  0.27619  1.0000
  O   O8        1.0  0.06923  0.75668  0.72382  1.0000
  O   O9        1.0  0.13780  0.11822  0.04380  1.0000
  O   O10       1.0  0.86221  0.88178  0.95619  1.0000
  O   O11       1.0  0.19967  0.36035  0.36450  1.0000
  O   O12       1.0  0.80030  0.63963  0.63551  1.0000
