data_image0
_chemical_formula_structural       Co2H30C40S4N10O12
_chemical_formula_sum              "Co2 H30 C40 S4 N10 O12"
_cell_length_a       7.23312
_cell_length_b       11.1618
_cell_length_c       14.2188
_cell_angle_alpha    108.156
_cell_angle_beta     102.661
_cell_angle_gamma    96.4032

_space_group_name_H-M_alt    "P 1"
_space_group_IT_number       1

loop_
  _space_group_symop_operation_xyz
  'x, y, z'

loop_
  _atom_site_type_symbol
  _atom_site_label
  _atom_site_symmetry_multiplicity
  _atom_site_fract_x
  _atom_site_fract_y
  _atom_site_fract_z
  _atom_site_occupancy
  Co  Co1       1.0  1.00000  0.00000  0.50000  1.0000
  Co  Co2       1.0  0.00001  0.50000  0.50000  1.0000
  H   H1        1.0  0.40379  0.13493  0.58694  1.0000
  H   H2        1.0  0.59620  0.86507  0.41306  1.0000
  H   H3        1.0  0.61900  0.25886  0.76021  1.0000
  H   H4        1.0  0.38100  0.74113  0.23978  1.0000
  H   H5        1.0  0.48096  0.30000  0.91380  1.0000
  H   H6        1.0  0.51903  0.70000  0.08620  1.0000
  H   H7        1.0  0.93451  0.08361  0.70340  1.0000
  H   H8        1.0  0.06548  0.91638  0.29659  1.0000
  H   H9        1.0  0.41444  0.56188  0.59467  1.0000
  H   H10       1.0  0.58557  0.43813  0.40533  1.0000
  H   H11       1.0  0.63618  0.58560  0.76340  1.0000
  H   H12       1.0  0.36382  0.41440  0.23661  1.0000
  H   H13       1.0  0.49544  0.56438  0.90511  1.0000
  H   H14       1.0  0.50457  0.43562  0.09490  1.0000
  H   H15       1.0  0.93056  0.49282  0.69596  1.0000
  H   H16       1.0  0.06945  0.50719  0.30404  1.0000
  H   H17       1.0  0.86410  0.18272  0.93877  1.0000
  H   H18       1.0  0.13590  0.81728  0.06123  1.0000
  H   H19       1.0  0.87327  0.47646  0.92679  1.0000
  H   H20       1.0  0.12674  0.52354  0.07320  1.0000
  H   H21       1.0  0.79821  0.90925  0.74015  1.0000
  H   H22       1.0  0.20179  0.09075  0.25984  1.0000
  H   H23       1.0  0.46667  0.90548  0.63989  1.0000
  H   H24       1.0  0.53332  0.09451  0.36011  1.0000
  H   H25       1.0  0.19033  0.88138  0.71787  1.0000
  H   H26       1.0  0.80967  0.11861  0.28213  1.0000
  H   H27       1.0  0.59986  0.85965  0.97972  1.0000
  H   H28       1.0  0.40013  0.14035  0.02028  1.0000
  H   H29       1.0  0.93498  0.88625  0.89126  1.0000
  H   H30       1.0  0.06501  0.11375  0.10874  1.0000
  C   C1        1.0  0.20410  0.73517  0.47699  1.0000
  C   C2        1.0  0.79591  0.26483  0.52301  1.0000
  C   C3        1.0  0.84732  0.78237  0.56350  1.0000
  C   C4        1.0  0.15268  0.21762  0.43649  1.0000
  C   C5        1.0  0.34831  0.15287  0.65418  1.0000
  C   C6        1.0  0.65169  0.84713  0.34582  1.0000
  C   C7        1.0  0.46773  0.22321  0.75188  1.0000
  C   C8        1.0  0.53227  0.77679  0.24812  1.0000
  C   C9        1.0  0.39166  0.24541  0.83619  1.0000
  C   C10       1.0  0.60834  0.75459  0.16381  1.0000
  C   C11       1.0  0.19590  0.19590  0.81885  1.0000
  C   C12       1.0  0.80410  0.80410  0.18115  1.0000
  C   C13       1.0  0.08610  0.12396  0.71892  1.0000
  C   C14       1.0  0.91389  0.87604  0.28108  1.0000
  C   C15       1.0  0.10480  0.21951  0.90566  1.0000
  C   C16       1.0  0.89520  0.78048  0.09433  1.0000
  C   C17       1.0  0.35797  0.55112  0.65704  1.0000
  C   C18       1.0  0.64204  0.44888  0.34296  1.0000
  C   C19       1.0  0.48051  0.56430  0.75146  1.0000
  C   C20       1.0  0.51949  0.43571  0.24854  1.0000
  C   C21       1.0  0.40261  0.55240  0.82998  1.0000
  C   C22       1.0  0.59740  0.44760  0.17002  1.0000
  C   C23       1.0  0.20129  0.52688  0.81075  1.0000
  C   C24       1.0  0.79871  0.47313  0.18925  1.0000
  C   C25       1.0  0.08702  0.51344  0.71357  1.0000
  C   C26       1.0  0.91299  0.48657  0.28643  1.0000
  C   C27       1.0  0.11307  0.51650  0.89385  1.0000
  C   C28       1.0  0.88693  0.48350  0.10615  1.0000
  C   C29       1.0  0.67472  0.89793  0.77069  1.0000
  C   C30       1.0  0.32527  0.10207  0.22931  1.0000
  C   C31       1.0  0.49005  0.89702  0.71568  1.0000
  C   C32       1.0  0.50995  0.10298  0.28432  1.0000
  C   C33       1.0  0.33767  0.88427  0.75895  1.0000
  C   C34       1.0  0.66232  0.11573  0.24105  1.0000
  C   C35       1.0  0.37698  0.87287  0.85634  1.0000
  C   C36       1.0  0.62302  0.12713  0.14366  1.0000
  C   C37       1.0  0.56684  0.87205  0.90535  1.0000
  C   C38       1.0  0.43315  0.12795  0.09465  1.0000
  C   C39       1.0  0.22177  0.86004  0.90823  1.0000
  C   C40       1.0  0.77822  0.13996  0.09177  1.0000
  S   S1        1.0  0.27336  0.86816  0.45937  1.0000
  S   S2        1.0  0.72665  0.13185  0.54063  1.0000
  S   S3        1.0  0.78162  0.65130  0.58433  1.0000
  S   S4        1.0  0.21838  0.34870  0.41567  1.0000
  N   N1        1.0  0.15214  0.64022  0.49221  1.0000
  N   N2        1.0  0.84787  0.35979  0.50778  1.0000
  N   N3        1.0  0.89858  0.87827  0.54916  1.0000
  N   N4        1.0  0.10142  0.12174  0.45084  1.0000
  N   N5        1.0  0.16051  0.10220  0.63762  1.0000
  N   N6        1.0  0.83948  0.89780  0.36239  1.0000
  N   N7        1.0  0.16335  0.52509  0.63760  1.0000
  N   N8        1.0  0.83665  0.47491  0.36240  1.0000
  N   N9        1.0  0.71356  0.88478  0.86353  1.0000
  N   N10       1.0  0.28644  0.11522  0.13647  1.0000
  O   O1        1.0  0.91537  0.17294  0.87558  1.0000
  O   O2        1.0  0.08463  0.82706  0.12442  1.0000
  O   O3        1.0  0.19688  0.27727  0.99577  1.0000
  O   O4        1.0  0.80312  0.72272  0.00423  1.0000
  O   O5        1.0  0.92269  0.47967  0.86497  1.0000
  O   O6        1.0  0.07731  0.52033  0.13504  1.0000
  O   O7        1.0  0.21389  0.54011  0.98288  1.0000
  O   O8        1.0  0.78612  0.45989  0.01712  1.0000
  O   O9        1.0  0.06842  0.90098  0.87167  1.0000
  O   O10       1.0  0.93157  0.09901  0.12833  1.0000
  O   O11       1.0  0.24610  0.81575  0.97929  1.0000
  O   O12       1.0  0.75389  0.18424  0.02071  1.0000
