data_image0
_chemical_formula_structural       KNaB2H26C18S6N18
_chemical_formula_sum              "K1 Na1 B2 H26 C18 S6 N18"
_cell_length_a       10.5584
_cell_length_b       10.4735
_cell_length_c       10.5097
_cell_angle_alpha    92.8696
_cell_angle_beta     95.9441
_cell_angle_gamma    118.065

_space_group_name_H-M_alt    "P 1"
_space_group_IT_number       1

loop_
  _space_group_symop_operation_xyz
  'x, y, z'

loop_
  _atom_site_type_symbol
  _atom_site_label
  _atom_site_symmetry_multiplicity
  _atom_site_fract_x
  _atom_site_fract_y
  _atom_site_fract_z
  _atom_site_occupancy
  K   K1        1.0  0.50000  0.50000  0.49999  1.0000
  Na  Na1       1.0  1.00000  0.50000  1.00000  1.0000
  B   B1        1.0  0.24534  0.50074  0.24587  1.0000
  B   B2        1.0  0.75466  0.49925  0.75413  1.0000
  H   H1        1.0  0.32958  0.50174  0.33021  1.0000
  H   H2        1.0  0.67042  0.49825  0.66979  1.0000
  H   H3        1.0  0.16525  0.30906  0.82106  1.0000
  H   H4        1.0  0.83475  0.69094  0.17893  1.0000
  H   H5        1.0  0.51503  0.31765  0.95890  1.0000
  H   H6        1.0  0.48498  0.68236  0.04110  1.0000
  H   H7        1.0  0.39369  0.27518  0.81088  1.0000
  H   H8        1.0  0.60632  0.72483  0.18912  1.0000
  H   H9        1.0  0.35763  0.14375  0.92394  1.0000
  H   H10       1.0  0.64238  0.85626  0.07606  1.0000
  H   H11       1.0  0.25224  0.90165  0.07468  1.0000
  H   H12       1.0  0.74776  0.09835  0.92532  1.0000
  H   H13       1.0  0.61370  0.06663  0.25037  1.0000
  H   H14       1.0  0.38630  0.93338  0.74963  1.0000
  H   H15       1.0  0.47484  0.11640  0.20461  1.0000
  H   H16       1.0  0.52516  0.88360  0.79539  1.0000
  H   H17       1.0  0.50819  0.08258  0.36639  1.0000
  H   H18       1.0  0.49181  0.91742  0.63362  1.0000
  H   H19       1.0  0.75850  0.34512  0.24943  1.0000
  H   H20       1.0  0.24150  0.65488  0.75057  1.0000
  H   H21       1.0  0.89322  0.30597  0.58760  1.0000
  H   H22       1.0  0.10678  0.69404  0.41241  1.0000
  H   H23       1.0  0.73779  0.29806  0.49166  1.0000
  H   H24       1.0  0.26221  0.70194  0.50835  1.0000
  H   H25       1.0  0.77297  0.14610  0.48070  1.0000
  H   H26       1.0  0.22703  0.85390  0.51930  1.0000
  C   C1        1.0  0.35412  0.37374  0.10614  1.0000
  C   C2        1.0  0.64588  0.62625  0.89385  1.0000
  C   C3        1.0  0.20992  0.33799  0.92262  1.0000
  C   C4        1.0  0.79008  0.66201  0.07738  1.0000
  C   C5        1.0  0.40151  0.26031  0.91326  1.0000
  C   C6        1.0  0.59850  0.73970  0.08674  1.0000
  C   C7        1.0  0.40694  0.78457  0.28975  1.0000
  C   C8        1.0  0.59306  0.21543  0.71025  1.0000
  C   C9        1.0  0.28409  0.83839  0.13614  1.0000
  C   C10       1.0  0.71591  0.16160  0.86387  1.0000
  C   C11       1.0  0.50557  0.04997  0.26469  1.0000
  C   C12       1.0  0.49443  0.95003  0.73531  1.0000
  C   C13       1.0  0.05776  0.37168  0.40229  1.0000
  C   C14       1.0  0.94224  0.62832  0.59771  1.0000
  C   C15       1.0  0.86721  0.36176  0.27978  1.0000
  C   C16       1.0  0.13279  0.63824  0.72023  1.0000
  C   C17       1.0  0.82260  0.26554  0.49460  1.0000
  C   C18       1.0  0.17740  0.73447  0.50540  1.0000
  S   S1        1.0  0.48949  0.38006  0.20980  1.0000
  S   S2        1.0  0.51051  0.61994  0.79019  1.0000
  S   S3        1.0  0.53524  0.80687  0.41016  1.0000
  S   S4        1.0  0.46476  0.19312  0.58984  1.0000
  S   S5        1.0  0.15975  0.35820  0.52858  1.0000
  S   S6        1.0  0.84026  0.64180  0.47142  1.0000
  N   N1        1.0  0.25483  0.42025  0.12262  1.0000
  N   N2        1.0  0.74517  0.57975  0.87738  1.0000
  N   N3        1.0  0.16594  0.39750  0.00808  1.0000
  N   N4        1.0  0.83406  0.60249  0.99192  1.0000
  N   N5        1.0  0.32272  0.31983  0.97712  1.0000
  N   N6        1.0  0.67728  0.68018  0.02288  1.0000
  N   N7        1.0  0.29064  0.66155  0.22511  1.0000
  N   N8        1.0  0.70936  0.33845  0.77489  1.0000
  N   N9        1.0  0.21525  0.69618  0.13018  1.0000
  N   N10       1.0  0.78475  0.30382  0.86982  1.0000
  N   N11       1.0  0.40090  0.89764  0.23081  1.0000
  N   N12       1.0  0.59909  0.10235  0.76919  1.0000
  N   N13       1.0  0.09328  0.42578  0.28716  1.0000
  N   N14       1.0  0.90672  0.57422  0.71284  1.0000
  N   N15       1.0  0.97413  0.41863  0.21202  1.0000
  N   N16       1.0  0.02587  0.58137  0.78798  1.0000
  N   N17       1.0  0.91112  0.32984  0.39504  1.0000
  N   N18       1.0  0.08889  0.67016  0.60496  1.0000
