data_image0
_chemical_formula_structural       Dy2H12C12O18
_chemical_formula_sum              "Dy2 H12 C12 O18"
_cell_length_a       8.24023
_cell_length_b       8.52739
_cell_length_c       8.90677
_cell_angle_alpha    93.5722
_cell_angle_beta     116.847
_cell_angle_gamma    112.173

_space_group_name_H-M_alt    "P 1"
_space_group_IT_number       1

loop_
  _space_group_symop_operation_xyz
  'x, y, z'

loop_
  _atom_site_type_symbol
  _atom_site_label
  _atom_site_symmetry_multiplicity
  _atom_site_fract_x
  _atom_site_fract_y
  _atom_site_fract_z
  _atom_site_occupancy
  Dy  Dy1       1.0  0.08979  0.51924  0.77253  1.0000
  Dy  Dy2       1.0  0.91021  0.48076  0.22746  1.0000
  H   H1        1.0  0.16316  0.22762  0.90449  1.0000
  H   H2        1.0  0.83684  0.77238  0.09550  1.0000
  H   H3        1.0  0.35778  0.40075  0.06243  1.0000
  H   H4        1.0  0.64222  0.59925  0.93756  1.0000
  H   H5        1.0  0.20392  0.80042  0.61367  1.0000
  H   H6        1.0  0.79607  0.19958  0.38632  1.0000
  H   H7        1.0  0.97488  0.82308  0.79597  1.0000
  H   H8        1.0  0.02512  0.17692  0.20402  1.0000
  H   H9        1.0  0.90643  0.69349  0.90315  1.0000
  H   H10       1.0  0.09358  0.30651  0.09684  1.0000
  H   H11       1.0  0.30758  0.90475  0.81283  1.0000
  H   H12       1.0  0.69242  0.09524  0.18717  1.0000
  C   C1        1.0  0.34344  0.71865  0.19035  1.0000
  C   C2        1.0  0.65656  0.28136  0.80966  1.0000
  C   C3        1.0  0.33314  0.50514  0.61243  1.0000
  C   C4        1.0  0.66686  0.49486  0.38757  1.0000
  C   C5        1.0  0.89440  0.06261  0.62255  1.0000
  C   C6        1.0  0.10561  0.93739  0.37747  1.0000
  C   C7        1.0  0.53395  0.83120  0.35134  1.0000
  C   C8        1.0  0.46605  0.16880  0.64866  1.0000
  C   C9        1.0  0.45391  0.50201  0.53667  1.0000
  C   C10       1.0  0.54611  0.49800  0.46333  1.0000
  C   C11       1.0  0.69954  0.92739  0.48102  1.0000
  C   C12       1.0  0.30047  0.07261  0.51898  1.0000
  O   O1        1.0  0.39799  0.51661  0.77403  1.0000
  O   O2        1.0  0.60201  0.48338  0.22598  1.0000
  O   O3        1.0  0.20865  0.34878  0.97315  1.0000
  O   O4        1.0  0.79135  0.65121  0.02685  1.0000
  O   O5        1.0  0.35562  0.70869  0.05326  1.0000
  O   O6        1.0  0.64437  0.29132  0.94674  1.0000
  O   O7        1.0  0.27095  0.79474  0.73761  1.0000
  O   O8        1.0  0.72904  0.20526  0.26238  1.0000
  O   O9        1.0  0.93887  0.21727  0.60033  1.0000
  O   O10       1.0  0.06114  0.78273  0.39968  1.0000
  O   O11       1.0  0.97452  0.71577  0.83318  1.0000
  O   O12       1.0  0.02547  0.28422  0.16682  1.0000
  O   O13       1.0  0.18288  0.64031  0.19650  1.0000
  O   O14       1.0  0.81711  0.35969  0.80350  1.0000
  O   O15       1.0  0.00596  0.02593  0.75371  1.0000
  O   O16       1.0  0.99404  0.97407  0.24631  1.0000
  O   O17       1.0  0.15778  0.49555  0.51298  1.0000
  O   O18       1.0  0.84222  0.50444  0.48701  1.0000
