data_image0
_chemical_formula_structural       Cu2H16C16N8O8
_chemical_formula_sum              "Cu2 H16 C16 N8 O8"
_cell_length_a       8.19829
_cell_length_b       8.19832
_cell_length_c       9.19304
_cell_angle_alpha    85.3113
_cell_angle_beta     85.3113
_cell_angle_gamma    80.8862

_space_group_name_H-M_alt    "P 1"
_space_group_IT_number       1

loop_
  _space_group_symop_operation_xyz
  'x, y, z'

loop_
  _atom_site_type_symbol
  _atom_site_label
  _atom_site_symmetry_multiplicity
  _atom_site_fract_x
  _atom_site_fract_y
  _atom_site_fract_z
  _atom_site_occupancy
  Cu  Cu1       1.0  0.65836  0.34164  0.75000  1.0000
  Cu  Cu2       1.0  0.34165  0.65835  0.25000  1.0000
  H   H1        1.0  0.19790  0.20791  0.02787  1.0000
  H   H2        1.0  0.79210  0.80210  0.47213  1.0000
  H   H3        1.0  0.80210  0.79210  0.97213  1.0000
  H   H4        1.0  0.20790  0.19790  0.52787  1.0000
  H   H5        1.0  0.86123  0.18083  0.03078  1.0000
  H   H6        1.0  0.81918  0.13877  0.46923  1.0000
  H   H7        1.0  0.13878  0.81918  0.96922  1.0000
  H   H8        1.0  0.18081  0.86122  0.53077  1.0000
  H   H9        1.0  0.26279  0.35903  0.77552  1.0000
  H   H10       1.0  0.64097  0.73721  0.72448  1.0000
  H   H11       1.0  0.73721  0.64098  0.22448  1.0000
  H   H12       1.0  0.35902  0.26279  0.27552  1.0000
  H   H13       1.0  0.00517  0.43851  0.63683  1.0000
  H   H14       1.0  0.56149  0.99483  0.86317  1.0000
  H   H15       1.0  0.99483  0.56149  0.36318  1.0000
  H   H16       1.0  0.43851  0.00516  0.13683  1.0000
  C   C1        1.0  0.47609  0.41877  0.04098  1.0000
  C   C2        1.0  0.58124  0.52391  0.45902  1.0000
  C   C3        1.0  0.52390  0.58125  0.95901  1.0000
  C   C4        1.0  0.41875  0.47609  0.54098  1.0000
  C   C5        1.0  0.10700  0.25001  0.94871  1.0000
  C   C6        1.0  0.74999  0.89300  0.55129  1.0000
  C   C7        1.0  0.89300  0.74999  0.05129  1.0000
  C   C8        1.0  0.25001  0.10700  0.44870  1.0000
  C   C9        1.0  0.94125  0.23803  0.94904  1.0000
  C   C10       1.0  0.76198  0.05875  0.55096  1.0000
  C   C11       1.0  0.05875  0.76198  0.05096  1.0000
  C   C12       1.0  0.23802  0.94125  0.44904  1.0000
  C   C13       1.0  0.00932  0.37178  0.74349  1.0000
  C   C14       1.0  0.62822  0.99068  0.75651  1.0000
  C   C15       1.0  0.99068  0.62822  0.25651  1.0000
  C   C16       1.0  0.37178  0.00932  0.24349  1.0000
  N   N1        1.0  0.88254  0.31462  0.82020  1.0000
  N   N2        1.0  0.68538  0.11745  0.67981  1.0000
  N   N3        1.0  0.11746  0.68538  0.17981  1.0000
  N   N4        1.0  0.31462  0.88254  0.32019  1.0000
  N   N5        1.0  0.14687  0.33458  0.81847  1.0000
  N   N6        1.0  0.66542  0.85313  0.68153  1.0000
  N   N7        1.0  0.85313  0.66542  0.18153  1.0000
  N   N8        1.0  0.33458  0.14687  0.31847  1.0000
  O   O1        1.0  0.51614  0.28395  0.98292  1.0000
  O   O2        1.0  0.71605  0.48386  0.51708  1.0000
  O   O3        1.0  0.48387  0.71605  0.01707  1.0000
  O   O4        1.0  0.28395  0.51613  0.48293  1.0000
  O   O5        1.0  0.39577  0.43490  0.16620  1.0000
  O   O6        1.0  0.56510  0.60423  0.33380  1.0000
  O   O7        1.0  0.60423  0.56510  0.83379  1.0000
  O   O8        1.0  0.43490  0.39577  0.66621  1.0000
