data_image0
_chemical_formula_structural       Pr4Cu4H32C56N8O32
_chemical_formula_sum              "Pr4 Cu4 H32 C56 N8 O32"
_cell_length_a       9.27477
_cell_length_b       11.4365
_cell_length_c       17.313
_cell_angle_alpha    107.064
_cell_angle_beta     90.0209
_cell_angle_gamma    113.866

_space_group_name_H-M_alt    "P 1"
_space_group_IT_number       1

loop_
  _space_group_symop_operation_xyz
  'x, y, z'

loop_
  _atom_site_type_symbol
  _atom_site_label
  _atom_site_symmetry_multiplicity
  _atom_site_fract_x
  _atom_site_fract_y
  _atom_site_fract_z
  _atom_site_occupancy
  Pr  Pr1       1.0  0.30249  0.96442  0.92423  1.0000
  Pr  Pr2       1.0  0.33820  0.03570  0.57578  1.0000
  Pr  Pr3       1.0  0.69752  0.03558  0.07577  1.0000
  Pr  Pr4       1.0  0.66179  0.96430  0.42422  1.0000
  Cu  Cu1       1.0  0.24516  0.33075  0.13411  1.0000
  Cu  Cu2       1.0  0.91471  0.66937  0.36570  1.0000
  Cu  Cu3       1.0  0.75485  0.66926  0.86590  1.0000
  Cu  Cu4       1.0  0.08528  0.33063  0.63430  1.0000
  H   H1        1.0  0.61703  0.19838  0.77943  1.0000
  H   H2        1.0  0.41973  0.80199  0.72040  1.0000
  H   H3        1.0  0.38298  0.80161  0.22058  1.0000
  H   H4        1.0  0.58027  0.19801  0.27960  1.0000
  H   H5        1.0  0.78805  0.30928  0.68835  1.0000
  H   H6        1.0  0.47953  0.69092  0.81158  1.0000
  H   H7        1.0  0.21193  0.69070  0.31165  1.0000
  H   H8        1.0  0.52047  0.30908  0.18842  1.0000
  H   H9        1.0  0.16136  0.23430  0.75991  1.0000
  H   H10       1.0  0.92778  0.76540  0.74038  1.0000
  H   H11       1.0  0.83865  0.76570  0.24008  1.0000
  H   H12       1.0  0.07222  0.23461  0.25962  1.0000
  H   H13       1.0  0.00987  0.13174  0.86016  1.0000
  H   H14       1.0  0.87914  0.86801  0.63998  1.0000
  H   H15       1.0  0.99016  0.86827  0.13984  1.0000
  H   H16       1.0  0.12085  0.13199  0.36002  1.0000
  H   H17       1.0  0.55508  0.73335  0.05972  1.0000
  H   H18       1.0  0.82189  0.26666  0.44023  1.0000
  H   H19       1.0  0.44491  0.26666  0.94028  1.0000
  H   H20       1.0  0.17810  0.73333  0.55977  1.0000
  H   H21       1.0  0.49292  0.57517  0.13716  1.0000
  H   H22       1.0  0.91798  0.42483  0.36281  1.0000
  H   H23       1.0  0.50708  0.42484  0.86285  1.0000
  H   H24       1.0  0.08202  0.57517  0.63719  1.0000
  H   H25       1.0  0.04839  0.32934  0.99868  1.0000
  H   H26       1.0  0.71865  0.67075  0.50088  1.0000
  H   H27       1.0  0.95161  0.67066  0.00132  1.0000
  H   H28       1.0  0.28137  0.32925  0.49913  1.0000
  H   H29       1.0  0.08970  0.48862  0.91810  1.0000
  H   H30       1.0  0.60057  0.51145  0.58139  1.0000
  H   H31       1.0  0.91029  0.51137  0.08190  1.0000
  H   H32       1.0  0.39944  0.48855  0.41861  1.0000
  C   C1        1.0  0.69863  0.08736  0.88295  1.0000
  C   C2        1.0  0.61213  0.91285  0.61710  1.0000
  C   C3        1.0  0.30140  0.91264  0.11706  1.0000
  C   C4        1.0  0.38786  0.08714  0.38290  1.0000
  C   C5        1.0  0.79963  0.15554  0.82727  1.0000
  C   C6        1.0  0.64516  0.84460  0.67274  1.0000
  C   C7        1.0  0.20039  0.84446  0.17273  1.0000
  C   C8        1.0  0.35484  0.15540  0.32725  1.0000
  C   C9        1.0  0.73818  0.20716  0.77845  1.0000
  C   C10       1.0  0.53202  0.79306  0.72148  1.0000
  C   C11       1.0  0.26183  0.79283  0.22155  1.0000
  C   C12       1.0  0.46799  0.20694  0.27851  1.0000
  C   C13       1.0  0.83256  0.26777  0.72679  1.0000
  C   C14       1.0  0.56562  0.73237  0.77319  1.0000
  C   C15       1.0  0.16743  0.73222  0.27321  1.0000
  C   C16       1.0  0.43439  0.26764  0.22681  1.0000
  C   C17       1.0  0.04179  0.22690  0.76763  1.0000
  C   C18       1.0  0.81567  0.77292  0.73253  1.0000
  C   C19       1.0  0.95822  0.77311  0.23237  1.0000
  C   C20       1.0  0.18434  0.22709  0.26747  1.0000
  C   C21       1.0  0.95582  0.16873  0.82262  1.0000
  C   C22       1.0  0.78804  0.83115  0.67747  1.0000
  C   C23       1.0  0.04419  0.83127  0.17738  1.0000
  C   C24       1.0  0.21196  0.16886  0.32253  1.0000
  C   C25       1.0  0.34598  0.73378  0.94559  1.0000
  C   C26       1.0  0.61183  0.26627  0.55410  1.0000
  C   C27       1.0  0.65401  0.26623  0.05441  1.0000
  C   C28       1.0  0.38816  0.73373  0.44590  1.0000
  C   C29       1.0  0.32469  0.62608  0.98325  1.0000
  C   C30       1.0  0.69827  0.37390  0.51643  1.0000
  C   C31       1.0  0.67530  0.37392  0.01676  1.0000
  C   C32       1.0  0.30172  0.62609  0.48357  1.0000
  C   C33       1.0  0.44065  0.64644  0.04325  1.0000
  C   C34       1.0  0.79418  0.35356  0.45659  1.0000
  C   C35       1.0  0.55934  0.35357  0.95675  1.0000
  C   C36       1.0  0.20582  0.64643  0.54341  1.0000
  C   C37       1.0  0.40748  0.55682  0.08691  1.0000
  C   C38       1.0  0.85069  0.44319  0.41295  1.0000
  C   C39       1.0  0.59252  0.44320  0.91309  1.0000
  C   C40       1.0  0.14931  0.55680  0.58706  1.0000
  C   C41       1.0  0.15817  0.42093  0.01007  1.0000
  C   C42       1.0  0.73688  0.57910  0.48952  1.0000
  C   C43       1.0  0.84183  0.57907  0.98994  1.0000
  C   C44       1.0  0.26312  0.42090  0.51048  1.0000
  C   C45       1.0  0.18213  0.50882  0.96532  1.0000
  C   C46       1.0  0.67289  0.49119  0.53424  1.0000
  C   C47       1.0  0.81786  0.49118  0.03468  1.0000
  C   C48       1.0  0.32712  0.50881  0.46576  1.0000
  C   C49       1.0  0.94502  0.92677  0.97415  1.0000
  C   C50       1.0  0.01806  0.07321  0.52587  1.0000
  C   C51       1.0  0.05497  0.07324  0.02586  1.0000
  C   C52       1.0  0.98193  0.92679  0.47412  1.0000
  C   C53       1.0  0.21571  0.92327  0.72850  1.0000
  C   C54       1.0  0.29240  0.07705  0.77151  1.0000
  C   C55       1.0  0.78428  0.07672  0.27149  1.0000
  C   C56       1.0  0.70761  0.92295  0.22847  1.0000
  N   N1        1.0  0.98121  0.27529  0.71950  1.0000
  N   N2        1.0  0.70664  0.72469  0.78060  1.0000
  N   N3        1.0  0.01879  0.72471  0.28050  1.0000
  N   N4        1.0  0.29337  0.27532  0.21940  1.0000
  N   N5        1.0  0.26766  0.44577  0.07170  1.0000
  N   N6        1.0  0.82176  0.55426  0.42803  1.0000
  N   N7        1.0  0.73235  0.55424  0.92831  1.0000
  N   N8        1.0  0.17825  0.44573  0.57198  1.0000
  O   O1        1.0  0.54888  0.03587  0.86301  1.0000
  O   O2        1.0  0.51384  0.96440  0.63705  1.0000
  O   O3        1.0  0.45114  0.96412  0.13700  1.0000
  O   O4        1.0  0.48615  0.03559  0.36295  1.0000
  O   O5        1.0  0.77149  0.08850  0.94543  1.0000
  O   O6        1.0  0.68364  0.91161  0.55457  1.0000
  O   O7        1.0  0.22854  0.91152  0.05458  1.0000
  O   O8        1.0  0.31635  0.08838  0.44543  1.0000
  O   O9        1.0  0.23543  0.71495  0.89394  1.0000
  O   O10       1.0  0.52011  0.28526  0.60571  1.0000
  O   O11       1.0  0.76456  0.28505  0.10606  1.0000
  O   O12       1.0  0.47988  0.71473  0.39429  1.0000
  O   O13       1.0  0.47153  0.84611  0.97038  1.0000
  O   O14       1.0  0.62507  0.15386  0.52940  1.0000
  O   O15       1.0  0.52846  0.15388  0.02962  1.0000
  O   O16       1.0  0.37491  0.84613  0.47060  1.0000
  O   O17       1.0  0.00301  0.86508  0.91877  1.0000
  O   O18       1.0  0.13759  0.13488  0.58132  1.0000
  O   O19       1.0  0.99701  0.13492  0.08123  1.0000
  O   O20       1.0  0.86239  0.86512  0.41867  1.0000
  O   O21       1.0  0.80386  0.87671  0.98960  1.0000
  O   O22       1.0  0.92686  0.12330  0.51041  1.0000
  O   O23       1.0  0.19616  0.12331  0.01040  1.0000
  O   O24       1.0  0.07312  0.87670  0.48959  1.0000
  O   O25       1.0  0.20122  0.84832  0.77197  1.0000
  O   O26       1.0  0.35264  0.15199  0.72800  1.0000
  O   O27       1.0  0.79878  0.15167  0.22803  1.0000
  O   O28       1.0  0.64734  0.84800  0.27199  1.0000
  O   O29       1.0  0.16911  0.88517  0.65266  1.0000
  O   O30       1.0  0.28383  0.11515  0.84732  1.0000
  O   O31       1.0  0.83087  0.11481  0.34734  1.0000
  O   O32       1.0  0.71619  0.88484  0.15268  1.0000
