data_image0
_chemical_formula_structural       La4Cu4H32C56N8O32
_chemical_formula_sum              "La4 Cu4 H32 C56 N8 O32"
_cell_length_a       9.32911
_cell_length_b       11.3794
_cell_length_c       17.4801
_cell_angle_alpha    107.457
_cell_angle_beta     89.9985
_cell_angle_gamma    114.187

_space_group_name_H-M_alt    "P 1"
_space_group_IT_number       1

loop_
  _space_group_symop_operation_xyz
  'x, y, z'

loop_
  _atom_site_type_symbol
  _atom_site_label
  _atom_site_symmetry_multiplicity
  _atom_site_fract_x
  _atom_site_fract_y
  _atom_site_fract_z
  _atom_site_occupancy
  La  La1       1.0  0.30163  0.96139  0.92290  1.0000
  La  La2       1.0  0.34037  0.03868  0.57707  1.0000
  La  La3       1.0  0.69837  0.03860  0.07709  1.0000
  La  La4       1.0  0.65965  0.96134  0.42294  1.0000
  Cu  Cu1       1.0  0.24653  0.33201  0.13680  1.0000
  Cu  Cu2       1.0  0.91484  0.66802  0.36316  1.0000
  Cu  Cu3       1.0  0.75345  0.66797  0.86320  1.0000
  Cu  Cu4       1.0  0.08518  0.33198  0.63685  1.0000
  H   H1        1.0  0.61808  0.19682  0.77993  1.0000
  H   H2        1.0  0.42119  0.80273  0.71984  1.0000
  H   H3        1.0  0.38194  0.80320  0.22007  1.0000
  H   H4        1.0  0.57880  0.19727  0.28017  1.0000
  H   H5        1.0  0.78656  0.30581  0.68861  1.0000
  H   H6        1.0  0.48076  0.69401  0.81135  1.0000
  H   H7        1.0  0.21347  0.69420  0.31140  1.0000
  H   H8        1.0  0.51922  0.30598  0.18865  1.0000
  H   H9        1.0  0.16108  0.23716  0.76160  1.0000
  H   H10       1.0  0.92414  0.76298  0.73861  1.0000
  H   H11       1.0  0.83892  0.76283  0.23840  1.0000
  H   H12       1.0  0.07585  0.23702  0.26139  1.0000
  H   H13       1.0  0.01162  0.13570  0.86143  1.0000
  H   H14       1.0  0.87621  0.86428  0.63870  1.0000
  H   H15       1.0  0.98839  0.86429  0.13857  1.0000
  H   H16       1.0  0.12378  0.13573  0.36131  1.0000
  H   H17       1.0  0.55556  0.73145  0.05773  1.0000
  H   H18       1.0  0.82406  0.26839  0.44208  1.0000
  H   H19       1.0  0.44443  0.26853  0.94228  1.0000
  H   H20       1.0  0.17595  0.73162  0.55793  1.0000
  H   H21       1.0  0.49378  0.57823  0.13802  1.0000
  H   H22       1.0  0.91559  0.42160  0.36184  1.0000
  H   H23       1.0  0.50620  0.42174  0.86198  1.0000
  H   H24       1.0  0.08442  0.57840  0.63816  1.0000
  H   H25       1.0  0.04600  0.32766  0.00373  1.0000
  H   H26       1.0  0.71874  0.67252  0.49628  1.0000
  H   H27       1.0  0.95399  0.67232  0.99627  1.0000
  H   H28       1.0  0.28127  0.32749  0.50372  1.0000
  H   H29       1.0  0.08672  0.48267  0.92102  1.0000
  H   H30       1.0  0.60442  0.51749  0.57897  1.0000
  H   H31       1.0  0.91326  0.51732  0.07898  1.0000
  H   H32       1.0  0.39558  0.48252  0.42103  1.0000
  C   C1        1.0  0.70168  0.09076  0.88446  1.0000
  C   C2        1.0  0.61102  0.90890  0.61539  1.0000
  C   C3        1.0  0.29832  0.90924  0.11553  1.0000
  C   C4        1.0  0.38899  0.09110  0.38462  1.0000
  C   C5        1.0  0.80120  0.15714  0.82838  1.0000
  C   C6        1.0  0.64416  0.84258  0.67155  1.0000
  C   C7        1.0  0.19880  0.84286  0.17162  1.0000
  C   C8        1.0  0.35583  0.15743  0.32845  1.0000
  C   C9        1.0  0.73891  0.20647  0.77910  1.0000
  C   C10       1.0  0.53243  0.79320  0.72077  1.0000
  C   C11       1.0  0.26110  0.79354  0.22090  1.0000
  C   C12       1.0  0.46756  0.20680  0.27923  1.0000
  C   C13       1.0  0.83203  0.26617  0.72733  1.0000
  C   C14       1.0  0.56586  0.73365  0.77264  1.0000
  C   C15       1.0  0.16799  0.73384  0.27268  1.0000
  C   C16       1.0  0.43413  0.26634  0.22736  1.0000
  C   C17       1.0  0.04169  0.22862  0.76888  1.0000
  C   C18       1.0  0.81320  0.77136  0.73123  1.0000
  C   C19       1.0  0.95832  0.77137  0.23112  1.0000
  C   C20       1.0  0.18679  0.22864  0.26877  1.0000
  C   C21       1.0  0.95690  0.17117  0.82378  1.0000
  C   C22       1.0  0.78593  0.82874  0.67628  1.0000
  C   C23       1.0  0.04311  0.82882  0.17622  1.0000
  C   C24       1.0  0.21406  0.17126  0.32373  1.0000
  C   C25       1.0  0.34537  0.72791  0.94433  1.0000
  C   C26       1.0  0.61764  0.27219  0.55563  1.0000
  C   C27       1.0  0.65461  0.27207  0.05566  1.0000
  C   C28       1.0  0.38236  0.72784  0.44438  1.0000
  C   C29       1.0  0.32334  0.62213  0.98366  1.0000
  C   C30       1.0  0.70134  0.37787  0.51624  1.0000
  C   C31       1.0  0.67664  0.37785  0.01634  1.0000
  C   C32       1.0  0.29867  0.62215  0.48377  1.0000
  C   C33       1.0  0.44034  0.64463  0.04299  1.0000
  C   C34       1.0  0.79573  0.35526  0.45685  1.0000
  C   C35       1.0  0.55964  0.35535  0.95701  1.0000
  C   C36       1.0  0.20427  0.64474  0.54316  1.0000
  C   C37       1.0  0.40756  0.55744  0.08802  1.0000
  C   C38       1.0  0.85019  0.44246  0.41184  1.0000
  C   C39       1.0  0.59242  0.44254  0.91197  1.0000
  C   C40       1.0  0.14981  0.55754  0.58816  1.0000
  C   C41       1.0  0.15643  0.41929  0.01373  1.0000
  C   C42       1.0  0.73741  0.58080  0.48622  1.0000
  C   C43       1.0  0.84356  0.58069  0.98626  1.0000
  C   C44       1.0  0.26259  0.41921  0.51378  1.0000
  C   C45       1.0  0.18001  0.50481  0.96773  1.0000
  C   C46       1.0  0.67546  0.49527  0.53221  1.0000
  C   C47       1.0  0.81997  0.49517  0.03227  1.0000
  C   C48       1.0  0.32455  0.50474  0.46779  1.0000
  C   C49       1.0  0.94405  0.92634  0.97386  1.0000
  C   C50       1.0  0.01759  0.07357  0.52627  1.0000
  C   C51       1.0  0.05595  0.07364  0.02613  1.0000
  C   C52       1.0  0.98243  0.92644  0.47372  1.0000
  C   C53       1.0  0.21317  0.92248  0.72770  1.0000
  C   C54       1.0  0.29078  0.07752  0.77221  1.0000
  C   C55       1.0  0.78682  0.07753  0.27229  1.0000
  C   C56       1.0  0.70923  0.92249  0.22779  1.0000
  N   N1        1.0  0.98054  0.27529  0.72055  1.0000
  N   N2        1.0  0.70532  0.72465  0.77951  1.0000
  N   N3        1.0  0.01947  0.72471  0.27945  1.0000
  N   N4        1.0  0.29466  0.27534  0.22049  1.0000
  N   N5        1.0  0.26713  0.44642  0.07465  1.0000
  N   N6        1.0  0.82090  0.55358  0.42526  1.0000
  N   N7        1.0  0.73286  0.55356  0.92534  1.0000
  N   N8        1.0  0.17911  0.44642  0.57474  1.0000
  O   O1        1.0  0.55200  0.03779  0.86501  1.0000
  O   O2        1.0  0.51449  0.96209  0.63488  1.0000
  O   O3        1.0  0.44800  0.96221  0.13498  1.0000
  O   O4        1.0  0.48552  0.03792  0.36513  1.0000
  O   O5        1.0  0.77479  0.09432  0.94696  1.0000
  O   O6        1.0  0.68035  0.90501  0.55281  1.0000
  O   O7        1.0  0.22520  0.90567  0.05304  1.0000
  O   O8        1.0  0.31966  0.09499  0.44719  1.0000
  O   O9        1.0  0.23613  0.70600  0.89154  1.0000
  O   O10       1.0  0.53056  0.29424  0.60853  1.0000
  O   O11       1.0  0.76385  0.29399  0.10845  1.0000
  O   O12       1.0  0.46945  0.70579  0.39148  1.0000
  O   O13       1.0  0.47082  0.84183  0.96889  1.0000
  O   O14       1.0  0.62900  0.15816  0.53103  1.0000
  O   O15       1.0  0.52916  0.15815  0.03110  1.0000
  O   O16       1.0  0.37100  0.84187  0.46898  1.0000
  O   O17       1.0  0.00057  0.86390  0.91829  1.0000
  O   O18       1.0  0.13647  0.13586  0.58187  1.0000
  O   O19       1.0  0.99943  0.13609  0.08170  1.0000
  O   O20       1.0  0.86356  0.86416  0.41812  1.0000
  O   O21       1.0  0.80336  0.87647  0.98894  1.0000
  O   O22       1.0  0.92663  0.12347  0.51137  1.0000
  O   O23       1.0  0.19665  0.12352  0.01105  1.0000
  O   O24       1.0  0.07337  0.87654  0.48863  1.0000
  O   O25       1.0  0.19939  0.84562  0.76948  1.0000
  O   O26       1.0  0.35383  0.15433  0.73040  1.0000
  O   O27       1.0  0.80061  0.15438  0.23051  1.0000
  O   O28       1.0  0.64618  0.84569  0.26961  1.0000
  O   O29       1.0  0.16610  0.88541  0.65259  1.0000
  O   O30       1.0  0.28089  0.11469  0.84732  1.0000
  O   O31       1.0  0.83390  0.11462  0.34740  1.0000
  O   O32       1.0  0.71911  0.88531  0.15268  1.0000
