data_image0
_chemical_formula_structural       Cd4H24C48N8O16F8
_chemical_formula_sum              "Cd4 H24 C48 N8 O16 F8"
_cell_length_a       9.6812
_cell_length_b       10.9836
_cell_length_c       12.9752
_cell_angle_alpha    107.361
_cell_angle_beta     89.9995
_cell_angle_gamma    90

_space_group_name_H-M_alt    "P 1"
_space_group_IT_number       1

loop_
  _space_group_symop_operation_xyz
  'x, y, z'

loop_
  _atom_site_type_symbol
  _atom_site_label
  _atom_site_symmetry_multiplicity
  _atom_site_fract_x
  _atom_site_fract_y
  _atom_site_fract_z
  _atom_site_occupancy
  Cd  Cd1       1.0  0.62948  0.09274  0.41476  1.0000
  Cd  Cd2       1.0  0.12949  0.40726  0.08524  1.0000
  Cd  Cd3       1.0  0.37052  0.90726  0.58524  1.0000
  Cd  Cd4       1.0  0.87052  0.59273  0.91476  1.0000
  H   H1        1.0  0.41443  0.20212  0.28843  1.0000
  H   H2        1.0  0.91443  0.29789  0.21157  1.0000
  H   H3        1.0  0.58557  0.79789  0.71157  1.0000
  H   H4        1.0  0.08558  0.70210  0.78843  1.0000
  H   H5        1.0  0.51175  0.33128  0.61602  1.0000
  H   H6        1.0  0.01176  0.16871  0.88398  1.0000
  H   H7        1.0  0.48826  0.66873  0.38398  1.0000
  H   H8        1.0  0.98824  0.83128  0.11602  1.0000
  H   H9        1.0  0.19986  0.53201  0.49180  1.0000
  H   H10       1.0  0.69986  0.96801  0.00821  1.0000
  H   H11       1.0  0.80014  0.46800  0.50820  1.0000
  H   H12       1.0  0.30015  0.03199  0.99180  1.0000
  H   H13       1.0  0.50975  0.10593  0.83417  1.0000
  H   H14       1.0  0.00975  0.39408  0.66582  1.0000
  H   H15       1.0  0.49025  0.89407  0.16582  1.0000
  H   H16       1.0  0.99025  0.60593  0.33418  1.0000
  H   H17       1.0  0.67436  0.45292  0.05482  1.0000
  H   H18       1.0  0.17436  0.04707  0.44518  1.0000
  H   H19       1.0  0.32563  0.54707  0.94518  1.0000
  H   H20       1.0  0.82564  0.95294  0.55482  1.0000
  H   H21       1.0  0.79021  0.35385  0.73164  1.0000
  H   H22       1.0  0.29020  0.14614  0.76836  1.0000
  H   H23       1.0  0.20979  0.64615  0.26836  1.0000
  H   H24       1.0  0.70979  0.85385  0.23164  1.0000
  C   C1        1.0  0.22461  0.38005  0.27929  1.0000
  C   C2        1.0  0.72461  0.11997  0.22071  1.0000
  C   C3        1.0  0.77540  0.61996  0.72071  1.0000
  C   C4        1.0  0.27540  0.88003  0.77929  1.0000
  C   C5        1.0  0.29825  0.36832  0.37793  1.0000
  C   C6        1.0  0.79825  0.13169  0.12208  1.0000
  C   C7        1.0  0.70175  0.63169  0.62207  1.0000
  C   C8        1.0  0.20175  0.86830  0.87793  1.0000
  C   C9        1.0  0.39506  0.27084  0.36715  1.0000
  C   C10       1.0  0.89507  0.22917  0.13285  1.0000
  C   C11       1.0  0.60494  0.72917  0.63285  1.0000
  C   C12       1.0  0.10495  0.77083  0.86715  1.0000
  C   C13       1.0  0.44888  0.34174  0.54955  1.0000
  C   C14       1.0  0.94889  0.15825  0.95045  1.0000
  C   C15       1.0  0.55112  0.65827  0.45045  1.0000
  C   C16       1.0  0.05111  0.84174  0.04955  1.0000
  C   C17       1.0  0.35271  0.43960  0.56516  1.0000
  C   C18       1.0  0.85271  0.06040  0.93485  1.0000
  C   C19       1.0  0.64729  0.56040  0.43484  1.0000
  C   C20       1.0  0.14729  0.93960  0.06516  1.0000
  C   C21       1.0  0.27502  0.45508  0.47998  1.0000
  C   C22       1.0  0.77502  0.04493  0.02003  1.0000
  C   C23       1.0  0.72498  0.54493  0.52003  1.0000
  C   C24       1.0  0.22499  0.95506  0.97997  1.0000
  C   C25       1.0  0.64286  0.13921  0.65191  1.0000
  C   C26       1.0  0.14285  0.36079  0.84808  1.0000
  C   C27       1.0  0.35714  0.86080  0.34808  1.0000
  C   C28       1.0  0.85715  0.63920  0.15193  1.0000
  C   C29       1.0  0.64991  0.21942  0.76830  1.0000
  C   C30       1.0  0.14990  0.28058  0.73170  1.0000
  C   C31       1.0  0.35010  0.78058  0.23169  1.0000
  C   C32       1.0  0.85010  0.71942  0.26831  1.0000
  C   C33       1.0  0.57412  0.19123  0.85003  1.0000
  C   C34       1.0  0.07412  0.30877  0.64997  1.0000
  C   C35       1.0  0.42588  0.80877  0.14996  1.0000
  C   C36       1.0  0.92588  0.69123  0.35004  1.0000
  C   C37       1.0  0.58417  0.27693  0.95304  1.0000
  C   C38       1.0  0.08417  0.22306  0.54696  1.0000
  C   C39       1.0  0.41583  0.72306  0.04696  1.0000
  C   C40       1.0  0.91583  0.77694  0.45304  1.0000
  C   C41       1.0  0.66619  0.38571  0.97412  1.0000
  C   C42       1.0  0.16619  0.11429  0.52588  1.0000
  C   C43       1.0  0.33380  0.61429  0.02588  1.0000
  C   C44       1.0  0.83380  0.88572  0.47412  1.0000
  C   C45       1.0  0.73123  0.32946  0.79409  1.0000
  C   C46       1.0  0.23123  0.17054  0.70591  1.0000
  C   C47       1.0  0.26876  0.67054  0.20590  1.0000
  C   C48       1.0  0.76876  0.82946  0.29410  1.0000
  N   N1        1.0  0.46807  0.25809  0.45127  1.0000
  N   N2        1.0  0.96808  0.24190  0.04873  1.0000
  N   N3        1.0  0.53193  0.74192  0.54873  1.0000
  N   N4        1.0  0.03192  0.75809  0.95127  1.0000
  N   N5        1.0  0.73884  0.41031  0.89434  1.0000
  N   N6        1.0  0.23884  0.08968  0.60566  1.0000
  N   N7        1.0  0.26116  0.58969  0.10566  1.0000
  N   N8        1.0  0.76116  0.91031  0.39434  1.0000
  O   O1        1.0  0.12335  0.45646  0.29169  1.0000
  O   O2        1.0  0.62335  0.04355  0.20832  1.0000
  O   O3        1.0  0.87665  0.54354  0.70832  1.0000
  O   O4        1.0  0.37666  0.95645  0.79168  1.0000
  O   O5        1.0  0.27131  0.31448  0.18771  1.0000
  O   O6        1.0  0.77130  0.18554  0.31230  1.0000
  O   O7        1.0  0.72869  0.68552  0.81229  1.0000
  O   O8        1.0  0.22870  0.81446  0.68771  1.0000
  O   O9        1.0  0.71382  0.18046  0.58598  1.0000
  O   O10       1.0  0.21381  0.31953  0.91402  1.0000
  O   O11       1.0  0.28619  0.81954  0.41402  1.0000
  O   O12       1.0  0.78619  0.68045  0.08598  1.0000
  O   O13       1.0  0.56845  0.04046  0.62526  1.0000
  O   O14       1.0  0.06845  0.45955  0.87473  1.0000
  O   O15       1.0  0.43154  0.95955  0.37472  1.0000
  O   O16       1.0  0.93155  0.54045  0.12528  1.0000
  F   F1        1.0  0.33615  0.52042  0.66637  1.0000
  F   F2        1.0  0.83614  0.97959  0.83363  1.0000
  F   F3        1.0  0.66385  0.47958  0.33363  1.0000
  F   F4        1.0  0.16385  0.02041  0.16637  1.0000
  F   F5        1.0  0.51354  0.25504  0.03578  1.0000
  F   F6        1.0  0.01355  0.24496  0.46422  1.0000
  F   F7        1.0  0.48645  0.74495  0.96421  1.0000
  F   F8        1.0  0.98645  0.75505  0.53579  1.0000
