data_image0
_chemical_formula_structural       Cd2H12C24N4O8F4
_chemical_formula_sum              "Cd2 H12 C24 N4 O8 F4"
_cell_length_a       8.93926
_cell_length_b       8.93925
_cell_length_c       9.14023
_cell_angle_alpha    69.517
_cell_angle_beta     69.5172
_cell_angle_gamma    61.4483

_space_group_name_H-M_alt    "P 1"
_space_group_IT_number       1

loop_
  _space_group_symop_operation_xyz
  'x, y, z'

loop_
  _atom_site_type_symbol
  _atom_site_label
  _atom_site_symmetry_multiplicity
  _atom_site_fract_x
  _atom_site_fract_y
  _atom_site_fract_z
  _atom_site_occupancy
  Cd  Cd1       1.0  0.88073  0.11927  0.25000  1.0000
  Cd  Cd2       1.0  0.11927  0.88073  0.75000  1.0000
  H   H1        1.0  0.74598  0.81463  0.96561  1.0000
  H   H2        1.0  0.18537  0.25402  0.53439  1.0000
  H   H3        1.0  0.25402  0.18537  0.03439  1.0000
  H   H4        1.0  0.81464  0.74598  0.46561  1.0000
  H   H5        1.0  0.28489  0.71659  0.07465  1.0000
  H   H6        1.0  0.28342  0.71510  0.42535  1.0000
  H   H7        1.0  0.71510  0.28341  0.92535  1.0000
  H   H8        1.0  0.71659  0.28490  0.57465  1.0000
  H   H9        1.0  0.45770  0.95620  0.61019  1.0000
  H   H10       1.0  0.04380  0.54231  0.88981  1.0000
  H   H11       1.0  0.54231  0.04380  0.38981  1.0000
  H   H12       1.0  0.95620  0.45769  0.11019  1.0000
  C   C1        1.0  0.74345  0.97182  0.64911  1.0000
  C   C2        1.0  0.02818  0.25655  0.85089  1.0000
  C   C3        1.0  0.25655  0.02818  0.35088  1.0000
  C   C4        1.0  0.97182  0.74345  0.14911  1.0000
  C   C5        1.0  0.61887  0.89456  0.77143  1.0000
  C   C6        1.0  0.10543  0.38113  0.72857  1.0000
  C   C7        1.0  0.38113  0.10544  0.22857  1.0000
  C   C8        1.0  0.89457  0.61887  0.27143  1.0000
  C   C9        1.0  0.63917  0.81993  0.92933  1.0000
  C   C10       1.0  0.18007  0.36083  0.57067  1.0000
  C   C11       1.0  0.36082  0.18007  0.07068  1.0000
  C   C12       1.0  0.81994  0.63917  0.42932  1.0000
  C   C13       1.0  0.51874  0.75448  0.03539  1.0000
  C   C14       1.0  0.24552  0.48126  0.46461  1.0000
  C   C15       1.0  0.48126  0.24552  0.96461  1.0000
  C   C16       1.0  0.75448  0.51874  0.53539  1.0000
  C   C17       1.0  0.38186  0.76326  0.98879  1.0000
  C   C18       1.0  0.23674  0.61814  0.51121  1.0000
  C   C19       1.0  0.61814  0.23674  0.01121  1.0000
  C   C20       1.0  0.76326  0.38186  0.48879  1.0000
  C   C21       1.0  0.47955  0.89946  0.73090  1.0000
  C   C22       1.0  0.10054  0.52045  0.76910  1.0000
  C   C23       1.0  0.52045  0.10054  0.26910  1.0000
  C   C24       1.0  0.89946  0.47955  0.23090  1.0000
  N   N1        1.0  0.36358  0.83601  0.83674  1.0000
  N   N2        1.0  0.16399  0.63642  0.66326  1.0000
  N   N3        1.0  0.63642  0.16399  0.16326  1.0000
  N   N4        1.0  0.83601  0.36358  0.33674  1.0000
  O   O1        1.0  0.73272  0.01282  0.50356  1.0000
  O   O2        1.0  0.98718  0.26728  0.99645  1.0000
  O   O3        1.0  0.26728  0.98718  0.49645  1.0000
  O   O4        1.0  0.01282  0.73272  0.00355  1.0000
  O   O5        1.0  0.84335  0.99407  0.70081  1.0000
  O   O6        1.0  0.00593  0.15665  0.79919  1.0000
  O   O7        1.0  0.15665  0.00593  0.29919  1.0000
  O   O8        1.0  0.99406  0.84335  0.20081  1.0000
  F   F1        1.0  0.53097  0.68263  0.19118  1.0000
  F   F2        1.0  0.31737  0.46903  0.30882  1.0000
  F   F3        1.0  0.46903  0.31737  0.80882  1.0000
  F   F4        1.0  0.68263  0.53097  0.69118  1.0000
