data_image0
_chemical_formula_structural       Cd4H40C36N8Cl4O12F4
_chemical_formula_sum              "Cd4 H40 C36 N8 Cl4 O12 F4"
_cell_length_a       6.85129
_cell_length_b       12.7382
_cell_length_c       13.9122
_cell_angle_alpha    90
_cell_angle_beta     95.4881
_cell_angle_gamma    90.0001

_space_group_name_H-M_alt    "P 1"
_space_group_IT_number       1

loop_
  _space_group_symop_operation_xyz
  'x, y, z'

loop_
  _atom_site_type_symbol
  _atom_site_label
  _atom_site_symmetry_multiplicity
  _atom_site_fract_x
  _atom_site_fract_y
  _atom_site_fract_z
  _atom_site_occupancy
  Cd  Cd1       1.0  0.83725  0.83950  0.77549  1.0000
  Cd  Cd2       1.0  0.66275  0.33950  0.22451  1.0000
  Cd  Cd3       1.0  0.16275  0.16050  0.22451  1.0000
  Cd  Cd4       1.0  0.33725  0.66050  0.77549  1.0000
  H   H1        1.0  0.47194  0.23543  0.95288  1.0000
  H   H2        1.0  0.02806  0.73544  0.04712  1.0000
  H   H3        1.0  0.52806  0.76456  0.04712  1.0000
  H   H4        1.0  0.97194  0.26456  0.95288  1.0000
  H   H5        1.0  0.48248  0.99688  0.73213  1.0000
  H   H6        1.0  0.01752  0.49688  0.26787  1.0000
  H   H7        1.0  0.51752  0.00312  0.26787  1.0000
  H   H8        1.0  0.98248  0.50312  0.73213  1.0000
  H   H9        1.0  0.85650  0.96704  0.98303  1.0000
  H   H10       1.0  0.64350  0.46704  0.01697  1.0000
  H   H11       1.0  0.14350  0.03296  0.01697  1.0000
  H   H12       1.0  0.35650  0.53296  0.98303  1.0000
  H   H13       1.0  0.16519  0.91549  0.64365  1.0000
  H   H14       1.0  0.33481  0.41549  0.35635  1.0000
  H   H15       1.0  0.83481  0.08451  0.35635  1.0000
  H   H16       1.0  0.66519  0.58451  0.64365  1.0000
  H   H17       1.0  0.41450  0.12327  0.59271  1.0000
  H   H18       1.0  0.08550  0.62327  0.40729  1.0000
  H   H19       1.0  0.58550  0.87673  0.40729  1.0000
  H   H20       1.0  0.91450  0.37673  0.59271  1.0000
  H   H21       1.0  0.30191  0.08451  0.47703  1.0000
  H   H22       1.0  0.19809  0.58451  0.52297  1.0000
  H   H23       1.0  0.69808  0.91549  0.52297  1.0000
  H   H24       1.0  0.80191  0.41549  0.47703  1.0000
  H   H25       1.0  0.38219  0.98704  0.56496  1.0000
  H   H26       1.0  0.11781  0.48704  0.43504  1.0000
  H   H27       1.0  0.61781  0.01296  0.43504  1.0000
  H   H28       1.0  0.88219  0.51296  0.56496  1.0000
  H   H29       1.0  0.86403  0.14605  0.60152  1.0000
  H   H30       1.0  0.63597  0.64605  0.39848  1.0000
  H   H31       1.0  0.13597  0.85395  0.39848  1.0000
  H   H32       1.0  0.36403  0.35395  0.60152  1.0000
  H   H33       1.0  0.00598  0.19128  0.50717  1.0000
  H   H34       1.0  0.49402  0.69128  0.49283  1.0000
  H   H35       1.0  0.99402  0.80872  0.49283  1.0000
  H   H36       1.0  0.50598  0.30872  0.50717  1.0000
  H   H37       1.0  0.08020  0.22236  0.63088  1.0000
  H   H38       1.0  0.41980  0.72236  0.36911  1.0000
  H   H39       1.0  0.91980  0.77765  0.36912  1.0000
  H   H40       1.0  0.58020  0.27764  0.63088  1.0000
  C   C1        1.0  0.75791  0.15098  0.07676  1.0000
  C   C2        1.0  0.74209  0.65098  0.92324  1.0000
  C   C3        1.0  0.24209  0.84901  0.92324  1.0000
  C   C4        1.0  0.25791  0.34901  0.07676  1.0000
  C   C5        1.0  0.67505  0.10666  0.98033  1.0000
  C   C6        1.0  0.82495  0.60666  0.01967  1.0000
  C   C7        1.0  0.32496  0.89334  0.01967  1.0000
  C   C8        1.0  0.17505  0.39334  0.98033  1.0000
  C   C9        1.0  0.52809  0.16262  0.92541  1.0000
  C   C10       1.0  0.97190  0.66262  0.07459  1.0000
  C   C11       1.0  0.47190  0.83738  0.07458  1.0000
  C   C12       1.0  0.02809  0.33738  0.92541  1.0000
  C   C13       1.0  0.45857  0.12201  0.83665  1.0000
  C   C14       1.0  0.04143  0.62201  0.16336  1.0000
  C   C15       1.0  0.54143  0.87799  0.16336  1.0000
  C   C16       1.0  0.95857  0.37799  0.83665  1.0000
  C   C17       1.0  0.53479  0.02990  0.80206  1.0000
  C   C18       1.0  0.96521  0.52991  0.19794  1.0000
  C   C19       1.0  0.46521  0.97009  0.19794  1.0000
  C   C20       1.0  0.03479  0.47010  0.80206  1.0000
  C   C21       1.0  0.74371  0.01351  0.94249  1.0000
  C   C22       1.0  0.75630  0.51351  0.05751  1.0000
  C   C23       1.0  0.25630  0.98649  0.05751  1.0000
  C   C24       1.0  0.24370  0.48649  0.94249  1.0000
  C   C25       1.0  0.06214  0.98240  0.63777  1.0000
  C   C26       1.0  0.43787  0.48240  0.36223  1.0000
  C   C27       1.0  0.93786  0.01760  0.36223  1.0000
  C   C28       1.0  0.56213  0.51760  0.63777  1.0000
  C   C29       1.0  0.31698  0.06528  0.55431  1.0000
  C   C30       1.0  0.18303  0.56528  0.44568  1.0000
  C   C31       1.0  0.68302  0.93472  0.44569  1.0000
  C   C32       1.0  0.81697  0.43472  0.55431  1.0000
  C   C33       1.0  0.01193  0.16215  0.58179  1.0000
  C   C34       1.0  0.48807  0.66215  0.41821  1.0000
  C   C35       1.0  0.98807  0.83785  0.41821  1.0000
  C   C36       1.0  0.51193  0.33785  0.58179  1.0000
  N   N1        1.0  0.67672  0.97728  0.85479  1.0000
  N   N2        1.0  0.82329  0.47728  0.14521  1.0000
  N   N3        1.0  0.32329  0.02272  0.14521  1.0000
  N   N4        1.0  0.17671  0.52272  0.85479  1.0000
  N   N5        1.0  0.12607  0.06592  0.59166  1.0000
  N   N6        1.0  0.37393  0.56592  0.40834  1.0000
  N   N7        1.0  0.87393  0.93408  0.40834  1.0000
  N   N8        1.0  0.62607  0.43408  0.59166  1.0000
  Cl  Cl1       1.0  0.00312  0.70265  0.66877  1.0000
  Cl  Cl2       1.0  0.49688  0.20265  0.33123  1.0000
  Cl  Cl3       1.0  0.99688  0.29735  0.33123  1.0000
  Cl  Cl4       1.0  0.50312  0.79735  0.66877  1.0000
  O   O1        1.0  0.87662  0.09528  0.13022  1.0000
  O   O2        1.0  0.62339  0.59528  0.86979  1.0000
  O   O3        1.0  0.12339  0.90472  0.86978  1.0000
  O   O4        1.0  0.37662  0.40472  0.13022  1.0000
  O   O5        1.0  0.69914  0.24340  0.09277  1.0000
  O   O6        1.0  0.80086  0.74341  0.90723  1.0000
  O   O7        1.0  0.30087  0.75659  0.90723  1.0000
  O   O8        1.0  0.19913  0.25659  0.09277  1.0000
  O   O9        1.0  0.89830  0.97839  0.67113  1.0000
  O   O10       1.0  0.60170  0.47839  0.32887  1.0000
  O   O11       1.0  0.10170  0.02161  0.32887  1.0000
  O   O12       1.0  0.39830  0.52161  0.67113  1.0000
  F   F1        1.0  0.31447  0.17361  0.78088  1.0000
  F   F2        1.0  0.18553  0.67362  0.21912  1.0000
  F   F3        1.0  0.68553  0.82638  0.21912  1.0000
  F   F4        1.0  0.81447  0.32638  0.78088  1.0000
