data_image0
_chemical_formula_structural       Cd4H24C48N8Cl8O16
_chemical_formula_sum              "Cd4 H24 C48 N8 Cl8 O16"
_cell_length_a       9.8783
_cell_length_b       11.1636
_cell_length_c       13.0972
_cell_angle_alpha    107.896
_cell_angle_beta     90
_cell_angle_gamma    90

_space_group_name_H-M_alt    "P 1"
_space_group_IT_number       1

loop_
  _space_group_symop_operation_xyz
  'x, y, z'

loop_
  _atom_site_type_symbol
  _atom_site_label
  _atom_site_symmetry_multiplicity
  _atom_site_fract_x
  _atom_site_fract_y
  _atom_site_fract_z
  _atom_site_occupancy
  Cd  Cd1       1.0  0.87689  0.41068  0.59455  1.0000
  Cd  Cd2       1.0  0.37689  0.08932  0.90545  1.0000
  Cd  Cd3       1.0  0.12311  0.58932  0.40545  1.0000
  Cd  Cd4       1.0  0.62311  0.91068  0.09455  1.0000
  H   H1        1.0  0.79527  0.52738  0.99880  1.0000
  H   H2        1.0  0.29527  0.97262  0.50120  1.0000
  H   H3        1.0  0.20473  0.47262  0.00120  1.0000
  H   H4        1.0  0.70473  0.02738  0.49880  1.0000
  H   H5        1.0  0.48465  0.32161  0.10761  1.0000
  H   H6        1.0  0.98465  0.17839  0.39239  1.0000
  H   H7        1.0  0.51535  0.67839  0.89239  1.0000
  H   H8        1.0  0.01535  0.82161  0.60761  1.0000
  H   H9        1.0  0.59202  0.20535  0.78500  1.0000
  H   H10       1.0  0.09202  0.29465  0.71500  1.0000
  H   H11       1.0  0.40798  0.79465  0.21500  1.0000
  H   H12       1.0  0.90798  0.70535  0.28500  1.0000
  H   H13       1.0  0.78928  0.65131  0.78083  1.0000
  H   H14       1.0  0.28928  0.84868  0.71917  1.0000
  H   H15       1.0  0.21072  0.34869  0.21917  1.0000
  H   H16       1.0  0.71072  0.15131  0.28083  1.0000
  H   H17       1.0  0.68107  0.53775  0.45876  1.0000
  H   H18       1.0  0.18107  0.96225  0.04124  1.0000
  H   H19       1.0  0.31893  0.46225  0.54124  1.0000
  H   H20       1.0  0.81893  0.03775  0.95876  1.0000
  H   H21       1.0  0.51277  0.88387  0.66947  1.0000
  H   H22       1.0  0.01277  0.61613  0.83053  1.0000
  H   H23       1.0  0.48723  0.11613  0.33053  1.0000
  H   H24       1.0  0.98723  0.38387  0.16947  1.0000
  C   C1        1.0  0.77950  0.38437  0.78674  1.0000
  C   C2        1.0  0.27950  0.11564  0.71326  1.0000
  C   C3        1.0  0.22050  0.61563  0.21326  1.0000
  C   C4        1.0  0.72050  0.88437  0.28674  1.0000
  C   C5        1.0  0.70277  0.36848  0.88095  1.0000
  C   C6        1.0  0.20277  0.13152  0.61905  1.0000
  C   C7        1.0  0.29723  0.63152  0.11905  1.0000
  C   C8        1.0  0.79723  0.86848  0.38095  1.0000
  C   C9        1.0  0.72146  0.45138  0.98443  1.0000
  C   C10       1.0  0.22146  0.04863  0.51557  1.0000
  C   C11       1.0  0.27854  0.54863  0.01557  1.0000
  C   C12       1.0  0.77853  0.95138  0.48443  1.0000
  C   C13       1.0  0.64238  0.43394  0.06701  1.0000
  C   C14       1.0  0.14238  0.06606  0.43299  1.0000
  C   C15       1.0  0.35762  0.56606  0.93299  1.0000
  C   C16       1.0  0.85762  0.93394  0.56701  1.0000
  C   C17       1.0  0.54904  0.33538  0.04469  1.0000
  C   C18       1.0  0.04904  0.16462  0.45531  1.0000
  C   C19       1.0  0.45096  0.66462  0.95531  1.0000
  C   C20       1.0  0.95096  0.83538  0.54469  1.0000
  C   C21       1.0  0.60816  0.27125  0.86488  1.0000
  C   C22       1.0  0.10816  0.22875  0.63512  1.0000
  C   C23       1.0  0.39184  0.72875  0.13512  1.0000
  C   C24       1.0  0.89184  0.77125  0.36488  1.0000
  C   C25       1.0  0.63885  0.86364  0.85280  1.0000
  C   C26       1.0  0.13885  0.63635  0.64720  1.0000
  C   C27       1.0  0.36115  0.13636  0.14720  1.0000
  C   C28       1.0  0.86115  0.36364  0.35280  1.0000
  C   C29       1.0  0.65004  0.77838  0.73888  1.0000
  C   C30       1.0  0.15004  0.72162  0.76112  1.0000
  C   C31       1.0  0.34997  0.22162  0.26112  1.0000
  C   C32       1.0  0.84996  0.27838  0.23888  1.0000
  C   C33       1.0  0.73225  0.67162  0.71695  1.0000
  C   C34       1.0  0.23225  0.82838  0.78305  1.0000
  C   C35       1.0  0.26775  0.32838  0.28305  1.0000
  C   C36       1.0  0.76775  0.17162  0.21695  1.0000
  C   C37       1.0  0.67101  0.60771  0.53743  1.0000
  C   C38       1.0  0.17101  0.89230  0.96257  1.0000
  C   C39       1.0  0.32899  0.39230  0.46257  1.0000
  C   C40       1.0  0.82899  0.10770  0.03743  1.0000
  C   C41       1.0  0.58642  0.71225  0.55355  1.0000
  C   C42       1.0  0.08642  0.78775  0.94645  1.0000
  C   C43       1.0  0.41358  0.28775  0.44645  1.0000
  C   C44       1.0  0.91358  0.21225  0.05355  1.0000
  C   C45       1.0  0.57646  0.80046  0.65532  1.0000
  C   C46       1.0  0.07646  0.69954  0.84468  1.0000
  C   C47       1.0  0.42354  0.19954  0.34468  1.0000
  C   C48       1.0  0.92354  0.30046  0.15532  1.0000
  N   N1        1.0  0.53365  0.25513  0.94539  1.0000
  N   N2        1.0  0.03365  0.24487  0.55461  1.0000
  N   N3        1.0  0.46635  0.74487  0.05461  1.0000
  N   N4        1.0  0.96635  0.75513  0.44539  1.0000
  N   N5        1.0  0.74305  0.58904  0.61813  1.0000
  N   N6        1.0  0.24305  0.91096  0.88187  1.0000
  N   N7        1.0  0.25695  0.41096  0.38187  1.0000
  N   N8        1.0  0.75695  0.08904  0.11813  1.0000
  Cl  Cl1       1.0  0.65536  0.53190  0.19708  1.0000
  Cl  Cl2       1.0  0.15536  0.96810  0.30292  1.0000
  Cl  Cl3       1.0  0.34464  0.46810  0.80292  1.0000
  Cl  Cl4       1.0  0.84464  0.03190  0.69708  1.0000
  Cl  Cl5       1.0  0.49320  0.72791  0.44755  1.0000
  Cl  Cl6       1.0  0.99320  0.77209  0.05245  1.0000
  Cl  Cl7       1.0  0.50680  0.27209  0.55245  1.0000
  Cl  Cl8       1.0  0.00680  0.22791  0.94755  1.0000
  O   O1        1.0  0.74002  0.31795  0.69361  1.0000
  O   O2        1.0  0.24002  0.18205  0.80639  1.0000
  O   O3        1.0  0.25998  0.68205  0.30639  1.0000
  O   O4        1.0  0.75998  0.81795  0.19361  1.0000
  O   O5        1.0  0.87560  0.46309  0.80318  1.0000
  O   O6        1.0  0.37560  0.03691  0.69682  1.0000
  O   O7        1.0  0.12440  0.53691  0.19682  1.0000
  O   O8        1.0  0.62440  0.96309  0.30318  1.0000
  O   O9        1.0  0.70057  0.82545  0.92289  1.0000
  O   O10       1.0  0.20057  0.67455  0.57711  1.0000
  O   O11       1.0  0.29943  0.17455  0.07711  1.0000
  O   O12       1.0  0.79943  0.32545  0.42289  1.0000
  O   O13       1.0  0.57073  0.96376  0.87264  1.0000
  O   O14       1.0  0.07073  0.53624  0.62737  1.0000
  O   O15       1.0  0.42927  0.03624  0.12736  1.0000
  O   O16       1.0  0.92927  0.46376  0.37264  1.0000
