data_image0
_chemical_formula_structural       Cd2H20C24N4Cl4O12
_chemical_formula_sum              "Cd2 H20 C24 N4 Cl4 O12"
_cell_length_a       5.5034
_cell_length_b       9.39199
_cell_length_c       14.7209
_cell_angle_alpha    90
_cell_angle_beta     96.0599
_cell_angle_gamma    89.9996

_space_group_name_H-M_alt    "P 1"
_space_group_IT_number       1

loop_
  _space_group_symop_operation_xyz
  'x, y, z'

loop_
  _atom_site_type_symbol
  _atom_site_label
  _atom_site_symmetry_multiplicity
  _atom_site_fract_x
  _atom_site_fract_y
  _atom_site_fract_z
  _atom_site_occupancy
  Cd  Cd1       1.0  1.00000  0.50000  1.00000  1.0000
  Cd  Cd2       1.0  0.50000  0.00000  0.50000  1.0000
  H   H1        1.0  0.57311  0.38706  0.08169  1.0000
  H   H2        1.0  0.92688  0.88705  0.41831  1.0000
  H   H3        1.0  0.42688  0.61295  0.91830  1.0000
  H   H4        1.0  0.07312  0.11295  0.58169  1.0000
  H   H5        1.0  0.82815  0.30398  0.10523  1.0000
  H   H6        1.0  0.67184  0.80397  0.39478  1.0000
  H   H7        1.0  0.17185  0.69603  0.89477  1.0000
  H   H8        1.0  0.32815  0.19603  0.60522  1.0000
  H   H9        1.0  0.76481  0.36562  0.81686  1.0000
  H   H10       1.0  0.73521  0.86562  0.68313  1.0000
  H   H11       1.0  0.23518  0.63437  0.18314  1.0000
  H   H12       1.0  0.26480  0.13439  0.31686  1.0000
  H   H13       1.0  0.40502  0.23827  0.97154  1.0000
  H   H14       1.0  0.09499  0.73829  0.52846  1.0000
  H   H15       1.0  0.59497  0.76172  0.02846  1.0000
  H   H16       1.0  0.90501  0.26172  0.47154  1.0000
  H   H17       1.0  0.13698  0.99053  0.73479  1.0000
  H   H18       1.0  0.36303  0.49054  0.76521  1.0000
  H   H19       1.0  0.86303  0.00946  0.26522  1.0000
  H   H20       1.0  0.63697  0.50947  0.23479  1.0000
  C   C1        1.0  0.74011  0.16696  0.68328  1.0000
  C   C2        1.0  0.75990  0.66697  0.81672  1.0000
  C   C3        1.0  0.25989  0.83303  0.31672  1.0000
  C   C4        1.0  0.24010  0.33304  0.18328  1.0000
  C   C5        1.0  0.93016  0.17844  0.76436  1.0000
  C   C6        1.0  0.56986  0.67845  0.73564  1.0000
  C   C7        1.0  0.06984  0.82155  0.23565  1.0000
  C   C8        1.0  0.43016  0.32156  0.26436  1.0000
  C   C9        1.0  0.91497  0.28994  0.82628  1.0000
  C   C10       1.0  0.58505  0.78994  0.67371  1.0000
  C   C11       1.0  0.08502  0.71005  0.17372  1.0000
  C   C12       1.0  0.41496  0.21006  0.32628  1.0000
  C   C13       1.0  0.26848  0.21801  0.91375  1.0000
  C   C14       1.0  0.23153  0.71801  0.58624  1.0000
  C   C15       1.0  0.73151  0.78199  0.08625  1.0000
  C   C16       1.0  0.76847  0.28199  0.41375  1.0000
  C   C17       1.0  0.29078  0.10156  0.85625  1.0000
  C   C18       1.0  0.20924  0.60157  0.64375  1.0000
  C   C19       1.0  0.70921  0.89844  0.14375  1.0000
  C   C20       1.0  0.79077  0.39844  0.35625  1.0000
  C   C21       1.0  0.12136  0.08093  0.78009  1.0000
  C   C22       1.0  0.37867  0.58093  0.71990  1.0000
  C   C23       1.0  0.87864  0.91907  0.21991  1.0000
  C   C24       1.0  0.62133  0.41908  0.28010  1.0000
  N   N1        1.0  0.08114  0.31016  0.89861  1.0000
  N   N2        1.0  0.41886  0.81017  0.60139  1.0000
  N   N3        1.0  0.91885  0.68983  0.10139  1.0000
  N   N4        1.0  0.58114  0.18983  0.39861  1.0000
  Cl  Cl1       1.0  0.53286  0.98618  0.87904  1.0000
  Cl  Cl2       1.0  0.96716  0.48618  0.62095  1.0000
  Cl  Cl3       1.0  0.46715  0.01382  0.12096  1.0000
  Cl  Cl4       1.0  0.03285  0.51382  0.37905  1.0000
  O   O1        1.0  0.79186  0.08409  0.61805  1.0000
  O   O2        1.0  0.70815  0.58409  0.88195  1.0000
  O   O3        1.0  0.20814  0.91591  0.38195  1.0000
  O   O4        1.0  0.29185  0.41591  0.11805  1.0000
  O   O5        1.0  0.54679  0.23811  0.68458  1.0000
  O   O6        1.0  0.95322  0.73811  0.81542  1.0000
  O   O7        1.0  0.45320  0.76188  0.31542  1.0000
  O   O8        1.0  0.04678  0.26189  0.18458  1.0000
  O   O9        1.0  0.71725  0.34882  0.05402  1.0000
  O   O10       1.0  0.78275  0.84881  0.44598  1.0000
  O   O11       1.0  0.28275  0.65119  0.94598  1.0000
  O   O12       1.0  0.21725  0.15120  0.55402  1.0000
