data_image0
_chemical_formula_structural       Cd4H40C36N8Cl8O12
_chemical_formula_sum              "Cd4 H40 C36 N8 Cl8 O12"
_cell_length_a       6.997
_cell_length_b       12.6905
_cell_length_c       14.1115
_cell_angle_alpha    90.0001
_cell_angle_beta     94.0668
_cell_angle_gamma    89.9999

_space_group_name_H-M_alt    "P 1"
_space_group_IT_number       1

loop_
  _space_group_symop_operation_xyz
  'x, y, z'

loop_
  _atom_site_type_symbol
  _atom_site_label
  _atom_site_symmetry_multiplicity
  _atom_site_fract_x
  _atom_site_fract_y
  _atom_site_fract_z
  _atom_site_occupancy
  Cd  Cd1       1.0  0.83881  0.15973  0.27665  1.0000
  Cd  Cd2       1.0  0.66119  0.65973  0.72335  1.0000
  Cd  Cd3       1.0  0.16119  0.84027  0.72335  1.0000
  Cd  Cd4       1.0  0.33881  0.34027  0.27665  1.0000
  H   H1        1.0  0.46562  0.77754  0.47236  1.0000
  H   H2        1.0  0.03438  0.27754  0.52764  1.0000
  H   H3        1.0  0.53438  0.22246  0.52764  1.0000
  H   H4        1.0  0.96562  0.72246  0.47236  1.0000
  H   H5        1.0  0.48392  0.00515  0.24468  1.0000
  H   H6        1.0  0.01608  0.50515  0.75532  1.0000
  H   H7        1.0  0.51609  0.99485  0.75532  1.0000
  H   H8        1.0  0.98391  0.49485  0.24468  1.0000
  H   H9        1.0  0.86796  0.03445  0.48022  1.0000
  H   H10       1.0  0.63204  0.53445  0.51978  1.0000
  H   H11       1.0  0.13204  0.96555  0.51978  1.0000
  H   H12       1.0  0.36796  0.46555  0.48022  1.0000
  H   H13       1.0  0.16950  0.08258  0.15112  1.0000
  H   H14       1.0  0.33050  0.58257  0.84887  1.0000
  H   H15       1.0  0.83050  0.91743  0.84887  1.0000
  H   H16       1.0  0.66950  0.41743  0.15112  1.0000
  H   H17       1.0  0.05976  0.78023  0.11531  1.0000
  H   H18       1.0  0.44027  0.28024  0.88469  1.0000
  H   H19       1.0  0.94027  0.21976  0.88469  1.0000
  H   H20       1.0  0.55973  0.71976  0.11531  1.0000
  H   H21       1.0  0.00880  0.82008  0.99476  1.0000
  H   H22       1.0  0.49121  0.32009  0.00524  1.0000
  H   H23       1.0  0.99121  0.17991  0.00524  1.0000
  H   H24       1.0  0.50879  0.67991  0.99476  1.0000
  H   H25       1.0  0.85794  0.86302  0.08574  1.0000
  H   H26       1.0  0.64207  0.36303  0.91426  1.0000
  H   H27       1.0  0.14207  0.13697  0.91425  1.0000
  H   H28       1.0  0.35792  0.63697  0.08575  1.0000
  H   H29       1.0  0.38352  0.01378  0.07022  1.0000
  H   H30       1.0  0.11648  0.51378  0.92978  1.0000
  H   H31       1.0  0.61648  0.98622  0.92978  1.0000
  H   H32       1.0  0.88352  0.48622  0.07022  1.0000
  H   H33       1.0  0.30702  0.92442  0.97631  1.0000
  H   H34       1.0  0.19299  0.42442  0.02368  1.0000
  H   H35       1.0  0.69299  0.07558  0.02368  1.0000
  H   H36       1.0  0.80701  0.57558  0.97632  1.0000
  H   H37       1.0  0.40092  0.87474  0.08872  1.0000
  H   H38       1.0  0.09909  0.37474  0.91128  1.0000
  H   H39       1.0  0.59909  0.12526  0.91128  1.0000
  H   H40       1.0  0.90091  0.62526  0.08872  1.0000
  C   C1        1.0  0.76453  0.85400  0.58047  1.0000
  C   C2        1.0  0.73546  0.35400  0.41953  1.0000
  C   C3        1.0  0.23546  0.14600  0.41953  1.0000
  C   C4        1.0  0.26453  0.64600  0.58047  1.0000
  C   C5        1.0  0.67855  0.89968  0.48780  1.0000
  C   C6        1.0  0.82144  0.39968  0.51220  1.0000
  C   C7        1.0  0.32145  0.10032  0.51220  1.0000
  C   C8        1.0  0.17855  0.60032  0.48780  1.0000
  C   C9        1.0  0.52480  0.84702  0.44025  1.0000
  C   C10       1.0  0.97520  0.34702  0.55976  1.0000
  C   C11       1.0  0.47520  0.15298  0.55975  1.0000
  C   C12       1.0  0.02480  0.65298  0.44024  1.0000
  C   C13       1.0  0.45201  0.88514  0.35283  1.0000
  C   C14       1.0  0.04799  0.38514  0.64717  1.0000
  C   C15       1.0  0.54799  0.11486  0.64717  1.0000
  C   C16       1.0  0.95201  0.61486  0.35283  1.0000
  C   C17       1.0  0.53537  0.97321  0.31349  1.0000
  C   C18       1.0  0.96462  0.47321  0.68651  1.0000
  C   C19       1.0  0.46463  0.02679  0.68651  1.0000
  C   C20       1.0  0.03537  0.52679  0.31349  1.0000
  C   C21       1.0  0.75102  0.98927  0.44541  1.0000
  C   C22       1.0  0.74898  0.48927  0.55459  1.0000
  C   C23       1.0  0.24898  0.01073  0.55459  1.0000
  C   C24       1.0  0.25102  0.51073  0.44541  1.0000
  C   C25       1.0  0.06339  0.01858  0.13899  1.0000
  C   C26       1.0  0.43662  0.51858  0.86101  1.0000
  C   C27       1.0  0.93662  0.98142  0.86101  1.0000
  C   C28       1.0  0.56338  0.48142  0.13899  1.0000
  C   C29       1.0  0.00502  0.84522  0.06916  1.0000
  C   C30       1.0  0.49500  0.34522  0.93084  1.0000
  C   C31       1.0  0.99500  0.15478  0.93084  1.0000
  C   C32       1.0  0.50500  0.65478  0.06916  1.0000
  C   C33       1.0  0.31453  0.93777  0.05342  1.0000
  C   C34       1.0  0.18548  0.43777  0.94658  1.0000
  C   C35       1.0  0.68548  0.06223  0.94658  1.0000
  C   C36       1.0  0.81452  0.56223  0.05342  1.0000
  N   N1        1.0  0.68239  0.02372  0.35952  1.0000
  N   N2        1.0  0.81761  0.52372  0.64048  1.0000
  N   N3        1.0  0.31761  0.97628  0.64048  1.0000
  N   N4        1.0  0.18238  0.47628  0.35952  1.0000
  N   N5        1.0  0.12285  0.93839  0.08698  1.0000
  N   N6        1.0  0.37715  0.43839  0.91301  1.0000
  N   N7        1.0  0.87716  0.06161  0.91302  1.0000
  N   N8        1.0  0.62284  0.56161  0.08698  1.0000
  Cl  Cl1       1.0  0.26212  0.82197  0.29215  1.0000
  Cl  Cl2       1.0  0.23788  0.32197  0.70785  1.0000
  Cl  Cl3       1.0  0.73789  0.17803  0.70785  1.0000
  Cl  Cl4       1.0  0.76211  0.67803  0.29215  1.0000
  Cl  Cl5       1.0  0.51179  0.20244  0.17372  1.0000
  Cl  Cl6       1.0  0.98822  0.70244  0.82628  1.0000
  Cl  Cl7       1.0  0.48821  0.79756  0.82628  1.0000
  Cl  Cl8       1.0  0.01178  0.29755  0.17372  1.0000
  O   O1        1.0  0.88627  0.90816  0.63005  1.0000
  O   O2        1.0  0.61372  0.40816  0.36995  1.0000
  O   O3        1.0  0.11373  0.09184  0.36995  1.0000
  O   O4        1.0  0.38627  0.59184  0.63005  1.0000
  O   O5        1.0  0.70590  0.76154  0.59717  1.0000
  O   O6        1.0  0.79410  0.26154  0.40283  1.0000
  O   O7        1.0  0.29410  0.23846  0.40283  1.0000
  O   O8        1.0  0.20590  0.73846  0.59717  1.0000
  O   O9        1.0  0.90037  0.02292  0.17075  1.0000
  O   O10       1.0  0.59963  0.52292  0.82924  1.0000
  O   O11       1.0  0.09964  0.97708  0.82924  1.0000
  O   O12       1.0  0.40036  0.47708  0.17076  1.0000
