data_image0
_chemical_formula_structural       K2H38C40O16
_chemical_formula_sum              "K2 H38 C40 O16"
_cell_length_a       7.32537
_cell_length_b       10.8402
_cell_length_c       13.2247
_cell_angle_alpha    102.562
_cell_angle_beta     106.074
_cell_angle_gamma    89.9355

_space_group_name_H-M_alt    "P 1"
_space_group_IT_number       1

loop_
  _space_group_symop_operation_xyz
  'x, y, z'

loop_
  _atom_site_type_symbol
  _atom_site_label
  _atom_site_symmetry_multiplicity
  _atom_site_fract_x
  _atom_site_fract_y
  _atom_site_fract_z
  _atom_site_occupancy
  K   K1        1.0  0.27395  0.75034  0.00025  1.0000
  K   K2        1.0  0.72603  0.24966  0.99976  1.0000
  H   H1        1.0  0.50000  0.50002  0.00000  1.0000
  H   H2        1.0  0.50000  0.00001  1.00000  1.0000
  H   H3        1.0  0.51099  0.71748  0.52113  1.0000
  H   H4        1.0  0.98979  0.78298  0.47905  1.0000
  H   H5        1.0  0.48903  0.28253  0.47887  1.0000
  H   H6        1.0  0.01022  0.21702  0.52095  1.0000
  H   H7        1.0  0.25533  0.74138  0.61376  1.0000
  H   H8        1.0  0.64228  0.75844  0.38582  1.0000
  H   H9        1.0  0.74464  0.25862  0.38624  1.0000
  H   H10       1.0  0.35774  0.24155  0.61418  1.0000
  H   H11       1.0  0.27494  0.63697  0.76530  1.0000
  H   H12       1.0  0.51010  0.86284  0.23459  1.0000
  H   H13       1.0  0.72507  0.36302  0.23470  1.0000
  H   H14       1.0  0.48990  0.13716  0.76540  1.0000
  H   H15       1.0  0.93946  0.66732  0.61093  1.0000
  H   H16       1.0  0.32840  0.83232  0.38910  1.0000
  H   H17       1.0  0.06051  0.33268  0.38908  1.0000
  H   H18       1.0  0.67163  0.16769  0.61090  1.0000
  H   H19       1.0  0.78114  0.59624  0.48221  1.0000
  H   H20       1.0  0.29854  0.90294  0.51782  1.0000
  H   H21       1.0  0.21887  0.40375  0.51778  1.0000
  H   H22       1.0  0.70148  0.09707  0.48218  1.0000
  H   H23       1.0  0.90314  0.50022  0.56949  1.0000
  H   H24       1.0  0.33426  0.99945  0.43116  1.0000
  H   H25       1.0  0.09685  0.49978  0.43052  1.0000
  H   H26       1.0  0.66575  0.00056  0.56883  1.0000
  H   H27       1.0  0.15394  0.35008  0.78633  1.0000
  H   H28       1.0  0.36752  0.14985  0.21340  1.0000
  H   H29       1.0  0.84605  0.64992  0.21367  1.0000
  H   H30       1.0  0.63249  0.85015  0.78660  1.0000
  H   H31       1.0  0.97778  0.28784  0.83238  1.0000
  H   H32       1.0  0.14562  0.21253  0.16719  1.0000
  H   H33       1.0  0.02220  0.71217  0.16763  1.0000
  H   H34       1.0  0.85436  0.78746  0.83281  1.0000
  H   H35       1.0  0.16483  0.39579  0.92648  1.0000
  H   H36       1.0  0.23815  0.10356  0.07335  1.0000
  H   H37       1.0  0.83516  0.60421  0.07352  1.0000
  H   H38       1.0  0.76185  0.89644  0.92665  1.0000
  C   C1        1.0  0.53374  0.54788  0.75498  1.0000
  C   C2        1.0  0.77885  0.95243  0.24509  1.0000
  C   C3        1.0  0.46627  0.45213  0.24502  1.0000
  C   C4        1.0  0.22114  0.04755  0.75491  1.0000
  C   C5        1.0  0.67404  0.53355  0.69966  1.0000
  C   C6        1.0  0.97443  0.96687  0.30054  1.0000
  C   C7        1.0  0.32595  0.46644  0.30034  1.0000
  C   C8        1.0  0.02558  0.03312  0.69946  1.0000
  C   C9        1.0  0.67128  0.59603  0.61719  1.0000
  C   C10       1.0  0.05426  0.90424  0.38296  1.0000
  C   C11       1.0  0.32871  0.40397  0.38281  1.0000
  C   C12       1.0  0.94574  0.09575  0.61705  1.0000
  C   C13       1.0  0.51665  0.66936  0.58621  1.0000
  C   C14       1.0  0.93068  0.83089  0.41379  1.0000
  C   C15       1.0  0.48332  0.33064  0.41378  1.0000
  C   C16       1.0  0.06934  0.16911  0.58621  1.0000
  C   C17       1.0  0.37342  0.68273  0.63778  1.0000
  C   C18       1.0  0.73611  0.81730  0.36204  1.0000
  C   C19       1.0  0.62658  0.31726  0.36222  1.0000
  C   C20       1.0  0.26388  0.18268  0.63796  1.0000
  C   C21       1.0  0.38352  0.62377  0.72271  1.0000
  C   C22       1.0  0.66118  0.87632  0.27716  1.0000
  C   C23       1.0  0.61646  0.37622  0.27728  1.0000
  C   C24       1.0  0.33883  0.12369  0.72284  1.0000
  C   C25       1.0  0.54388  0.48569  0.84731  1.0000
  C   C26       1.0  0.69630  0.01450  0.15276  1.0000
  C   C27       1.0  0.45611  0.51433  0.15268  1.0000
  C   C28       1.0  0.30371  0.98548  0.84725  1.0000
  C   C29       1.0  0.83212  0.58885  0.56675  1.0000
  C   C30       1.0  0.26545  0.91090  0.43345  1.0000
  C   C31       1.0  0.16787  0.41114  0.43324  1.0000
  C   C32       1.0  0.73456  0.08910  0.56655  1.0000
  C   C33       1.0  0.95182  0.48130  0.82320  1.0000
  C   C34       1.0  0.12824  0.01920  0.17698  1.0000
  C   C35       1.0  0.04818  0.51871  0.17680  1.0000
  C   C36       1.0  0.87177  0.98078  0.82302  1.0000
  C   C37       1.0  0.06979  0.37262  0.84427  1.0000
  C   C38       1.0  0.22539  0.12739  0.15560  1.0000
  C   C39       1.0  0.93020  0.62738  0.15573  1.0000
  C   C40       1.0  0.77461  0.87261  0.84441  1.0000
  O   O1        1.0  0.60915  0.37950  0.84760  1.0000
  O   O2        1.0  0.76068  0.12073  0.15237  1.0000
  O   O3        1.0  0.39089  0.62052  0.15243  1.0000
  O   O4        1.0  0.23935  0.87925  0.84762  1.0000
  O   O5        1.0  0.48026  0.55150  0.92436  1.0000
  O   O6        1.0  0.55594  0.94864  0.07574  1.0000
  O   O7        1.0  0.51975  0.44853  0.07564  1.0000
  O   O8        1.0  0.44406  0.05136  0.92427  1.0000
  O   O9        1.0  0.81985  0.45158  0.72360  1.0000
  O   O10       1.0  0.09607  0.04898  0.27665  1.0000
  O   O11       1.0  0.18015  0.54841  0.27639  1.0000
  O   O12       1.0  0.90393  0.95101  0.72334  1.0000
  O   O13       1.0  0.96682  0.58626  0.88341  1.0000
  O   O14       1.0  0.08260  0.91430  0.11675  1.0000
  O   O15       1.0  0.03316  0.41374  0.11659  1.0000
  O   O16       1.0  0.91741  0.08568  0.88325  1.0000
