data_image0
_chemical_formula_structural       MnCu2H44C46N4O8
_chemical_formula_sum              "Mn1 Cu2 H44 C46 N4 O8"
_cell_length_a       10.7791
_cell_length_b       10.7791
_cell_length_c       11.5473
_cell_angle_alpha    69.7208
_cell_angle_beta     69.7204
_cell_angle_gamma    79.5099

_space_group_name_H-M_alt    "P 1"
_space_group_IT_number       1

loop_
  _space_group_symop_operation_xyz
  'x, y, z'

loop_
  _atom_site_type_symbol
  _atom_site_label
  _atom_site_symmetry_multiplicity
  _atom_site_fract_x
  _atom_site_fract_y
  _atom_site_fract_z
  _atom_site_occupancy
  Mn  Mn1       1.0  0.99991  0.99991  0.50008  1.0000
  Cu  Cu1       1.0  0.78952  0.78952  0.56410  1.0000
  Cu  Cu2       1.0  0.21036  0.21036  0.43595  1.0000
  H   H1        1.0  0.16262  0.16260  0.84202  1.0000
  H   H2        1.0  0.83718  0.83718  0.15816  1.0000
  H   H3        1.0  0.11531  0.11529  0.08276  1.0000
  H   H4        1.0  0.88447  0.88448  0.91744  1.0000
  H   H5        1.0  0.79574  0.48734  0.47570  1.0000
  H   H6        1.0  0.51241  0.20395  0.52436  1.0000
  H   H7        1.0  0.20396  0.51241  0.52436  1.0000
  H   H8        1.0  0.48734  0.79575  0.47570  1.0000
  H   H9        1.0  0.66104  0.47490  0.61988  1.0000
  H   H10       1.0  0.52475  0.33911  0.38027  1.0000
  H   H11       1.0  0.33912  0.52474  0.38027  1.0000
  H   H12       1.0  0.47489  0.66105  0.61988  1.0000
  H   H13       1.0  0.15266  0.80651  0.66043  1.0000
  H   H14       1.0  0.19331  0.84771  0.33952  1.0000
  H   H15       1.0  0.84771  0.19331  0.33951  1.0000
  H   H16       1.0  0.80650  0.15266  0.66044  1.0000
  H   H17       1.0  0.98462  0.35924  0.84262  1.0000
  H   H18       1.0  0.64053  0.01594  0.15715  1.0000
  H   H19       1.0  0.01593  0.64052  0.15717  1.0000
  H   H20       1.0  0.35922  0.98462  0.84263  1.0000
  H   H21       1.0  0.60470  0.60471  0.41901  1.0000
  H   H22       1.0  0.39521  0.39520  0.58104  1.0000
  H   H23       1.0  0.72078  0.72078  0.37964  1.0000
  H   H24       1.0  0.27902  0.27902  0.62086  1.0000
  H   H25       1.0  0.82558  0.31697  0.77351  1.0000
  H   H26       1.0  0.68324  0.17484  0.22704  1.0000
  H   H27       1.0  0.17485  0.68323  0.22704  1.0000
  H   H28       1.0  0.31696  0.82557  0.77352  1.0000
  H   H29       1.0  0.99084  0.31992  0.66936  1.0000
  H   H30       1.0  0.67985  0.00941  0.33087  1.0000
  H   H31       1.0  0.00942  0.67985  0.33087  1.0000
  H   H32       1.0  0.31991  0.99083  0.66937  1.0000
  H   H33       1.0  0.85815  0.34530  0.60563  1.0000
  H   H34       1.0  0.65400  0.14183  0.39505  1.0000
  H   H35       1.0  0.14184  0.65400  0.39504  1.0000
  H   H36       1.0  0.34530  0.85814  0.60565  1.0000
  H   H37       1.0  0.23718  0.63170  0.82800  1.0000
  H   H38       1.0  0.36787  0.76390  0.17123  1.0000
  H   H39       1.0  0.76389  0.36788  0.17123  1.0000
  H   H40       1.0  0.63168  0.23719  0.82801  1.0000
  H   H41       1.0  0.14561  0.40771  0.92494  1.0000
  H   H42       1.0  0.59208  0.85498  0.07467  1.0000
  H   H43       1.0  0.85498  0.59209  0.07467  1.0000
  H   H44       1.0  0.40769  0.14561  0.92495  1.0000
  C   C1        1.0  0.97370  0.97369  0.13339  1.0000
  C   C2        1.0  0.02611  0.02610  0.86680  1.0000
  C   C3        1.0  0.09150  0.09149  0.91257  1.0000
  C   C4        1.0  0.90830  0.90830  0.08761  1.0000
  C   C5        1.0  0.94396  0.94396  0.27673  1.0000
  C   C6        1.0  0.05591  0.05591  0.72342  1.0000
  C   C7        1.0  0.06568  0.06566  0.04507  1.0000
  C   C8        1.0  0.93412  0.93412  0.95511  1.0000
  C   C9        1.0  0.01830  0.68534  0.65668  1.0000
  C   C10       1.0  0.31461  0.98198  0.34324  1.0000
  C   C11       1.0  0.98198  0.31460  0.34324  1.0000
  C   C12       1.0  0.68533  0.01829  0.65670  1.0000
  C   C13       1.0  0.97267  0.55454  0.70542  1.0000
  C   C14       1.0  0.44534  0.02774  0.29434  1.0000
  C   C15       1.0  0.02773  0.44534  0.29435  1.0000
  C   C16       1.0  0.55454  0.97266  0.70544  1.0000
  C   C17       1.0  0.88591  0.51273  0.65440  1.0000
  C   C18       1.0  0.48713  0.11449  0.34537  1.0000
  C   C19       1.0  0.11448  0.48712  0.34537  1.0000
  C   C20       1.0  0.51273  0.88590  0.65442  1.0000
  C   C21       1.0  0.72992  0.54448  0.53920  1.0000
  C   C22       1.0  0.45528  0.27001  0.46094  1.0000
  C   C23       1.0  0.27001  0.45528  0.46094  1.0000
  C   C24       1.0  0.54448  0.72992  0.53920  1.0000
  C   C25       1.0  0.11726  0.70759  0.70058  1.0000
  C   C26       1.0  0.29219  0.88328  0.29914  1.0000
  C   C27       1.0  0.88328  0.29219  0.29914  1.0000
  C   C28       1.0  0.70758  0.11726  0.70060  1.0000
  C   C29       1.0  0.02127  0.45785  0.80209  1.0000
  C   C30       1.0  0.54194  0.97929  0.19753  1.0000
  C   C31       1.0  0.97929  0.54193  0.19754  1.0000
  C   C32       1.0  0.45784  0.02127  0.80211  1.0000
  C   C33       1.0  0.65258  0.65258  0.46104  1.0000
  C   C34       1.0  0.34720  0.34720  0.53925  1.0000
  C   C35       1.0  0.89056  0.36622  0.67616  1.0000
  C   C36       1.0  0.63349  0.10967  0.32414  1.0000
  C   C37       1.0  0.10968  0.63348  0.32413  1.0000
  C   C38       1.0  0.36622  0.89056  0.67617  1.0000
  C   C39       1.0  0.16304  0.60984  0.79446  1.0000
  C   C40       1.0  0.38990  0.83769  0.20512  1.0000
  C   C41       1.0  0.83768  0.38990  0.20513  1.0000
  C   C42       1.0  0.60982  0.16304  0.79448  1.0000
  C   C43       1.0  0.11328  0.48386  0.84815  1.0000
  C   C44       1.0  0.51588  0.88743  0.15135  1.0000
  C   C45       1.0  0.88743  0.51587  0.15136  1.0000
  C   C46       1.0  0.48384  0.11327  0.84817  1.0000
  N   N1        1.0  0.80990  0.59609  0.59091  1.0000
  N   N2        1.0  0.40364  0.19021  0.40907  1.0000
  N   N3        1.0  0.19021  0.40364  0.40907  1.0000
  N   N4        1.0  0.59608  0.80990  0.59092  1.0000
  O   O1        1.0  0.00566  0.00568  0.31429  1.0000
  O   O2        1.0  0.99422  0.99423  0.68580  1.0000
  O   O3        1.0  0.97503  0.78410  0.56978  1.0000
  O   O4        1.0  0.21586  0.02486  0.43038  1.0000
  O   O5        1.0  0.02486  0.21585  0.43038  1.0000
  O   O6        1.0  0.78410  0.97501  0.56981  1.0000
  O   O7        1.0  0.85959  0.85960  0.34951  1.0000
  O   O8        1.0  0.14026  0.14026  0.65070  1.0000
