data_image0
_chemical_formula_structural       CdCu2H44C46N4O8
_chemical_formula_sum              "Cd1 Cu2 H44 C46 N4 O8"
_cell_length_a       10.8727
_cell_length_b       10.8727
_cell_length_c       11.8027
_cell_angle_alpha    69.3725
_cell_angle_beta     69.3725
_cell_angle_gamma    80.9909

_space_group_name_H-M_alt    "P 1"
_space_group_IT_number       1

loop_
  _space_group_symop_operation_xyz
  'x, y, z'

loop_
  _atom_site_type_symbol
  _atom_site_label
  _atom_site_symmetry_multiplicity
  _atom_site_fract_x
  _atom_site_fract_y
  _atom_site_fract_z
  _atom_site_occupancy
  Cd  Cd1       1.0  1.00000  0.00000  1.00000  1.0000
  Cu  Cu1       1.0  0.78099  0.78099  0.06052  1.0000
  Cu  Cu2       1.0  0.21901  0.21902  0.93948  1.0000
  H   H1        1.0  0.88175  0.88175  0.42516  1.0000
  H   H2        1.0  0.11825  0.11825  0.57484  1.0000
  H   H3        1.0  0.12554  0.79418  0.17365  1.0000
  H   H4        1.0  0.20582  0.87446  0.82635  1.0000
  H   H5        1.0  0.87446  0.20582  0.82635  1.0000
  H   H6        1.0  0.79418  0.12554  0.17365  1.0000
  H   H7        1.0  0.61037  0.61037  0.89651  1.0000
  H   H8        1.0  0.38963  0.38963  0.10349  1.0000
  H   H9        1.0  0.72507  0.72507  0.86876  1.0000
  H   H10       1.0  0.27494  0.27494  0.13124  1.0000
  H   H11       1.0  0.83634  0.83634  0.66106  1.0000
  H   H12       1.0  0.16366  0.16366  0.33893  1.0000
  H   H13       1.0  0.65255  0.47219  0.09775  1.0000
  H   H14       1.0  0.52781  0.34745  0.90224  1.0000
  H   H15       1.0  0.34745  0.52781  0.90224  1.0000
  H   H16       1.0  0.47219  0.65255  0.09775  1.0000
  H   H17       1.0  0.79235  0.49117  0.95855  1.0000
  H   H18       1.0  0.50883  0.20766  0.04145  1.0000
  H   H19       1.0  0.20765  0.50883  0.04145  1.0000
  H   H20       1.0  0.49117  0.79235  0.95855  1.0000
  H   H21       1.0  0.95845  0.34563  0.33279  1.0000
  H   H22       1.0  0.65437  0.04155  0.66721  1.0000
  H   H23       1.0  0.04155  0.65437  0.66721  1.0000
  H   H24       1.0  0.34563  0.95845  0.33279  1.0000
  H   H25       1.0  0.10917  0.39209  0.42461  1.0000
  H   H26       1.0  0.60791  0.89083  0.57538  1.0000
  H   H27       1.0  0.89083  0.60791  0.57538  1.0000
  H   H28       1.0  0.39208  0.10917  0.42462  1.0000
  H   H29       1.0  0.79969  0.31084  0.25526  1.0000
  H   H30       1.0  0.68916  0.20032  0.74474  1.0000
  H   H31       1.0  0.20032  0.68916  0.74474  1.0000
  H   H32       1.0  0.31084  0.79968  0.25526  1.0000
  H   H33       1.0  0.96790  0.31421  0.16035  1.0000
  H   H34       1.0  0.68579  0.03210  0.83965  1.0000
  H   H35       1.0  0.03210  0.68579  0.83965  1.0000
  H   H36       1.0  0.31421  0.96790  0.16035  1.0000
  H   H37       1.0  0.84398  0.34400  0.08845  1.0000
  H   H38       1.0  0.65600  0.15602  0.91155  1.0000
  H   H39       1.0  0.15602  0.65600  0.91154  1.0000
  H   H40       1.0  0.34400  0.84398  0.08845  1.0000
  H   H41       1.0  0.19983  0.61669  0.33995  1.0000
  H   H42       1.0  0.38331  0.80017  0.66005  1.0000
  H   H43       1.0  0.80017  0.38331  0.66005  1.0000
  H   H44       1.0  0.61669  0.19983  0.33996  1.0000
  C   C1        1.0  0.94666  0.94666  0.77158  1.0000
  C   C2        1.0  0.05334  0.05334  0.22842  1.0000
  C   C3        1.0  0.97486  0.97486  0.63071  1.0000
  C   C4        1.0  0.02514  0.02514  0.36929  1.0000
  C   C5        1.0  0.99777  0.67323  0.15859  1.0000
  C   C6        1.0  0.32677  0.00223  0.84141  1.0000
  C   C7        1.0  0.00223  0.32677  0.84141  1.0000
  C   C8        1.0  0.67323  0.99777  0.15859  1.0000
  C   C9        1.0  0.93265  0.93264  0.45946  1.0000
  C   C10       1.0  0.06736  0.06736  0.54053  1.0000
  C   C11       1.0  0.09067  0.69493  0.20821  1.0000
  C   C12       1.0  0.30507  0.90933  0.79179  1.0000
  C   C13       1.0  0.90933  0.30507  0.79179  1.0000
  C   C14       1.0  0.69493  0.09067  0.20821  1.0000
  C   C15       1.0  0.86958  0.50528  0.14477  1.0000
  C   C16       1.0  0.49471  0.13043  0.85523  1.0000
  C   C17       1.0  0.13043  0.49472  0.85523  1.0000
  C   C18       1.0  0.50529  0.86958  0.14477  1.0000
  C   C19       1.0  0.95173  0.54284  0.20148  1.0000
  C   C20       1.0  0.45716  0.04827  0.79852  1.0000
  C   C21       1.0  0.04827  0.45716  0.79852  1.0000
  C   C22       1.0  0.54284  0.95173  0.20148  1.0000
  C   C23       1.0  0.65396  0.65396  0.94423  1.0000
  C   C24       1.0  0.34605  0.34605  0.05577  1.0000
  C   C25       1.0  0.90781  0.90781  0.58934  1.0000
  C   C26       1.0  0.09219  0.09219  0.41065  1.0000
  C   C27       1.0  0.72444  0.54367  0.02219  1.0000
  C   C28       1.0  0.45633  0.27556  0.97781  1.0000
  C   C29       1.0  0.27556  0.45633  0.97781  1.0000
  C   C30       1.0  0.54367  0.72445  0.02219  1.0000
  C   C31       1.0  0.99469  0.44449  0.29733  1.0000
  C   C32       1.0  0.55551  0.00531  0.70267  1.0000
  C   C33       1.0  0.00531  0.55550  0.70267  1.0000
  C   C34       1.0  0.44449  0.99469  0.29733  1.0000
  C   C35       1.0  0.08113  0.46933  0.34855  1.0000
  C   C36       1.0  0.53067  0.91887  0.65145  1.0000
  C   C37       1.0  0.91887  0.53067  0.65145  1.0000
  C   C38       1.0  0.46933  0.08113  0.34855  1.0000
  C   C39       1.0  0.87084  0.36108  0.16231  1.0000
  C   C40       1.0  0.63892  0.12916  0.83769  1.0000
  C   C41       1.0  0.12916  0.63892  0.83769  1.0000
  C   C42       1.0  0.36108  0.87084  0.16231  1.0000
  C   C43       1.0  0.13073  0.59566  0.30140  1.0000
  C   C44       1.0  0.40434  0.86927  0.69860  1.0000
  C   C45       1.0  0.86927  0.40434  0.69860  1.0000
  C   C46       1.0  0.59566  0.13073  0.30141  1.0000
  N   N1        1.0  0.79926  0.59061  0.08054  1.0000
  N   N2        1.0  0.40939  0.20074  0.91946  1.0000
  N   N3        1.0  0.20074  0.40939  0.91946  1.0000
  N   N4        1.0  0.59061  0.79926  0.08054  1.0000
  O   O1        1.0  0.01129  0.01129  0.80259  1.0000
  O   O2        1.0  0.98871  0.98871  0.19740  1.0000
  O   O3        1.0  0.96061  0.77162  0.07163  1.0000
  O   O4        1.0  0.22838  0.03939  0.92837  1.0000
  O   O5        1.0  0.03939  0.22838  0.92838  1.0000
  O   O6        1.0  0.77162  0.96061  0.07163  1.0000
  O   O7        1.0  0.86199  0.86199  0.84687  1.0000
  O   O8        1.0  0.13801  0.13801  0.15313  1.0000
