data_image0
_chemical_formula_structural       Mn4H48C24N4Cl4O16
_chemical_formula_sum              "Mn4 H48 C24 N4 Cl4 O16"
_cell_length_a       9.49231
_cell_length_b       10.1183
_cell_length_c       10.4856
_cell_angle_alpha    92.7672
_cell_angle_beta     89.9999
_cell_angle_gamma    90.0002

_space_group_name_H-M_alt    "P 1"
_space_group_IT_number       1

loop_
  _space_group_symop_operation_xyz
  'x, y, z'

loop_
  _atom_site_type_symbol
  _atom_site_label
  _atom_site_symmetry_multiplicity
  _atom_site_fract_x
  _atom_site_fract_y
  _atom_site_fract_z
  _atom_site_occupancy
  Mn  Mn1       1.0  0.72743  0.31106  0.78536  1.0000
  Mn  Mn2       1.0  0.22744  0.18894  0.71464  1.0000
  Mn  Mn3       1.0  0.27256  0.68894  0.21463  1.0000
  Mn  Mn4       1.0  0.77257  0.81106  0.28536  1.0000
  H   H1        1.0  0.96233  0.47515  0.86598  1.0000
  H   H2        1.0  0.46233  0.02484  0.63401  1.0000
  H   H3        1.0  0.03767  0.52484  0.13401  1.0000
  H   H4        1.0  0.53767  0.97515  0.36598  1.0000
  H   H5        1.0  0.42630  0.20587  0.92549  1.0000
  H   H6        1.0  0.92630  0.29414  0.57451  1.0000
  H   H7        1.0  0.57370  0.79413  0.07451  1.0000
  H   H8        1.0  0.07370  0.70587  0.42549  1.0000
  H   H9        1.0  0.67020  0.71906  0.80935  1.0000
  H   H10       1.0  0.17020  0.78094  0.69065  1.0000
  H   H11       1.0  0.32979  0.28093  0.19065  1.0000
  H   H12       1.0  0.82980  0.21906  0.30935  1.0000
  H   H13       1.0  0.82497  0.66073  0.73159  1.0000
  H   H14       1.0  0.32498  0.83927  0.76841  1.0000
  H   H15       1.0  0.17502  0.33926  0.26841  1.0000
  H   H16       1.0  0.67503  0.16073  0.23159  1.0000
  H   H17       1.0  0.86024  0.66071  0.96600  1.0000
  H   H18       1.0  0.36024  0.83929  0.53400  1.0000
  H   H19       1.0  0.13975  0.33928  0.03399  1.0000
  H   H20       1.0  0.63975  0.16071  0.46600  1.0000
  H   H21       1.0  0.70670  0.56334  0.98409  1.0000
  H   H22       1.0  0.20670  0.93666  0.51591  1.0000
  H   H23       1.0  0.29330  0.43666  0.01591  1.0000
  H   H24       1.0  0.79330  0.06334  0.48409  1.0000
  H   H25       1.0  0.17470  0.87722  0.95385  1.0000
  H   H26       1.0  0.67469  0.62278  0.54615  1.0000
  H   H27       1.0  0.82531  0.12278  0.04615  1.0000
  H   H28       1.0  0.32530  0.37722  0.45385  1.0000
  H   H29       1.0  0.10366  0.04120  0.96321  1.0000
  H   H30       1.0  0.60366  0.45879  0.53678  1.0000
  H   H31       1.0  0.89634  0.95880  0.03679  1.0000
  H   H32       1.0  0.39634  0.54120  0.46321  1.0000
  H   H33       1.0  0.33908  0.03763  0.05631  1.0000
  H   H34       1.0  0.83909  0.46237  0.44369  1.0000
  H   H35       1.0  0.66092  0.96236  0.94369  1.0000
  H   H36       1.0  0.16092  0.53763  0.55631  1.0000
  H   H37       1.0  0.41225  0.97212  0.91039  1.0000
  H   H38       1.0  0.91224  0.52789  0.58962  1.0000
  H   H39       1.0  0.58776  0.02789  0.08962  1.0000
  H   H40       1.0  0.08775  0.47211  0.41039  1.0000
  H   H41       1.0  0.95069  0.90011  0.80414  1.0000
  H   H42       1.0  0.45069  0.59991  0.69586  1.0000
  H   H43       1.0  0.04931  0.09991  0.19586  1.0000
  H   H44       1.0  0.54931  0.40010  0.30414  1.0000
  H   H45       1.0  0.98959  0.94943  0.64924  1.0000
  H   H46       1.0  0.48959  0.55058  0.85076  1.0000
  H   H47       1.0  0.01041  0.05058  0.35076  1.0000
  H   H48       1.0  0.51040  0.44943  0.14924  1.0000
  C   C1        1.0  0.23704  0.86935  0.70798  1.0000
  C   C2        1.0  0.73703  0.63064  0.79202  1.0000
  C   C3        1.0  0.76297  0.13064  0.29202  1.0000
  C   C4        1.0  0.26296  0.36935  0.20798  1.0000
  C   C5        1.0  0.29297  0.91526  0.58132  1.0000
  C   C6        1.0  0.79297  0.58474  0.91868  1.0000
  C   C7        1.0  0.70703  0.08474  0.41868  1.0000
  C   C8        1.0  0.20703  0.41526  0.08132  1.0000
  C   C9        1.0  0.18415  0.97722  0.91739  1.0000
  C   C10       1.0  0.68415  0.52278  0.58260  1.0000
  C   C11       1.0  0.81585  0.02278  0.08261  1.0000
  C   C12       1.0  0.31584  0.47722  0.41739  1.0000
  C   C13       1.0  0.32704  0.03426  0.95175  1.0000
  C   C14       1.0  0.82704  0.46574  0.54825  1.0000
  C   C15       1.0  0.67297  0.96573  0.04825  1.0000
  C   C16       1.0  0.17296  0.53426  0.45175  1.0000
  C   C17       1.0  0.00767  0.97542  0.75106  1.0000
  C   C18       1.0  0.50766  0.52459  0.74894  1.0000
  C   C19       1.0  0.99234  0.02459  0.24894  1.0000
  C   C20       1.0  0.49233  0.47541  0.25105  1.0000
  C   C21       1.0  0.94076  0.11032  0.77940  1.0000
  C   C22       1.0  0.44074  0.38970  0.72060  1.0000
  C   C23       1.0  0.05927  0.88970  0.22061  1.0000
  C   C24       1.0  0.55924  0.61031  0.27939  1.0000
  N   N1        1.0  0.15893  0.97649  0.77820  1.0000
  N   N2        1.0  0.65892  0.52351  0.72180  1.0000
  N   N3        1.0  0.84108  0.02351  0.22180  1.0000
  N   N4        1.0  0.34107  0.47648  0.27820  1.0000
  Cl  Cl1       1.0  0.10572  0.20854  0.50948  1.0000
  Cl  Cl2       1.0  0.60572  0.29145  0.99052  1.0000
  Cl  Cl3       1.0  0.89428  0.79146  0.49052  1.0000
  Cl  Cl4       1.0  0.39428  0.70854  0.00948  1.0000
  O   O1        1.0  0.36862  0.03924  0.59913  1.0000
  O   O2        1.0  0.86861  0.46076  0.90086  1.0000
  O   O3        1.0  0.63139  0.96076  0.40086  1.0000
  O   O4        1.0  0.13138  0.53924  0.09913  1.0000
  O   O5        1.0  0.33283  0.16465  0.90377  1.0000
  O   O6        1.0  0.83283  0.33535  0.59624  1.0000
  O   O7        1.0  0.66717  0.83535  0.09624  1.0000
  O   O8        1.0  0.16717  0.66465  0.40376  1.0000
  O   O9        1.0  0.01991  0.21025  0.80312  1.0000
  O   O10       1.0  0.51988  0.28975  0.69689  1.0000
  O   O11       1.0  0.98011  0.78975  0.19688  1.0000
  O   O12       1.0  0.48009  0.71024  0.30312  1.0000
  O   O13       1.0  0.80688  0.11634  0.77421  1.0000
  O   O14       1.0  0.30687  0.38368  0.72580  1.0000
  O   O15       1.0  0.19313  0.88368  0.22580  1.0000
  O   O16       1.0  0.69312  0.61633  0.27420  1.0000
