data_image0
_chemical_formula_structural       Zn2P2H12C12N2O12
_chemical_formula_sum              "Zn2 P2 H12 C12 N2 O12"
_cell_length_a       6.58925
_cell_length_b       8.03672
_cell_length_c       9.11878
_cell_angle_alpha    115.22
_cell_angle_beta     90.0001
_cell_angle_gamma    90

_space_group_name_H-M_alt    "P 1"
_space_group_IT_number       1

loop_
  _space_group_symop_operation_xyz
  'x, y, z'

loop_
  _atom_site_type_symbol
  _atom_site_label
  _atom_site_symmetry_multiplicity
  _atom_site_fract_x
  _atom_site_fract_y
  _atom_site_fract_z
  _atom_site_occupancy
  Zn  Zn1       1.0  0.75000  0.78105  0.52685  1.0000
  Zn  Zn2       1.0  0.25000  0.21895  0.47315  1.0000
  P   P1        1.0  0.75000  0.16427  0.50615  1.0000
  P   P2        1.0  0.25000  0.83574  0.49385  1.0000
  H   H1        1.0  0.75000  0.48363  0.83074  1.0000
  H   H2        1.0  0.25000  0.51637  0.16926  1.0000
  H   H3        1.0  0.75000  0.20761  0.14592  1.0000
  H   H4        1.0  0.25000  0.79238  0.85408  1.0000
  H   H5        1.0  0.75000  0.90475  0.89377  1.0000
  H   H6        1.0  0.25000  0.09525  0.10623  1.0000
  H   H7        1.0  0.75000  0.81201  0.23493  1.0000
  H   H8        1.0  0.25000  0.18799  0.76507  1.0000
  H   H9        1.0  0.86533  0.51412  0.59600  1.0000
  H   H10       1.0  0.36533  0.48588  0.40400  1.0000
  H   H11       1.0  0.13468  0.48588  0.40400  1.0000
  H   H12       1.0  0.63468  0.51412  0.59600  1.0000
  C   C1        1.0  0.75000  0.18571  0.71544  1.0000
  C   C2        1.0  0.25000  0.81429  0.28456  1.0000
  C   C3        1.0  0.75000  0.35801  0.84876  1.0000
  C   C4        1.0  0.25000  0.64200  0.15124  1.0000
  C   C5        1.0  0.75000  0.36650  0.00470  1.0000
  C   C6        1.0  0.25000  0.63350  0.99531  1.0000
  C   C7        1.0  0.75000  0.20303  0.02474  1.0000
  C   C8        1.0  0.25000  0.79697  0.97526  1.0000
  C   C9        1.0  0.75000  0.03709  0.88691  1.0000
  C   C10       1.0  0.25000  0.96291  0.11309  1.0000
  C   C11       1.0  0.75000  0.54580  0.15180  1.0000
  C   C12       1.0  0.25000  0.45419  0.84819  1.0000
  N   N1        1.0  0.75000  0.02948  0.73642  1.0000
  N   N2        1.0  0.25000  0.97052  0.26358  1.0000
  O   O1        1.0  0.75000  0.95491  0.40134  1.0000
  O   O2        1.0  0.25000  0.04509  0.59866  1.0000
  O   O3        1.0  0.93948  0.26393  0.48813  1.0000
  O   O4        1.0  0.43948  0.73607  0.51187  1.0000
  O   O5        1.0  0.06052  0.73607  0.51187  1.0000
  O   O6        1.0  0.56052  0.26393  0.48813  1.0000
  O   O7        1.0  0.74999  0.69400  0.12410  1.0000
  O   O8        1.0  0.25000  0.30600  0.87591  1.0000
  O   O9        1.0  0.75000  0.54651  0.28823  1.0000
  O   O10       1.0  0.25000  0.45349  0.71177  1.0000
  O   O11       1.0  0.75000  0.60044  0.64012  1.0000
  O   O12       1.0  0.25000  0.39956  0.35988  1.0000
