data_image0
_chemical_formula_structural       Cd4P4H16C24N4O20
_chemical_formula_sum              "Cd4 P4 H16 C24 N4 O20"
_cell_length_a       8.83547
_cell_length_b       9.31834
_cell_length_c       9.96142
_cell_angle_alpha    102.635
_cell_angle_beta     90
_cell_angle_gamma    90.0002

_space_group_name_H-M_alt    "P 1"
_space_group_IT_number       1

loop_
  _space_group_symop_operation_xyz
  'x, y, z'

loop_
  _atom_site_type_symbol
  _atom_site_label
  _atom_site_symmetry_multiplicity
  _atom_site_fract_x
  _atom_site_fract_y
  _atom_site_fract_z
  _atom_site_occupancy
  Cd  Cd1       1.0  0.20955  0.45475  0.48203  1.0000
  Cd  Cd2       1.0  0.70955  0.54525  0.01797  1.0000
  Cd  Cd3       1.0  0.79045  0.54525  0.51797  1.0000
  Cd  Cd4       1.0  0.29045  0.45475  0.98203  1.0000
  P   P1        1.0  0.50402  0.55451  0.29737  1.0000
  P   P2        1.0  0.00402  0.44549  0.20263  1.0000
  P   P3        1.0  0.49598  0.44548  0.70263  1.0000
  P   P4        1.0  0.99598  0.55451  0.79737  1.0000
  H   H1        1.0  0.50652  0.86853  0.28625  1.0000
  H   H2        1.0  0.00652  0.13147  0.21375  1.0000
  H   H3        1.0  0.49348  0.13146  0.71374  1.0000
  H   H4        1.0  0.99348  0.86853  0.78625  1.0000
  H   H5        1.0  0.11686  0.02852  0.53473  1.0000
  H   H6        1.0  0.61686  0.97148  0.96527  1.0000
  H   H7        1.0  0.88314  0.97148  0.46527  1.0000
  H   H8        1.0  0.38314  0.02852  0.03473  1.0000
  H   H9        1.0  0.08136  0.77157  0.57294  1.0000
  H   H10       1.0  0.58136  0.22843  0.92706  1.0000
  H   H11       1.0  0.91864  0.22843  0.42706  1.0000
  H   H12       1.0  0.41864  0.77157  0.07294  1.0000
  H   H13       1.0  0.44891  0.26601  0.32158  1.0000
  H   H14       1.0  0.94891  0.73399  0.17842  1.0000
  H   H15       1.0  0.55109  0.73399  0.67842  1.0000
  H   H16       1.0  0.05109  0.26601  0.82158  1.0000
  C   C1        1.0  0.38284  0.71104  0.37477  1.0000
  C   C2        1.0  0.88284  0.28896  0.12523  1.0000
  C   C3        1.0  0.61716  0.28896  0.62523  1.0000
  C   C4        1.0  0.11716  0.71104  0.87477  1.0000
  C   C5        1.0  0.41017  0.85110  0.34916  1.0000
  C   C6        1.0  0.91017  0.14890  0.15084  1.0000
  C   C7        1.0  0.58983  0.14890  0.65084  1.0000
  C   C8        1.0  0.08983  0.85110  0.84915  1.0000
  C   C9        1.0  0.31093  0.96565  0.40352  1.0000
  C   C10       1.0  0.81093  0.03435  0.09649  1.0000
  C   C11       1.0  0.68907  0.03435  0.59649  1.0000
  C   C12       1.0  0.18907  0.96565  0.90351  1.0000
  C   C13       1.0  0.19234  0.93946  0.48813  1.0000
  C   C14       1.0  0.69234  0.06054  0.01187  1.0000
  C   C15       1.0  0.80766  0.06054  0.51187  1.0000
  C   C16       1.0  0.30766  0.93946  0.98813  1.0000
  C   C17       1.0  0.17349  0.79904  0.51050  1.0000
  C   C18       1.0  0.67349  0.20096  0.98950  1.0000
  C   C19       1.0  0.82651  0.20096  0.48950  1.0000
  C   C20       1.0  0.32651  0.79904  0.01050  1.0000
  C   C21       1.0  0.32023  0.11631  0.37443  1.0000
  C   C22       1.0  0.82023  0.88369  0.12557  1.0000
  C   C23       1.0  0.67978  0.88369  0.62557  1.0000
  C   C24       1.0  0.17978  0.11632  0.87443  1.0000
  N   N1        1.0  0.26550  0.68750  0.45335  1.0000
  N   N2        1.0  0.76550  0.31250  0.04665  1.0000
  N   N3        1.0  0.73450  0.31250  0.54665  1.0000
  N   N4        1.0  0.23450  0.68750  0.95335  1.0000
  O   O1        1.0  0.48723  0.54141  0.14062  1.0000
  O   O2        1.0  0.98723  0.45859  0.35938  1.0000
  O   O3        1.0  0.51277  0.45859  0.85938  1.0000
  O   O4        1.0  0.01277  0.54140  0.64062  1.0000
  O   O5        1.0  0.44199  0.42202  0.34813  1.0000
  O   O6        1.0  0.94198  0.57798  0.15187  1.0000
  O   O7        1.0  0.55801  0.57798  0.65187  1.0000
  O   O8        1.0  0.05801  0.42202  0.84813  1.0000
  O   O9        1.0  0.66551  0.59888  0.34152  1.0000
  O   O10       1.0  0.16551  0.40112  0.15848  1.0000
  O   O11       1.0  0.33449  0.40112  0.65848  1.0000
  O   O12       1.0  0.83449  0.59888  0.84152  1.0000
  O   O13       1.0  0.20734  0.19810  0.40016  1.0000
  O   O14       1.0  0.70734  0.80190  0.09985  1.0000
  O   O15       1.0  0.79266  0.80190  0.59985  1.0000
  O   O16       1.0  0.29266  0.19809  0.90015  1.0000
  O   O17       1.0  0.44829  0.15136  0.32344  1.0000
  O   O18       1.0  0.94829  0.84864  0.17656  1.0000
  O   O19       1.0  0.55171  0.84864  0.67656  1.0000
  O   O20       1.0  0.05171  0.15136  0.82344  1.0000
