data_image0
_chemical_formula_structural       Zn8H20C28N4O24
_chemical_formula_sum              "Zn8 H20 C28 N4 O24"
_cell_length_a       5.24263
_cell_length_b       8.86854
_cell_length_c       19.564
_cell_angle_alpha    89.9975
_cell_angle_beta     90.0003
_cell_angle_gamma    90

_space_group_name_H-M_alt    "P 1"
_space_group_IT_number       1

loop_
  _space_group_symop_operation_xyz
  'x, y, z'

loop_
  _atom_site_type_symbol
  _atom_site_label
  _atom_site_symmetry_multiplicity
  _atom_site_fract_x
  _atom_site_fract_y
  _atom_site_fract_z
  _atom_site_occupancy
  Zn  Zn1       1.0  0.88193  0.81907  0.48025  1.0000
  Zn  Zn2       1.0  0.38194  0.18093  0.51975  1.0000
  Zn  Zn3       1.0  0.88182  0.31907  0.01975  1.0000
  Zn  Zn4       1.0  0.38181  0.68094  0.98025  1.0000
  Zn  Zn5       1.0  0.39899  0.08787  0.97567  1.0000
  Zn  Zn6       1.0  0.89898  0.91213  0.02433  1.0000
  Zn  Zn7       1.0  0.39909  0.58787  0.52433  1.0000
  Zn  Zn8       1.0  0.89909  0.41212  0.47567  1.0000
  H   H1        1.0  0.42430  0.84394  0.49325  1.0000
  H   H2        1.0  0.92430  0.15605  0.50675  1.0000
  H   H3        1.0  0.42419  0.34394  0.00675  1.0000
  H   H4        1.0  0.92418  0.65606  0.99325  1.0000
  H   H5        1.0  0.97628  0.59793  0.56520  1.0000
  H   H6        1.0  0.47627  0.40206  0.43480  1.0000
  H   H7        1.0  0.97616  0.09797  0.93480  1.0000
  H   H8        1.0  0.47616  0.90204  0.06520  1.0000
  H   H9        1.0  0.55702  0.07284  0.26848  1.0000
  H   H10       1.0  0.05704  0.92716  0.73152  1.0000
  H   H11       1.0  0.55700  0.57285  0.23152  1.0000
  H   H12       1.0  0.05701  0.42715  0.76848  1.0000
  H   H13       1.0  0.18688  0.77507  0.22638  1.0000
  H   H14       1.0  0.68689  0.22492  0.77362  1.0000
  H   H15       1.0  0.18684  0.27507  0.27362  1.0000
  H   H16       1.0  0.68684  0.72493  0.72638  1.0000
  H   H17       1.0  0.22784  0.73469  0.35409  1.0000
  H   H18       1.0  0.72785  0.26530  0.64591  1.0000
  H   H19       1.0  0.22776  0.23468  0.14590  1.0000
  H   H20       1.0  0.72776  0.76533  0.85410  1.0000
  C   C1        1.0  0.58523  0.06174  0.40428  1.0000
  C   C2        1.0  0.08524  0.93825  0.59572  1.0000
  C   C3        1.0  0.58514  0.56175  0.09572  1.0000
  C   C4        1.0  0.08514  0.43826  0.90428  1.0000
  C   C5        1.0  0.75047  0.97659  0.35469  1.0000
  C   C6        1.0  0.25050  0.02340  0.64531  1.0000
  C   C7        1.0  0.75041  0.47660  0.14531  1.0000
  C   C8        1.0  0.25041  0.52341  0.85469  1.0000
  C   C9        1.0  0.71004  0.99890  0.28532  1.0000
  C   C10       1.0  0.21006  0.00110  0.71468  1.0000
  C   C11       1.0  0.71002  0.49891  0.21468  1.0000
  C   C12       1.0  0.21001  0.50111  0.78532  1.0000
  C   C13       1.0  0.86404  0.92452  0.23806  1.0000
  C   C14       1.0  0.36406  0.07547  0.76194  1.0000
  C   C15       1.0  0.86403  0.42452  0.26194  1.0000
  C   C16       1.0  0.36403  0.57548  0.73806  1.0000
  C   C17       1.0  0.05982  0.83167  0.26232  1.0000
  C   C18       1.0  0.55984  0.16832  0.73768  1.0000
  C   C19       1.0  0.05979  0.33168  0.23768  1.0000
  C   C20       1.0  0.55979  0.66832  0.76232  1.0000
  C   C21       1.0  0.08339  0.81011  0.33282  1.0000
  C   C22       1.0  0.58340  0.18988  0.66718  1.0000
  C   C23       1.0  0.08334  0.31012  0.16718  1.0000
  C   C24       1.0  0.58333  0.68990  0.83282  1.0000
  C   C25       1.0  0.80340  0.94215  0.16317  1.0000
  C   C26       1.0  0.30341  0.05785  0.83683  1.0000
  C   C27       1.0  0.80340  0.44214  0.33683  1.0000
  C   C28       1.0  0.30341  0.55785  0.66317  1.0000
  N   N1        1.0  0.93005  0.87969  0.37822  1.0000
  N   N2        1.0  0.43007  0.12030  0.62178  1.0000
  N   N3        1.0  0.92998  0.37970  0.12178  1.0000
  N   N4        1.0  0.42998  0.62031  0.87822  1.0000
  O   O1        1.0  0.65404  0.05802  0.46870  1.0000
  O   O2        1.0  0.15405  0.94197  0.53129  1.0000
  O   O3        1.0  0.65394  0.55804  0.03129  1.0000
  O   O4        1.0  0.15393  0.44197  0.96871  1.0000
  O   O5        1.0  0.39501  0.13153  0.38360  1.0000
  O   O6        1.0  0.89502  0.86847  0.61640  1.0000
  O   O7        1.0  0.39492  0.63154  0.11639  1.0000
  O   O8        1.0  0.89492  0.36848  0.88360  1.0000
  O   O9        1.0  0.58483  0.98681  0.14690  1.0000
  O   O10       1.0  0.08483  0.01320  0.85310  1.0000
  O   O11       1.0  0.58483  0.48680  0.35310  1.0000
  O   O12       1.0  0.08484  0.51318  0.64690  1.0000
  O   O13       1.0  0.98494  0.90564  0.12185  1.0000
  O   O14       1.0  0.48495  0.09436  0.87815  1.0000
  O   O15       1.0  0.98496  0.40564  0.37814  1.0000
  O   O16       1.0  0.48497  0.59436  0.62186  1.0000
  O   O17       1.0  0.52152  0.75919  0.47411  1.0000
  O   O18       1.0  0.02153  0.24080  0.52589  1.0000
  O   O19       1.0  0.52143  0.25920  0.02589  1.0000
  O   O20       1.0  0.02143  0.74081  0.97411  1.0000
  O   O21       1.0  0.00952  0.60867  0.51522  1.0000
  O   O22       1.0  0.50952  0.39133  0.48478  1.0000
  O   O23       1.0  0.00943  0.10868  0.98478  1.0000
  O   O24       1.0  0.50943  0.89133  0.01523  1.0000
