data_image0
_chemical_formula_structural       Ni2P4H56C36S10N4O8
_chemical_formula_sum              "Ni2 P4 H56 C36 S10 N4 O8"
_cell_length_a       8.12536
_cell_length_b       9.34478
_cell_length_c       17.7579
_cell_angle_alpha    100.024
_cell_angle_beta     100.118
_cell_angle_gamma    94.6022

_space_group_name_H-M_alt    "P 1"
_space_group_IT_number       1

loop_
  _space_group_symop_operation_xyz
  'x, y, z'

loop_
  _atom_site_type_symbol
  _atom_site_label
  _atom_site_symmetry_multiplicity
  _atom_site_fract_x
  _atom_site_fract_y
  _atom_site_fract_z
  _atom_site_occupancy
  Ni  Ni1       1.0  0.00000  0.50000  0.50000  1.0000
  Ni  Ni2       1.0  1.00000  0.00000  0.00000  1.0000
  P   P1        1.0  0.27143  0.75360  0.53436  1.0000
  P   P2        1.0  0.72857  0.24640  0.46564  1.0000
  P   P3        1.0  0.78760  0.24084  0.97407  1.0000
  P   P4        1.0  0.21240  0.75917  0.02593  1.0000
  H   H1        1.0  0.50046  0.57220  0.60552  1.0000
  H   H2        1.0  0.49954  0.42780  0.39447  1.0000
  H   H3        1.0  0.40165  0.67074  0.67774  1.0000
  H   H4        1.0  0.59835  0.32926  0.32225  1.0000
  H   H5        1.0  0.70859  0.65715  0.72870  1.0000
  H   H6        1.0  0.29141  0.34285  0.27129  1.0000
  H   H7        1.0  0.66812  0.84213  0.72969  1.0000
  H   H8        1.0  0.33188  0.15787  0.27031  1.0000
  H   H9        1.0  0.76498  0.74826  0.65565  1.0000
  H   H10       1.0  0.23502  0.25174  0.34434  1.0000
  H   H11       1.0  0.12587  0.04254  0.46353  1.0000
  H   H12       1.0  0.87414  0.95746  0.53647  1.0000
  H   H13       1.0  0.04414  0.85480  0.43866  1.0000
  H   H14       1.0  0.95586  0.14521  0.56134  1.0000
  H   H15       1.0  0.11905  0.94649  0.32224  1.0000
  H   H16       1.0  0.88095  0.05350  0.67776  1.0000
  H   H17       1.0  0.24558  0.80823  0.34720  1.0000
  H   H18       1.0  0.75442  0.19177  0.65280  1.0000
  H   H19       1.0  0.33023  0.99673  0.37338  1.0000
  H   H20       1.0  0.66977  0.00327  0.62661  1.0000
  H   H21       1.0  0.85863  0.21459  0.82402  1.0000
  H   H22       1.0  0.14137  0.78541  0.17598  1.0000
  H   H23       1.0  0.00171  0.36888  0.87891  1.0000
  H   H24       1.0  0.99829  0.63113  0.12108  1.0000
  H   H25       1.0  0.87354  0.41047  0.74486  1.0000
  H   H26       1.0  0.12645  0.58952  0.25514  1.0000
  H   H27       1.0  0.81886  0.53844  0.82064  1.0000
  H   H28       1.0  0.18113  0.46156  0.17936  1.0000
  H   H29       1.0  0.67015  0.38713  0.76746  1.0000
  H   H30       1.0  0.32985  0.61287  0.23254  1.0000
  H   H31       1.0  0.74719  0.26820  0.12776  1.0000
  H   H32       1.0  0.25282  0.73180  0.87224  1.0000
  H   H33       1.0  0.55860  0.15404  0.07786  1.0000
  H   H34       1.0  0.44140  0.84596  0.92214  1.0000
  H   H35       1.0  0.49932  0.34476  0.18462  1.0000
  H   H36       1.0  0.50068  0.65524  0.81538  1.0000
  H   H37       1.0  0.39643  0.37580  0.09282  1.0000
  H   H38       1.0  0.60357  0.62420  0.90718  1.0000
  H   H39       1.0  0.58530  0.48595  0.14239  1.0000
  H   H40       1.0  0.41470  0.51405  0.85760  1.0000
  H   H41       1.0  0.95935  0.52249  0.33178  1.0000
  H   H42       1.0  0.04065  0.47751  0.66822  1.0000
  H   H43       1.0  0.81988  0.67508  0.24334  1.0000
  H   H44       1.0  0.18012  0.32493  0.75666  1.0000
  H   H45       1.0  0.56093  0.84313  0.42793  1.0000
  H   H46       1.0  0.43907  0.15688  0.57207  1.0000
  H   H47       1.0  0.71404  0.68558  0.50780  1.0000
  H   H48       1.0  0.28597  0.31442  0.49220  1.0000
  H   H49       1.0  0.03573  0.11498  0.17226  1.0000
  H   H50       1.0  0.96427  0.88502  0.82774  1.0000
  H   H51       1.0  0.87794  0.08085  0.27894  1.0000
  H   H52       1.0  0.12205  0.91915  0.72106  1.0000
  H   H53       1.0  0.54584  0.74129  0.11183  1.0000
  H   H54       1.0  0.45415  0.25871  0.88817  1.0000
  H   H55       1.0  0.71094  0.79564  0.01238  1.0000
  H   H56       1.0  0.28906  0.20436  0.98762  1.0000
  C   C1        1.0  0.49874  0.67974  0.64212  1.0000
  C   C2        1.0  0.50126  0.32026  0.35787  1.0000
  C   C3        1.0  0.67006  0.73617  0.69188  1.0000
  C   C4        1.0  0.32994  0.26383  0.30812  1.0000
  C   C5        1.0  0.15645  0.93195  0.44318  1.0000
  C   C6        1.0  0.84356  0.06805  0.55682  1.0000
  C   C7        1.0  0.21719  0.91981  0.36695  1.0000
  C   C8        1.0  0.78281  0.08018  0.63305  1.0000
  C   C9        1.0  0.86959  0.33120  0.85109  1.0000
  C   C10       1.0  0.13041  0.66881  0.14891  1.0000
  C   C11       1.0  0.80349  0.42264  0.79268  1.0000
  C   C12       1.0  0.19651  0.57735  0.20732  1.0000
  C   C13       1.0  0.62263  0.26646  0.09104  1.0000
  C   C14       1.0  0.37737  0.73354  0.90896  1.0000
  C   C15       1.0  0.51978  0.37455  0.12956  1.0000
  C   C16       1.0  0.48022  0.62545  0.87044  1.0000
  C   C17       1.0  0.87141  0.59652  0.35081  1.0000
  C   C18       1.0  0.12860  0.40348  0.64919  1.0000
  C   C19       1.0  0.79267  0.68137  0.30164  1.0000
  C   C20       1.0  0.20733  0.31863  0.69837  1.0000
  C   C21       1.0  0.68014  0.77515  0.32871  1.0000
  C   C22       1.0  0.31986  0.22485  0.67129  1.0000
  C   C23       1.0  0.64736  0.77356  0.40366  1.0000
  C   C24       1.0  0.35265  0.22645  0.59634  1.0000
  C   C25       1.0  0.73417  0.68658  0.44888  1.0000
  C   C26       1.0  0.26584  0.31342  0.55112  1.0000
  C   C27       1.0  0.92634  0.03362  0.16168  1.0000
  C   C28       1.0  0.07365  0.96638  0.83832  1.0000
  C   C29       1.0  0.83992  0.01312  0.22076  1.0000
  C   C30       1.0  0.16007  0.98688  0.77924  1.0000
  C   C31       1.0  0.69977  0.90742  0.20332  1.0000
  C   C32       1.0  0.30022  0.09258  0.79668  1.0000
  C   C33       1.0  0.65316  0.82519  0.12787  1.0000
  C   C34       1.0  0.34683  0.17481  0.87213  1.0000
  C   C35       1.0  0.74508  0.85518  0.07219  1.0000
  C   C36       1.0  0.25492  0.14482  0.92781  1.0000
  S   S1        1.0  0.24880  0.57940  0.44900  1.0000
  S   S2        1.0  0.75120  0.42060  0.55100  1.0000
  S   S3        1.0  0.08084  0.73554  0.59104  1.0000
  S   S4        1.0  0.91916  0.26446  0.40896  1.0000
  S   S5        1.0  0.01138  0.26733  0.04493  1.0000
  S   S6        1.0  0.98862  0.73267  0.95508  1.0000
  S   S7        1.0  0.72876  0.03080  0.92172  1.0000
  S   S8        1.0  0.27124  0.96920  0.07828  1.0000
  S   S9        1.0  0.57325  0.89011  0.27390  1.0000
  S   S10       1.0  0.42674  0.10988  0.72610  1.0000
  N   N1        1.0  0.84748  0.60094  0.42425  1.0000
  N   N2        1.0  0.15252  0.39906  0.57575  1.0000
  N   N3        1.0  0.87854  0.95781  0.08816  1.0000
  N   N4        1.0  0.12146  0.04219  0.91185  1.0000
  O   O1        1.0  0.45294  0.78275  0.59135  1.0000
  O   O2        1.0  0.54707  0.21725  0.40865  1.0000
  O   O3        1.0  0.29027  0.90498  0.50404  1.0000
  O   O4        1.0  0.70973  0.09502  0.49596  1.0000
  O   O5        1.0  0.76941  0.34725  0.91166  1.0000
  O   O6        1.0  0.23060  0.65276  0.08834  1.0000
  O   O7        1.0  0.64653  0.30859  0.01823  1.0000
  O   O8        1.0  0.35347  0.69142  0.98177  1.0000
