data_image0
_chemical_formula_structural       Ag2H78C40O4
_chemical_formula_sum              "Ag2 H78 C40 O4"
_cell_length_a       4.00011
_cell_length_b       4.5329
_cell_length_c       53.269
_cell_angle_alpha    89.4976
_cell_angle_beta     86.2429
_cell_angle_gamma    79.0746

_space_group_name_H-M_alt    "P 1"
_space_group_IT_number       1

loop_
  _space_group_symop_operation_xyz
  'x, y, z'

loop_
  _atom_site_type_symbol
  _atom_site_label
  _atom_site_symmetry_multiplicity
  _atom_site_fract_x
  _atom_site_fract_y
  _atom_site_fract_z
  _atom_site_occupancy
  Ag  Ag1       1.0  0.74511  0.17925  0.01399  1.0000
  Ag  Ag2       1.0  0.25488  0.82080  0.98601  1.0000
  H   H1        1.0  0.08224  0.38733  0.07290  1.0000
  H   H2        1.0  0.91770  0.61270  0.92710  1.0000
  H   H3        1.0  0.51284  0.36641  0.06312  1.0000
  H   H4        1.0  0.48710  0.63359  0.93688  1.0000
  H   H5        1.0  0.50877  0.85615  0.08575  1.0000
  H   H6        1.0  0.49120  0.14384  0.91425  1.0000
  H   H7        1.0  0.08038  0.86595  0.09657  1.0000
  H   H8        1.0  0.91959  0.13405  0.90343  1.0000
  H   H9        1.0  0.25436  0.37064  0.11839  1.0000
  H   H10       1.0  0.74563  0.62935  0.88161  1.0000
  H   H11       1.0  0.67957  0.35637  0.10718  1.0000
  H   H12       1.0  0.32040  0.64362  0.89282  1.0000
  H   H13       1.0  0.26718  0.84549  0.14234  1.0000
  H   H14       1.0  0.73280  0.15449  0.85766  1.0000
  H   H15       1.0  0.69386  0.82838  0.13120  1.0000
  H   H16       1.0  0.30611  0.17160  0.86880  1.0000
  H   H17       1.0  0.85654  0.32487  0.15210  1.0000
  H   H18       1.0  0.14345  0.67513  0.84790  1.0000
  H   H19       1.0  0.42988  0.34396  0.16327  1.0000
  H   H20       1.0  0.57012  0.65602  0.83673  1.0000
  H   H21       1.0  0.45045  0.81535  0.18745  1.0000
  H   H22       1.0  0.54952  0.18464  0.81256  1.0000
  H   H23       1.0  0.87901  0.79185  0.17656  1.0000
  H   H24       1.0  0.12096  0.20815  0.82344  1.0000
  H   H25       1.0  0.03138  0.28887  0.19760  1.0000
  H   H26       1.0  0.96859  0.71111  0.80240  1.0000
  H   H27       1.0  0.60254  0.31167  0.20837  1.0000
  H   H28       1.0  0.39745  0.68834  0.79163  1.0000
  H   H29       1.0  0.62444  0.78335  0.23255  1.0000
  H   H30       1.0  0.37559  0.21665  0.76745  1.0000
  H   H31       1.0  0.05516  0.75502  0.22208  1.0000
  H   H32       1.0  0.94486  0.24498  0.77792  1.0000
  H   H33       1.0  0.19763  0.25322  0.24345  1.0000
  H   H34       1.0  0.80242  0.74678  0.75655  1.0000
  H   H35       1.0  0.76654  0.28050  0.25379  1.0000
  H   H36       1.0  0.23350  0.71950  0.74621  1.0000
  H   H37       1.0  0.78952  0.75177  0.27797  1.0000
  H   H38       1.0  0.21053  0.24824  0.72203  1.0000
  H   H39       1.0  0.22194  0.71992  0.26786  1.0000
  H   H40       1.0  0.77810  0.28008  0.73214  1.0000
  H   H41       1.0  0.35601  0.21804  0.28932  1.0000
  H   H42       1.0  0.64403  0.78196  0.71068  1.0000
  H   H43       1.0  0.92351  0.24928  0.29937  1.0000
  H   H44       1.0  0.07652  0.75072  0.70062  1.0000
  H   H45       1.0  0.94813  0.71841  0.32369  1.0000
  H   H46       1.0  0.05188  0.28160  0.67631  1.0000
  H   H47       1.0  0.38111  0.68565  0.31370  1.0000
  H   H48       1.0  0.61889  0.31436  0.68630  1.0000
  H   H49       1.0  0.51276  0.18339  0.33512  1.0000
  H   H50       1.0  0.48728  0.81663  0.66487  1.0000
  H   H51       1.0  0.08009  0.21620  0.34518  1.0000
  H   H52       1.0  0.91997  0.78379  0.65482  1.0000
  H   H53       1.0  0.10546  0.68211  0.36966  1.0000
  H   H54       1.0  0.89456  0.31789  0.63034  1.0000
  H   H55       1.0  0.53679  0.65402  0.35935  1.0000
  H   H56       1.0  0.46324  0.34598  0.64065  1.0000
  H   H57       1.0  0.67921  0.15245  0.38055  1.0000
  H   H58       1.0  0.32083  0.84755  0.61945  1.0000
  H   H59       1.0  0.24807  0.17730  0.39075  1.0000
  H   H60       1.0  0.75196  0.82269  0.60925  1.0000
  H   H61       1.0  0.26321  0.64105  0.41561  1.0000
  H   H62       1.0  0.73679  0.35893  0.58439  1.0000
  H   H63       1.0  0.69138  0.62601  0.40496  1.0000
  H   H64       1.0  0.30862  0.37398  0.59504  1.0000
  H   H65       1.0  0.85655  0.12539  0.42570  1.0000
  H   H66       1.0  0.14345  0.87460  0.57430  1.0000
  H   H67       1.0  0.42870  0.13283  0.43599  1.0000
  H   H68       1.0  0.57129  0.86716  0.56401  1.0000
  H   H69       1.0  0.42243  0.59538  0.46147  1.0000
  H   H70       1.0  0.57754  0.40462  0.53854  1.0000
  H   H71       1.0  0.84582  0.59974  0.45064  1.0000
  H   H72       1.0  0.15415  0.40026  0.54936  1.0000
  H   H73       1.0  0.04068  0.09729  0.47121  1.0000
  H   H74       1.0  0.95930  0.90271  0.52879  1.0000
  H   H75       1.0  0.61436  0.09038  0.48199  1.0000
  H   H76       1.0  0.38562  0.90961  0.51801  1.0000
  H   H77       1.0  0.82510  0.36625  0.49358  1.0000
  H   H78       1.0  0.17488  0.63374  0.50642  1.0000
  C   C1        1.0  0.16415  0.70462  0.04506  1.0000
  C   C2        1.0  0.83583  0.29543  0.95494  1.0000
  C   C3        1.0  0.27607  0.52607  0.06823  1.0000
  C   C4        1.0  0.72387  0.47395  0.93177  1.0000
  C   C5        1.0  0.32186  0.71324  0.09102  1.0000
  C   C6        1.0  0.67811  0.28676  0.90898  1.0000
  C   C7        1.0  0.44215  0.51354  0.11316  1.0000
  C   C8        1.0  0.55785  0.48644  0.88684  1.0000
  C   C9        1.0  0.50352  0.68749  0.13627  1.0000
  C   C10       1.0  0.49646  0.31250  0.86373  1.0000
  C   C11       1.0  0.62127  0.48398  0.15823  1.0000
  C   C12       1.0  0.37872  0.51601  0.84177  1.0000
  C   C13       1.0  0.68485  0.65419  0.18149  1.0000
  C   C14       1.0  0.31512  0.34580  0.81851  1.0000
  C   C15       1.0  0.79659  0.44971  0.20352  1.0000
  C   C16       1.0  0.20340  0.55028  0.79648  1.0000
  C   C17       1.0  0.85815  0.61982  0.22686  1.0000
  C   C18       1.0  0.14190  0.38016  0.77314  1.0000
  C   C19       1.0  0.96331  0.41623  0.24909  1.0000
  C   C20       1.0  0.03675  0.58378  0.75091  1.0000
  C   C21       1.0  0.02264  0.58659  0.27248  1.0000
  C   C22       1.0  0.97740  0.41342  0.72752  1.0000
  C   C23       1.0  0.12262  0.38292  0.29481  1.0000
  C   C24       1.0  0.87739  0.61709  0.70519  1.0000
  C   C25       1.0  0.18116  0.55280  0.31824  1.0000
  C   C26       1.0  0.81885  0.44722  0.68175  1.0000
  C   C27       1.0  0.27990  0.34903  0.34058  1.0000
  C   C28       1.0  0.72014  0.65097  0.65941  1.0000
  C   C29       1.0  0.33941  0.51877  0.36400  1.0000
  C   C30       1.0  0.66064  0.48122  0.63600  1.0000
  C   C31       1.0  0.44388  0.31430  0.38618  1.0000
  C   C32       1.0  0.55615  0.68569  0.61382  1.0000
  C   C33       1.0  0.50086  0.48406  0.40965  1.0000
  C   C34       1.0  0.49913  0.51594  0.59035  1.0000
  C   C35       1.0  0.61574  0.27884  0.43157  1.0000
  C   C36       1.0  0.38423  0.72116  0.56843  1.0000
  C   C37       1.0  0.66566  0.44817  0.45526  1.0000
  C   C38       1.0  0.33431  0.55183  0.54474  1.0000
  C   C39       1.0  0.79303  0.24028  0.47669  1.0000
  C   C40       1.0  0.20694  0.75972  0.52331  1.0000
  O   O1        1.0  0.30316  0.60102  0.02368  1.0000
  O   O2        1.0  0.69686  0.39906  0.97632  1.0000
  O   O3        1.0  0.93622  0.94006  0.04778  1.0000
  O   O4        1.0  0.06376  0.05998  0.95222  1.0000
