data_image0
_chemical_formula_structural       H36Pb2C56N4O8
_chemical_formula_sum              "H36 Pb2 C56 N4 O8"
_cell_length_a       8.12249
_cell_length_b       10.8691
_cell_length_c       12.7719
_cell_angle_alpha    89.4128
_cell_angle_beta     84.7676
_cell_angle_gamma    85.1855

_space_group_name_H-M_alt    "P 1"
_space_group_IT_number       1

loop_
  _space_group_symop_operation_xyz
  'x, y, z'

loop_
  _atom_site_type_symbol
  _atom_site_label
  _atom_site_symmetry_multiplicity
  _atom_site_fract_x
  _atom_site_fract_y
  _atom_site_fract_z
  _atom_site_occupancy
  H   H1        1.0  0.46515  0.86797  0.47087  1.0000
  H   H2        1.0  0.53484  0.13202  0.52913  1.0000
  H   H3        1.0  0.90785  0.04773  0.10466  1.0000
  H   H4        1.0  0.09219  0.95230  0.89535  1.0000
  H   H5        1.0  0.31677  0.30576  0.35703  1.0000
  H   H6        1.0  0.68329  0.69426  0.64296  1.0000
  H   H7        1.0  0.16306  0.50219  0.42571  1.0000
  H   H8        1.0  0.83703  0.49785  0.57429  1.0000
  H   H9        1.0  0.44877  0.17534  0.87605  1.0000
  H   H10       1.0  0.55118  0.82464  0.12394  1.0000
  H   H11       1.0  0.37190  0.31486  0.73285  1.0000
  H   H12       1.0  0.62808  0.68515  0.26716  1.0000
  H   H13       1.0  0.17371  0.69914  0.92173  1.0000
  H   H14       1.0  0.82625  0.30087  0.07827  1.0000
  H   H15       1.0  0.11019  0.74544  0.10674  1.0000
  H   H16       1.0  0.88977  0.25453  0.89326  1.0000
  H   H17       1.0  0.47364  0.48138  0.65177  1.0000
  H   H18       1.0  0.52635  0.51864  0.34824  1.0000
  H   H19       1.0  0.43198  0.62141  0.50119  1.0000
  H   H20       1.0  0.56800  0.37858  0.49881  1.0000
  H   H21       1.0  0.18756  0.77760  0.50828  1.0000
  H   H22       1.0  0.81247  0.22242  0.49173  1.0000
  H   H23       1.0  0.98554  0.78886  0.66849  1.0000
  H   H24       1.0  0.01450  0.21118  0.33151  1.0000
  H   H25       1.0  0.02437  0.64892  0.81579  1.0000
  H   H26       1.0  0.97561  0.35110  0.18421  1.0000
  H   H27       1.0  0.25213  0.82193  0.24301  1.0000
  H   H28       1.0  0.74787  0.17805  0.75699  1.0000
  H   H29       1.0  0.10771  0.01208  0.31897  1.0000
  H   H30       1.0  0.89234  0.98790  0.68106  1.0000
  H   H31       1.0  0.84729  0.00359  0.43891  1.0000
  H   H32       1.0  0.15273  0.99641  0.56109  1.0000
  H   H33       1.0  0.73661  0.80213  0.48251  1.0000
  H   H34       1.0  0.26338  0.19788  0.51748  1.0000
  H   H35       1.0  0.87890  0.60899  0.40172  1.0000
  H   H36       1.0  0.12108  0.39102  0.59827  1.0000
  Pb  Pb1       1.0  0.47748  0.14485  0.14338  1.0000
  Pb  Pb2       1.0  0.52256  0.85501  0.85657  1.0000
  C   C1        1.0  0.46991  0.01657  0.35155  1.0000
  C   C2        1.0  0.53006  0.98343  0.64846  1.0000
  C   C3        1.0  0.48204  0.96592  0.45966  1.0000
  C   C4        1.0  0.51793  0.03407  0.54034  1.0000
  C   C5        1.0  0.18039  0.04698  0.07619  1.0000
  C   C6        1.0  0.81963  0.95302  0.92381  1.0000
  C   C7        1.0  0.01265  0.02296  0.04689  1.0000
  C   C8        1.0  0.98738  0.97706  0.95311  1.0000
  C   C9        1.0  0.27996  0.37994  0.30383  1.0000
  C   C10       1.0  0.72008  0.62006  0.69617  1.0000
  C   C11       1.0  0.19524  0.49027  0.34150  1.0000
  C   C12       1.0  0.80476  0.50973  0.65849  1.0000
  C   C13       1.0  0.15793  0.58591  0.27249  1.0000
  C   C14       1.0  0.84206  0.41408  0.72751  1.0000
  C   C15       1.0  0.20079  0.56470  0.16280  1.0000
  C   C16       1.0  0.79918  0.43530  0.83721  1.0000
  C   C17       1.0  0.27855  0.44685  0.13133  1.0000
  C   C18       1.0  0.72144  0.55317  0.86867  1.0000
  C   C19       1.0  0.30824  0.41683  0.02045  1.0000
  C   C20       1.0  0.69174  0.58319  0.97954  1.0000
  C   C21       1.0  0.39682  0.26928  0.89416  1.0000
  C   C22       1.0  0.60314  0.73070  0.10585  1.0000
  C   C23       1.0  0.35483  0.35010  0.81295  1.0000
  C   C24       1.0  0.64513  0.64989  0.18705  1.0000
  C   C25       1.0  0.28989  0.47092  0.83492  1.0000
  C   C26       1.0  0.71013  0.52909  0.16508  1.0000
  C   C27       1.0  0.26498  0.50684  0.94331  1.0000
  C   C28       1.0  0.73501  0.49315  0.05667  1.0000
  C   C29       1.0  0.19964  0.62715  0.97900  1.0000
  C   C30       1.0  0.80029  0.37284  0.02101  1.0000
  C   C31       1.0  0.16543  0.65404  0.08336  1.0000
  C   C32       1.0  0.83453  0.34596  0.91664  1.0000
  C   C33       1.0  0.25539  0.55573  0.74673  1.0000
  C   C34       1.0  0.74462  0.44426  0.25326  1.0000
  C   C35       1.0  0.36537  0.54794  0.65475  1.0000
  C   C36       1.0  0.63462  0.45207  0.34524  1.0000
  C   C37       1.0  0.34205  0.62720  0.57014  1.0000
  C   C38       1.0  0.65795  0.37282  0.42986  1.0000
  C   C39       1.0  0.20635  0.71550  0.57442  1.0000
  C   C40       1.0  0.79366  0.28452  0.42560  1.0000
  C   C41       1.0  0.09395  0.72240  0.66385  1.0000
  C   C42       1.0  0.90603  0.27760  0.33616  1.0000
  C   C43       1.0  0.11773  0.64351  0.74893  1.0000
  C   C44       1.0  0.88227  0.35649  0.25106  1.0000
  C   C45       1.0  0.07236  0.70235  0.31482  1.0000
  C   C46       1.0  0.92763  0.29765  0.68518  1.0000
  C   C47       1.0  0.13608  0.81671  0.29226  1.0000
  C   C48       1.0  0.86393  0.18328  0.70776  1.0000
  C   C49       1.0  0.05596  0.92441  0.33752  1.0000
  C   C50       1.0  0.94405  0.07558  0.66248  1.0000
  C   C51       1.0  0.91120  0.91934  0.40473  1.0000
  C   C52       1.0  0.08883  0.08065  0.59528  1.0000
  C   C53       1.0  0.84816  0.80576  0.42866  1.0000
  C   C54       1.0  0.15185  0.19424  0.57136  1.0000
  C   C55       1.0  0.92842  0.69791  0.38422  1.0000
  C   C56       1.0  0.07156  0.30210  0.61577  1.0000
  N   N1        1.0  0.32197  0.35858  0.20215  1.0000
  N   N2        1.0  0.67806  0.64142  0.79785  1.0000
  N   N3        1.0  0.37432  0.30121  0.99495  1.0000
  N   N4        1.0  0.62568  0.69881  0.00505  1.0000
  O   O1        1.0  0.44464  0.13411  0.34127  1.0000
  O   O2        1.0  0.55531  0.86588  0.65874  1.0000
  O   O3        1.0  0.48724  0.94164  0.27486  1.0000
  O   O4        1.0  0.51274  0.05836  0.72514  1.0000
  O   O5        1.0  0.18380  0.12010  0.15453  1.0000
  O   O6        1.0  0.81622  0.87988  0.84549  1.0000
  O   O7        1.0  0.31073  0.99966  0.02464  1.0000
  O   O8        1.0  0.68930  0.00036  0.97536  1.0000
