data_image0
_chemical_formula_structural       Fe2H32C32S4N20
_chemical_formula_sum              "Fe2 H32 C32 S4 N20"
_cell_length_a       9.13571
_cell_length_b       9.02751
_cell_length_c       13.5346
_cell_angle_alpha    89.9989
_cell_angle_beta     90.002
_cell_angle_gamma    120.397

_space_group_name_H-M_alt    "P 1"
_space_group_IT_number       1

loop_
  _space_group_symop_operation_xyz
  'x, y, z'

loop_
  _atom_site_type_symbol
  _atom_site_label
  _atom_site_symmetry_multiplicity
  _atom_site_fract_x
  _atom_site_fract_y
  _atom_site_fract_z
  _atom_site_occupancy
  Fe  Fe1       1.0  0.99971  0.00000  0.00000  1.0000
  Fe  Fe2       1.0  0.50038  1.00000  0.50000  1.0000
  H   H1        1.0  0.72222  0.05486  0.13422  1.0000
  H   H2        1.0  0.77777  0.94513  0.63422  1.0000
  H   H3        1.0  0.83264  0.05487  0.36578  1.0000
  H   H4        1.0  0.66736  0.94512  0.86578  1.0000
  H   H5        1.0  0.27778  0.94518  0.86577  1.0000
  H   H6        1.0  0.22223  0.05483  0.36577  1.0000
  H   H7        1.0  0.16741  0.94518  0.63423  1.0000
  H   H8        1.0  0.33260  0.05483  0.13422  1.0000
  H   H9        1.0  0.68307  0.59365  0.03106  1.0000
  H   H10       1.0  0.81689  0.40632  0.53105  1.0000
  H   H11       1.0  0.41058  0.59366  0.46894  1.0000
  H   H12       1.0  0.08944  0.40633  0.96895  1.0000
  H   H13       1.0  0.31698  0.40640  0.96892  1.0000
  H   H14       1.0  0.18304  0.59361  0.46892  1.0000
  H   H15       1.0  0.58942  0.40641  0.53109  1.0000
  H   H16       1.0  0.91056  0.59361  0.03107  1.0000
  H   H17       1.0  0.40253  0.51325  0.14816  1.0000
  H   H18       1.0  0.09743  0.48674  0.64815  1.0000
  H   H19       1.0  0.61071  0.51326  0.35184  1.0000
  H   H20       1.0  0.88931  0.48674  0.85184  1.0000
  H   H21       1.0  0.59754  0.48679  0.85182  1.0000
  H   H22       1.0  0.90246  0.51321  0.35182  1.0000
  H   H23       1.0  0.38924  0.48680  0.64818  1.0000
  H   H24       1.0  0.11073  0.51322  0.14817  1.0000
  H   H25       1.0  0.35287  0.70571  0.27120  1.0000
  H   H26       1.0  0.14712  0.29429  0.77120  1.0000
  H   H27       1.0  0.85283  0.70571  0.22880  1.0000
  H   H28       1.0  0.64718  0.29430  0.72880  1.0000
  H   H29       1.0  0.46644  0.93287  0.25110  1.0000
  H   H30       1.0  0.03356  0.06713  0.75110  1.0000
  H   H31       1.0  0.96643  0.93287  0.24890  1.0000
  H   H32       1.0  0.53357  0.06713  0.74890  1.0000
  C   C1        1.0  0.67676  0.91976  0.12044  1.0000
  C   C2        1.0  0.82323  0.08022  0.62044  1.0000
  C   C3        1.0  0.74301  0.91977  0.37956  1.0000
  C   C4        1.0  0.75699  0.08022  0.87956  1.0000
  C   C5        1.0  0.32327  0.08029  0.87954  1.0000
  C   C6        1.0  0.17674  0.91971  0.37954  1.0000
  C   C7        1.0  0.25703  0.08030  0.62045  1.0000
  C   C8        1.0  0.24298  0.91972  0.12045  1.0000
  C   C9        1.0  0.65043  0.67782  0.06960  1.0000
  C   C10       1.0  0.84953  0.32215  0.56959  1.0000
  C   C11       1.0  0.52739  0.67784  0.43040  1.0000
  C   C12       1.0  0.97262  0.32216  0.93040  1.0000
  C   C13       1.0  0.34964  0.32225  0.93037  1.0000
  C   C14       1.0  0.15037  0.67775  0.43037  1.0000
  C   C15       1.0  0.47261  0.32226  0.56963  1.0000
  C   C16       1.0  0.02737  0.67776  0.06963  1.0000
  C   C17       1.0  0.50873  0.63554  0.12484  1.0000
  C   C18       1.0  0.99123  0.36444  0.62483  1.0000
  C   C19       1.0  0.62680  0.63555  0.37517  1.0000
  C   C20       1.0  0.87321  0.36445  0.87517  1.0000
  C   C21       1.0  0.49135  0.36451  0.87515  1.0000
  C   C22       1.0  0.00866  0.63549  0.37516  1.0000
  C   C23       1.0  0.37316  0.36452  0.62485  1.0000
  C   C24       1.0  0.12682  0.63550  0.12484  1.0000
  C   C25       1.0  0.40362  0.80722  0.21510  1.0000
  C   C26       1.0  0.09637  0.19279  0.71510  1.0000
  C   C27       1.0  0.90359  0.80722  0.28490  1.0000
  C   C28       1.0  0.59641  0.19278  0.78490  1.0000
  C   C29       1.0  0.11168  0.22344  0.18804  1.0000
  C   C30       1.0  0.38833  0.77656  0.68804  1.0000
  C   C31       1.0  0.61177  0.22344  0.31196  1.0000
  C   C32       1.0  0.88824  0.77656  0.81196  1.0000
  S   S1        1.0  0.15975  0.31947  0.29496  1.0000
  S   S2        1.0  0.34024  0.68054  0.79496  1.0000
  S   S3        1.0  0.65970  0.31946  0.20504  1.0000
  S   S4        1.0  0.84030  0.68054  0.70504  1.0000
  N   N1        1.0  0.52685  0.78964  0.15625  1.0000
  N   N2        1.0  0.97314  0.21036  0.65625  1.0000
  N   N3        1.0  0.76279  0.78965  0.34375  1.0000
  N   N4        1.0  0.73721  0.21035  0.84375  1.0000
  N   N5        1.0  0.47321  0.21039  0.84375  1.0000
  N   N6        1.0  0.02680  0.78961  0.34375  1.0000
  N   N7        1.0  0.23718  0.21040  0.65625  1.0000
  N   N8        1.0  0.26280  0.78961  0.15625  1.0000
  N   N9        1.0  0.75450  0.85432  0.06842  1.0000
  N   N10       1.0  0.74547  0.14564  0.56841  1.0000
  N   N11       1.0  0.59983  0.85435  0.43159  1.0000
  N   N12       1.0  0.90018  0.14565  0.93159  1.0000
  N   N13       1.0  0.24557  0.14579  0.93154  1.0000
  N   N14       1.0  0.25444  0.85422  0.43153  1.0000
  N   N15       1.0  0.40021  0.14580  0.56847  1.0000
  N   N16       1.0  0.09979  0.85424  0.06846  1.0000
  N   N17       1.0  0.07553  0.15127  0.11059  1.0000
  N   N18       1.0  0.42450  0.84873  0.61058  1.0000
  N   N19       1.0  0.57576  0.15126  0.38942  1.0000
  N   N20       1.0  0.92426  0.84873  0.88941  1.0000
