data_image0
_chemical_formula_structural       Cd2H56C40N20O12
_chemical_formula_sum              "Cd2 H56 C40 N20 O12"
_cell_length_a       8.13193
_cell_length_b       9.03875
_cell_length_c       17.6572
_cell_angle_alpha    89.9998
_cell_angle_beta     89.9998
_cell_angle_gamma    110.855

_space_group_name_H-M_alt    "P 1"
_space_group_IT_number       1

loop_
  _space_group_symop_operation_xyz
  'x, y, z'

loop_
  _atom_site_type_symbol
  _atom_site_label
  _atom_site_symmetry_multiplicity
  _atom_site_fract_x
  _atom_site_fract_y
  _atom_site_fract_z
  _atom_site_occupancy
  Cd  Cd1       1.0  1.00000  0.50000  0.50000  1.0000
  Cd  Cd2       1.0  1.00000  1.00000  0.00000  1.0000
  H   H1        1.0  0.68400  0.59479  0.60151  1.0000
  H   H2        1.0  0.31600  0.90521  0.10151  1.0000
  H   H3        1.0  0.31600  0.40522  0.39849  1.0000
  H   H4        1.0  0.68400  0.09478  0.89849  1.0000
  H   H5        1.0  0.17394  0.60109  0.68329  1.0000
  H   H6        1.0  0.82605  0.89891  0.18329  1.0000
  H   H7        1.0  0.82606  0.39892  0.31671  1.0000
  H   H8        1.0  0.17395  0.10109  0.81671  1.0000
  H   H9        1.0  0.01151  0.72613  0.79414  1.0000
  H   H10       1.0  0.98849  0.77388  0.29415  1.0000
  H   H11       1.0  0.98848  0.27388  0.20586  1.0000
  H   H12       1.0  0.01152  0.22612  0.70586  1.0000
  H   H13       1.0  0.30820  0.85219  0.92973  1.0000
  H   H14       1.0  0.69180  0.64781  0.42972  1.0000
  H   H15       1.0  0.69180  0.14781  0.07028  1.0000
  H   H16       1.0  0.30821  0.35219  0.57028  1.0000
  H   H17       1.0  0.76270  0.61079  0.95360  1.0000
  H   H18       1.0  0.23730  0.88921  0.45360  1.0000
  H   H19       1.0  0.23730  0.38920  0.04640  1.0000
  H   H20       1.0  0.76270  0.11079  0.54640  1.0000
  H   H21       1.0  0.91307  0.40110  0.89692  1.0000
  H   H22       1.0  0.08693  0.09890  0.39692  1.0000
  H   H23       1.0  0.08693  0.59890  0.10308  1.0000
  H   H24       1.0  0.91308  0.90110  0.60308  1.0000
  H   H25       1.0  0.21274  0.43909  0.84501  1.0000
  H   H26       1.0  0.78726  0.06091  0.34501  1.0000
  H   H27       1.0  0.78726  0.56090  0.15500  1.0000
  H   H28       1.0  0.21274  0.93909  0.65499  1.0000
  H   H29       1.0  0.34595  0.51322  0.92654  1.0000
  H   H30       1.0  0.65404  0.98678  0.42654  1.0000
  H   H31       1.0  0.65405  0.48678  0.07346  1.0000
  H   H32       1.0  0.34596  0.01321  0.57346  1.0000
  H   H33       1.0  0.49866  0.76815  0.86522  1.0000
  H   H34       1.0  0.50135  0.73185  0.36522  1.0000
  H   H35       1.0  0.50134  0.23185  0.13478  1.0000
  H   H36       1.0  0.49866  0.26814  0.63478  1.0000
  H   H37       1.0  0.35468  0.71608  0.78623  1.0000
  H   H38       1.0  0.64532  0.78393  0.28623  1.0000
  H   H39       1.0  0.64531  0.28392  0.21377  1.0000
  H   H40       1.0  0.35469  0.21608  0.71377  1.0000
  H   H41       1.0  0.60890  0.54848  0.83226  1.0000
  H   H42       1.0  0.39110  0.95152  0.33226  1.0000
  H   H43       1.0  0.39110  0.45152  0.16774  1.0000
  H   H44       1.0  0.60890  0.04847  0.66774  1.0000
  H   H45       1.0  0.47113  0.50444  0.75103  1.0000
  H   H46       1.0  0.52887  0.99557  0.25103  1.0000
  H   H47       1.0  0.52887  0.49557  0.24897  1.0000
  H   H48       1.0  0.47113  0.00443  0.74897  1.0000
  H   H49       1.0  0.62014  0.77521  0.70075  1.0000
  H   H50       1.0  0.37986  0.72479  0.20075  1.0000
  H   H51       1.0  0.37986  0.22479  0.29925  1.0000
  H   H52       1.0  0.62014  0.27521  0.79925  1.0000
  H   H53       1.0  0.75718  0.82809  0.78270  1.0000
  H   H54       1.0  0.24283  0.67191  0.28270  1.0000
  H   H55       1.0  0.24282  0.17191  0.21730  1.0000
  H   H56       1.0  0.75718  0.32809  0.71730  1.0000
  C   C1        1.0  0.79731  0.61143  0.63743  1.0000
  C   C2        1.0  0.20269  0.88857  0.13743  1.0000
  C   C3        1.0  0.20269  0.38858  0.36257  1.0000
  C   C4        1.0  0.79731  0.11142  0.86257  1.0000
  C   C5        1.0  0.04782  0.61687  0.68340  1.0000
  C   C6        1.0  0.95218  0.88313  0.18341  1.0000
  C   C7        1.0  0.95218  0.38314  0.31659  1.0000
  C   C8        1.0  0.04783  0.11686  0.81660  1.0000
  C   C9        1.0  0.97041  0.67920  0.73803  1.0000
  C   C10       1.0  0.02958  0.82080  0.23804  1.0000
  C   C11       1.0  0.02958  0.32081  0.26197  1.0000
  C   C12       1.0  0.97042  0.17920  0.76196  1.0000
  C   C13       1.0  0.18076  0.75787  0.93009  1.0000
  C   C14       1.0  0.81924  0.74212  0.43009  1.0000
  C   C15       1.0  0.81924  0.24212  0.06991  1.0000
  C   C16       1.0  0.18077  0.25788  0.56991  1.0000
  C   C17       1.0  0.89852  0.62942  0.94021  1.0000
  C   C18       1.0  0.10148  0.87058  0.44021  1.0000
  C   C19       1.0  0.10148  0.37058  0.05979  1.0000
  C   C20       1.0  0.89852  0.12942  0.55979  1.0000
  C   C21       1.0  0.97122  0.52502  0.91179  1.0000
  C   C22       1.0  0.02877  0.97498  0.41179  1.0000
  C   C23       1.0  0.02878  0.47498  0.08821  1.0000
  C   C24       1.0  0.97123  0.02502  0.58821  1.0000
  C   C25       1.0  0.28275  0.54654  0.87770  1.0000
  C   C26       1.0  0.71725  0.95347  0.37770  1.0000
  C   C27       1.0  0.71725  0.45346  0.12230  1.0000
  C   C28       1.0  0.28276  0.04653  0.62231  1.0000
  C   C29       1.0  0.42076  0.66847  0.82919  1.0000
  C   C30       1.0  0.57924  0.83154  0.32919  1.0000
  C   C31       1.0  0.57924  0.33153  0.17081  1.0000
  C   C32       1.0  0.42076  0.16846  0.67081  1.0000
  C   C33       1.0  0.54508  0.59982  0.79014  1.0000
  C   C34       1.0  0.45492  0.90018  0.29014  1.0000
  C   C35       1.0  0.45492  0.40018  0.20986  1.0000
  C   C36       1.0  0.54508  0.09982  0.70986  1.0000
  C   C37       1.0  0.68352  0.72974  0.74530  1.0000
  C   C38       1.0  0.31648  0.77026  0.24530  1.0000
  C   C39       1.0  0.31647  0.27027  0.25470  1.0000
  C   C40       1.0  0.68353  0.22973  0.75470  1.0000
  N   N1        1.0  0.93875  0.57575  0.62086  1.0000
  N   N2        1.0  0.06125  0.92425  0.12087  1.0000
  N   N3        1.0  0.06125  0.42426  0.37914  1.0000
  N   N4        1.0  0.93875  0.07574  0.87914  1.0000
  N   N5        1.0  0.81211  0.67501  0.70803  1.0000
  N   N6        1.0  0.18789  0.82499  0.20803  1.0000
  N   N7        1.0  0.18789  0.32499  0.29197  1.0000
  N   N8        1.0  0.81211  0.17500  0.79197  1.0000
  N   N9        1.0  0.03073  0.77442  0.95113  1.0000
  N   N10       1.0  0.96927  0.72557  0.45113  1.0000
  N   N11       1.0  0.96927  0.22557  0.04887  1.0000
  N   N12       1.0  0.03073  0.27443  0.54887  1.0000
  N   N13       1.0  0.14969  0.60812  0.90540  1.0000
  N   N14       1.0  0.85031  0.89188  0.40540  1.0000
  N   N15       1.0  0.85031  0.39188  0.09460  1.0000
  N   N16       1.0  0.14970  0.10812  0.59460  1.0000
  N   N17       1.0  0.57321  0.30057  0.44721  1.0000
  N   N18       1.0  0.42679  0.19942  0.94720  1.0000
  N   N19       1.0  0.42679  0.69943  0.55279  1.0000
  N   N20       1.0  0.57321  0.80057  0.05280  1.0000
  O   O1        1.0  0.44563  0.17122  0.44611  1.0000
  O   O2        1.0  0.55437  0.32878  0.94611  1.0000
  O   O3        1.0  0.55438  0.82879  0.55389  1.0000
  O   O4        1.0  0.44562  0.67122  0.05389  1.0000
  O   O5        1.0  0.60071  0.39697  0.39227  1.0000
  O   O6        1.0  0.39928  0.10303  0.89227  1.0000
  O   O7        1.0  0.39929  0.60304  0.60773  1.0000
  O   O8        1.0  0.60072  0.89696  0.10774  1.0000
  O   O9        1.0  0.67568  0.33669  0.50510  1.0000
  O   O10       1.0  0.32432  0.16331  0.00510  1.0000
  O   O11       1.0  0.32432  0.66332  0.49490  1.0000
  O   O12       1.0  0.67568  0.83669  0.99490  1.0000
