data_image0
_chemical_formula_structural       Zn2H44C48N12O16
_chemical_formula_sum              "Zn2 H44 C48 N12 O16"
_cell_length_a       6.61351
_cell_length_b       13.1561
_cell_length_c       15.7521
_cell_angle_alpha    107.78
_cell_angle_beta     102.146
_cell_angle_gamma    104.557

_space_group_name_H-M_alt    "P 1"
_space_group_IT_number       1

loop_
  _space_group_symop_operation_xyz
  'x, y, z'

loop_
  _atom_site_type_symbol
  _atom_site_label
  _atom_site_symmetry_multiplicity
  _atom_site_fract_x
  _atom_site_fract_y
  _atom_site_fract_z
  _atom_site_occupancy
  Zn  Zn1       1.0  0.43401  0.24970  0.24987  1.0000
  Zn  Zn2       1.0  0.56600  0.75030  0.75013  1.0000
  H   H1        1.0  0.94795  0.30468  0.33929  1.0000
  H   H2        1.0  0.80324  0.19480  0.16034  1.0000
  H   H3        1.0  0.05206  0.69532  0.66070  1.0000
  H   H4        1.0  0.19677  0.80519  0.83966  1.0000
  H   H5        1.0  0.61176  0.52018  0.27604  1.0000
  H   H6        1.0  0.31532  0.97918  0.22366  1.0000
  H   H7        1.0  0.38825  0.47983  0.72396  1.0000
  H   H8        1.0  0.68467  0.02081  0.77633  1.0000
  H   H9        1.0  0.06099  0.64025  0.35253  1.0000
  H   H10       1.0  0.56807  0.85927  0.14725  1.0000
  H   H11       1.0  0.93902  0.35976  0.64747  1.0000
  H   H12       1.0  0.43192  0.14072  0.85275  1.0000
  H   H13       1.0  0.34481  0.44131  0.33663  1.0000
  H   H14       1.0  0.06656  0.05820  0.16334  1.0000
  H   H15       1.0  0.65520  0.55869  0.66337  1.0000
  H   H16       1.0  0.93345  0.94179  0.83666  1.0000
  H   H17       1.0  0.38892  0.58714  0.39429  1.0000
  H   H18       1.0  0.90692  0.91240  0.10537  1.0000
  H   H19       1.0  0.61108  0.41287  0.60571  1.0000
  H   H20       1.0  0.09308  0.08759  0.89463  1.0000
  H   H21       1.0  0.28036  0.40909  0.48177  1.0000
  H   H22       1.0  0.88950  0.09087  0.01832  1.0000
  H   H23       1.0  0.71964  0.59091  0.51823  1.0000
  H   H24       1.0  0.11051  0.90912  0.98168  1.0000
  H   H25       1.0  0.34261  0.55704  0.53736  1.0000
  H   H26       1.0  0.74815  0.94296  0.96247  1.0000
  H   H27       1.0  0.65739  0.44296  0.46264  1.0000
  H   H28       1.0  0.25186  0.05704  0.03753  1.0000
  H   H29       1.0  0.91335  0.14158  0.37285  1.0000
  H   H30       1.0  0.89856  0.35837  0.12741  1.0000
  H   H31       1.0  0.08665  0.85843  0.62716  1.0000
  H   H32       1.0  0.10141  0.64163  0.87259  1.0000
  H   H33       1.0  0.71113  0.09538  0.48021  1.0000
  H   H34       1.0  0.63500  0.40487  0.02021  1.0000
  H   H35       1.0  0.28887  0.90462  0.51979  1.0000
  H   H36       1.0  0.36498  0.59513  0.97978  1.0000
  H   H37       1.0  0.32608  0.16555  0.68585  1.0000
  H   H38       1.0  0.97291  0.33444  0.81433  1.0000
  H   H39       1.0  0.67392  0.83445  0.31415  1.0000
  H   H40       1.0  0.02709  0.66557  0.18567  1.0000
  H   H41       1.0  0.52752  0.21253  0.57721  1.0000
  H   H42       1.0  0.23597  0.28708  0.92273  1.0000
  H   H43       1.0  0.47249  0.78747  0.42279  1.0000
  H   H44       1.0  0.76403  0.71292  0.07727  1.0000
  C   C1        1.0  0.91213  0.37842  0.33271  1.0000
  C   C2        1.0  0.70046  0.12106  0.16699  1.0000
  C   C3        1.0  0.08787  0.62158  0.66728  1.0000
  C   C4        1.0  0.29954  0.87894  0.83301  1.0000
  C   C5        1.0  0.74622  0.49296  0.30111  1.0000
  C   C6        1.0  0.45182  0.00643  0.19858  1.0000
  C   C7        1.0  0.25380  0.50705  0.69889  1.0000
  C   C8        1.0  0.54818  0.99357  0.80142  1.0000
  C   C9        1.0  0.96741  0.55320  0.33780  1.0000
  C   C10       1.0  0.57620  0.94628  0.16195  1.0000
  C   C11       1.0  0.03259  0.44681  0.66220  1.0000
  C   C12       1.0  0.42380  0.05371  0.83805  1.0000
  C   C13       1.0  0.30589  0.50185  0.39047  1.0000
  C   C14       1.0  0.91324  0.99777  0.10936  1.0000
  C   C15       1.0  0.69412  0.49816  0.60953  1.0000
  C   C16       1.0  0.08676  0.00223  0.89064  1.0000
  C   C17       1.0  0.37772  0.49233  0.48526  1.0000
  C   C18       1.0  0.90011  0.00761  0.01471  1.0000
  C   C19       1.0  0.62228  0.50767  0.51474  1.0000
  C   C20       1.0  0.09991  0.99239  0.98529  1.0000
  C   C21       1.0  0.36311  0.21239  0.40676  1.0000
  C   C22       1.0  0.24290  0.28731  0.09332  1.0000
  C   C23       1.0  0.63690  0.78762  0.59324  1.0000
  C   C24       1.0  0.75709  0.71269  0.90668  1.0000
  C   C25       1.0  0.23401  0.18200  0.46931  1.0000
  C   C26       1.0  0.08158  0.31777  0.03079  1.0000
  C   C27       1.0  0.76600  0.81800  0.53069  1.0000
  C   C28       1.0  0.91841  0.68223  0.96922  1.0000
  C   C29       1.0  0.00381  0.14798  0.44162  1.0000
  C   C30       1.0  0.91343  0.35192  0.05860  1.0000
  C   C31       1.0  0.99620  0.85202  0.55838  1.0000
  C   C32       1.0  0.08655  0.64808  0.94140  1.0000
  C   C33       1.0  0.88942  0.12133  0.50114  1.0000
  C   C34       1.0  0.76605  0.37869  0.99917  1.0000
  C   C35       1.0  0.11058  0.87868  0.49886  1.0000
  C   C36       1.0  0.23394  0.62131  0.00083  1.0000
  C   C37       1.0  0.00962  0.12964  0.58873  1.0000
  C   C38       1.0  0.78998  0.37044  0.91157  1.0000
  C   C39       1.0  0.99038  0.87036  0.41127  1.0000
  C   C40       1.0  0.21002  0.62956  0.08843  1.0000
  C   C41       1.0  0.23896  0.16251  0.61793  1.0000
  C   C42       1.0  0.95692  0.33742  0.88223  1.0000
  C   C43       1.0  0.76104  0.83749  0.38207  1.0000
  C   C44       1.0  0.04308  0.66259  0.11777  1.0000
  C   C45       1.0  0.34955  0.18839  0.55751  1.0000
  C   C46       1.0  0.10210  0.31135  0.94255  1.0000
  C   C47       1.0  0.65045  0.81161  0.44249  1.0000
  C   C48       1.0  0.89790  0.68865  0.05745  1.0000
  N   N1        1.0  0.06938  0.47950  0.35680  1.0000
  N   N2        1.0  0.73267  0.02003  0.14292  1.0000
  N   N3        1.0  0.93063  0.52050  0.64320  1.0000
  N   N4        1.0  0.26734  0.97996  0.85708  1.0000
  N   N5        1.0  0.71384  0.38384  0.29870  1.0000
  N   N6        1.0  0.53081  0.11557  0.20100  1.0000
  N   N7        1.0  0.28616  0.61617  0.70129  1.0000
  N   N8        1.0  0.46920  0.88443  0.79900  1.0000
  N   N9        1.0  0.89208  0.10184  0.65214  1.0000
  N   N10       1.0  0.63712  0.39869  0.84837  1.0000
  N   N11       1.0  0.10793  0.89816  0.34787  1.0000
  N   N12       1.0  0.36287  0.60131  0.15163  1.0000
  O   O1        1.0  0.24847  0.21378  0.32934  1.0000
  O   O2        1.0  0.20437  0.28574  0.17069  1.0000
  O   O3        1.0  0.75154  0.78622  0.67067  1.0000
  O   O4        1.0  0.79561  0.71426  0.82932  1.0000
  O   O5        1.0  0.56679  0.23569  0.43194  1.0000
  O   O6        1.0  0.39805  0.26401  0.06816  1.0000
  O   O7        1.0  0.43322  0.76431  0.56807  1.0000
  O   O8        1.0  0.60191  0.73598  0.93185  1.0000
  O   O9        1.0  0.00238  0.10968  0.72997  1.0000
  O   O10       1.0  0.66184  0.39125  0.77064  1.0000
  O   O11       1.0  0.99763  0.89032  0.27003  1.0000
  O   O12       1.0  0.33815  0.60876  0.22936  1.0000
  O   O13       1.0  0.68812  0.07206  0.62585  1.0000
  O   O14       1.0  0.48943  0.42855  0.87475  1.0000
  O   O15       1.0  0.31189  0.92794  0.37415  1.0000
  O   O16       1.0  0.51056  0.57145  0.12525  1.0000
