data_image0
_chemical_formula_structural       Li8H20C16O26
_chemical_formula_sum              "Li8 H20 C16 O26"
_cell_length_a       5.46452
_cell_length_b       5.46448
_cell_length_c       24.4347
_cell_angle_alpha    89.9999
_cell_angle_beta     90.0001
_cell_angle_gamma    118.478

_space_group_name_H-M_alt    "P 1"
_space_group_IT_number       1

loop_
  _space_group_symop_operation_xyz
  'x, y, z'

loop_
  _atom_site_type_symbol
  _atom_site_label
  _atom_site_symmetry_multiplicity
  _atom_site_fract_x
  _atom_site_fract_y
  _atom_site_fract_z
  _atom_site_occupancy
  Li  Li1       1.0  0.93981  0.37064  0.80420  1.0000
  Li  Li2       1.0  0.06018  0.62936  0.30420  1.0000
  Li  Li3       1.0  0.37064  0.93982  0.19580  1.0000
  Li  Li4       1.0  0.62936  0.06019  0.69580  1.0000
  Li  Li5       1.0  0.46733  0.03194  0.96698  1.0000
  Li  Li6       1.0  0.53268  0.96806  0.46698  1.0000
  Li  Li7       1.0  0.03195  0.46732  0.03302  1.0000
  Li  Li8       1.0  0.96806  0.53268  0.53302  1.0000
  H   H1        1.0  0.47358  0.28825  0.76938  1.0000
  H   H2        1.0  0.52641  0.71175  0.26938  1.0000
  H   H3        1.0  0.28824  0.47358  0.23062  1.0000
  H   H4        1.0  0.71175  0.52642  0.73062  1.0000
  H   H5        1.0  0.46746  0.93120  0.83499  1.0000
  H   H6        1.0  0.53254  0.06881  0.33499  1.0000
  H   H7        1.0  0.93119  0.46745  0.16501  1.0000
  H   H8        1.0  0.06881  0.53255  0.66501  1.0000
  H   H9        1.0  0.41253  0.52034  0.93853  1.0000
  H   H10       1.0  0.58748  0.47965  0.43853  1.0000
  H   H11       1.0  0.52034  0.41251  0.06147  1.0000
  H   H12       1.0  0.47966  0.58749  0.56147  1.0000
  H   H13       1.0  0.62274  0.63602  0.83937  1.0000
  H   H14       1.0  0.37726  0.36399  0.33937  1.0000
  H   H15       1.0  0.63601  0.62274  0.16063  1.0000
  H   H16       1.0  0.36399  0.37727  0.66063  1.0000
  H   H17       1.0  0.87201  0.67589  0.92617  1.0000
  H   H18       1.0  0.12798  0.32410  0.42617  1.0000
  H   H19       1.0  0.67590  0.87201  0.07383  1.0000
  H   H20       1.0  0.32410  0.12799  0.57383  1.0000
  C   C1        1.0  0.98846  0.10667  0.94096  1.0000
  C   C2        1.0  0.01154  0.89332  0.44097  1.0000
  C   C3        1.0  0.10667  0.98845  0.05903  1.0000
  C   C4        1.0  0.89333  0.01155  0.55904  1.0000
  C   C5        1.0  0.05010  0.93643  0.82549  1.0000
  C   C6        1.0  0.94991  0.06358  0.32549  1.0000
  C   C7        1.0  0.93642  0.05010  0.17451  1.0000
  C   C8        1.0  0.06357  0.94990  0.67451  1.0000
  C   C9        1.0  0.77126  0.84608  0.85406  1.0000
  C   C10       1.0  0.22874  0.15392  0.35406  1.0000
  C   C11       1.0  0.84608  0.77126  0.14594  1.0000
  C   C12       1.0  0.15393  0.22875  0.64594  1.0000
  C   C13       1.0  0.79024  0.82116  0.91727  1.0000
  C   C14       1.0  0.20976  0.17884  0.41727  1.0000
  C   C15       1.0  0.82116  0.79024  0.08273  1.0000
  C   C16       1.0  0.17884  0.20977  0.58273  1.0000
  O   O1        1.0  0.17134  0.17789  0.80432  1.0000
  O   O2        1.0  0.82865  0.82212  0.30432  1.0000
  O   O3        1.0  0.17788  0.17134  0.19568  1.0000
  O   O4        1.0  0.82212  0.82865  0.69568  1.0000
  O   O5        1.0  0.65459  0.34541  0.75000  1.0000
  O   O6        1.0  0.34540  0.65459  0.25000  1.0000
  O   O7        1.0  0.14223  0.76135  0.82527  1.0000
  O   O8        1.0  0.85776  0.23866  0.32527  1.0000
  O   O9        1.0  0.76134  0.14223  0.17473  1.0000
  O   O10       1.0  0.23866  0.85776  0.67473  1.0000
  O   O11       1.0  0.67434  0.03822  0.84198  1.0000
  O   O12       1.0  0.32566  0.96178  0.34198  1.0000
  O   O13       1.0  0.03821  0.67433  0.15802  1.0000
  O   O14       1.0  0.96178  0.32566  0.65802  1.0000
  O   O15       1.0  0.52394  0.73070  0.94073  1.0000
  O   O16       1.0  0.47606  0.26930  0.44073  1.0000
  O   O17       1.0  0.73069  0.52393  0.05927  1.0000
  O   O18       1.0  0.26931  0.47606  0.55927  1.0000
  O   O19       1.0  0.24792  0.19395  0.93350  1.0000
  O   O20       1.0  0.75209  0.80604  0.43350  1.0000
  O   O21       1.0  0.19396  0.24791  0.06650  1.0000
  O   O22       1.0  0.80605  0.75210  0.56650  1.0000
  O   O23       1.0  0.88447  0.24027  0.96561  1.0000
  O   O24       1.0  0.11554  0.75972  0.46561  1.0000
  O   O25       1.0  0.24029  0.88446  0.03439  1.0000
  O   O26       1.0  0.75972  0.11555  0.53440  1.0000
