data_image0
_chemical_formula_structural       Cd2H42C34S4N16
_chemical_formula_sum              "Cd2 H42 C34 S4 N16"
_cell_length_a       8.59183
_cell_length_b       8.77483
_cell_length_c       14.6378
_cell_angle_alpha    105.752
_cell_angle_beta     103.445
_cell_angle_gamma    91.9294

_space_group_name_H-M_alt    "P 1"
_space_group_IT_number       1

loop_
  _space_group_symop_operation_xyz
  'x, y, z'

loop_
  _atom_site_type_symbol
  _atom_site_label
  _atom_site_symmetry_multiplicity
  _atom_site_fract_x
  _atom_site_fract_y
  _atom_site_fract_z
  _atom_site_occupancy
  Cd  Cd1       1.0  0.92615  0.05931  0.69328  1.0000
  Cd  Cd2       1.0  0.07385  0.94068  0.30672  1.0000
  H   H1        1.0  0.80288  0.40815  0.79638  1.0000
  H   H2        1.0  0.19711  0.59185  0.20362  1.0000
  H   H3        1.0  0.66562  0.53578  0.53280  1.0000
  H   H4        1.0  0.33438  0.46423  0.46720  1.0000
  H   H5        1.0  0.79992  0.24459  0.49743  1.0000
  H   H6        1.0  0.20008  0.75541  0.50257  1.0000
  H   H7        1.0  0.08285  0.70621  0.61251  1.0000
  H   H8        1.0  0.91715  0.29378  0.38749  1.0000
  H   H9        1.0  0.12473  0.59891  0.88181  1.0000
  H   H10       1.0  0.87527  0.40109  0.11819  1.0000
  H   H11       1.0  0.99064  0.88551  0.89018  1.0000
  H   H12       1.0  0.00936  0.11449  0.10982  1.0000
  H   H13       1.0  0.69147  0.75392  0.71219  1.0000
  H   H14       1.0  0.30853  0.24608  0.28781  1.0000
  H   H15       1.0  0.69501  0.66708  0.80870  1.0000
  H   H16       1.0  0.30499  0.33292  0.19130  1.0000
  H   H17       1.0  0.41752  0.60831  0.62347  1.0000
  H   H18       1.0  0.58247  0.39169  0.37653  1.0000
  H   H19       1.0  0.42408  0.74667  0.73679  1.0000
  H   H20       1.0  0.57592  0.25334  0.26321  1.0000
  H   H21       1.0  0.42767  0.52680  0.81654  1.0000
  H   H22       1.0  0.57233  0.47321  0.18347  1.0000
  H   H23       1.0  0.43572  0.38548  0.70642  1.0000
  H   H24       1.0  0.56429  0.61452  0.29358  1.0000
  H   H25       1.0  0.16852  0.43569  0.62068  1.0000
  H   H26       1.0  0.83148  0.56431  0.37932  1.0000
  H   H27       1.0  0.16070  0.37527  0.72560  1.0000
  H   H28       1.0  0.83930  0.62473  0.27441  1.0000
  H   H29       1.0  0.82585  0.15010  0.91580  1.0000
  H   H30       1.0  0.17415  0.84990  0.08420  1.0000
  H   H31       1.0  0.32897  0.11030  0.77868  1.0000
  H   H32       1.0  0.67103  0.88970  0.22132  1.0000
  H   H33       1.0  0.50043  0.01072  0.63640  1.0000
  H   H34       1.0  0.49958  0.98927  0.36361  1.0000
  H   H35       1.0  0.45909  0.30040  0.97045  1.0000
  H   H36       1.0  0.54092  0.69960  0.02955  1.0000
  H   H37       1.0  0.64849  0.24736  0.02386  1.0000
  H   H38       1.0  0.35152  0.75265  0.97614  1.0000
  H   H39       1.0  0.42116  0.12305  0.06742  1.0000
  H   H40       1.0  0.57884  0.87695  0.93258  1.0000
  H   H41       1.0  0.33266  0.02544  0.94272  1.0000
  H   H42       1.0  0.66734  0.97456  0.05728  1.0000
  C   C1        1.0  0.78281  0.39908  0.71905  1.0000
  C   C2        1.0  0.21719  0.60092  0.28095  1.0000
  C   C3        1.0  0.71151  0.46314  0.58029  1.0000
  C   C4        1.0  0.28849  0.53686  0.41971  1.0000
  C   C5        1.0  0.78076  0.32211  0.56459  1.0000
  C   C6        1.0  0.21924  0.67789  0.43541  1.0000
  C   C7        1.0  0.07728  0.71966  0.68744  1.0000
  C   C8        1.0  0.92272  0.28034  0.31256  1.0000
  C   C9        1.0  0.09919  0.66642  0.82879  1.0000
  C   C10       1.0  0.90081  0.33358  0.17121  1.0000
  C   C11       1.0  0.03238  0.80743  0.83152  1.0000
  C   C12       1.0  0.96762  0.19257  0.16848  1.0000
  C   C13       1.0  0.64629  0.64967  0.72972  1.0000
  C   C14       1.0  0.35371  0.35033  0.27028  1.0000
  C   C15       1.0  0.46244  0.63064  0.70329  1.0000
  C   C16       1.0  0.53756  0.36936  0.29671  1.0000
  C   C17       1.0  0.39018  0.49946  0.73602  1.0000
  C   C18       1.0  0.60982  0.50054  0.26398  1.0000
  C   C19       1.0  0.20678  0.47132  0.70119  1.0000
  C   C20       1.0  0.79322  0.52868  0.29881  1.0000
  C   C21       1.0  0.71519  0.11993  0.85811  1.0000
  C   C22       1.0  0.28482  0.88007  0.14190  1.0000
  C   C23       1.0  0.45623  0.10057  0.78488  1.0000
  C   C24       1.0  0.54377  0.89942  0.21511  1.0000
  C   C25       1.0  0.54249  0.05057  0.71572  1.0000
  C   C26       1.0  0.45752  0.94943  0.28428  1.0000
  C   C27       1.0  0.53302  0.20081  0.97038  1.0000
  C   C28       1.0  0.46698  0.79919  0.02963  1.0000
  C   C29       1.0  0.44920  0.06888  0.99669  1.0000
  C   C30       1.0  0.55081  0.93112  0.00332  1.0000
  C   C31       1.0  0.18953  0.09389  0.55654  1.0000
  C   C32       1.0  0.81046  0.90612  0.44346  1.0000
  C   C33       1.0  0.13876  0.31889  0.92096  1.0000
  C   C34       1.0  0.86123  0.68111  0.07905  1.0000
  S   S1        1.0  0.27894  0.14865  0.48222  1.0000
  S   S2        1.0  0.72105  0.85135  0.51778  1.0000
  S   S3        1.0  0.22321  0.45143  0.02371  1.0000
  S   S4        1.0  0.77678  0.54856  0.97628  1.0000
  N   N1        1.0  0.82514  0.28398  0.65190  1.0000
  N   N2        1.0  0.17486  0.71602  0.34810  1.0000
  N   N3        1.0  0.71376  0.51028  0.67878  1.0000
  N   N4        1.0  0.28623  0.48972  0.32122  1.0000
  N   N5        1.0  0.01908  0.83910  0.74280  1.0000
  N   N6        1.0  0.98092  0.16090  0.25720  1.0000
  N   N7        1.0  0.12750  0.61249  0.73676  1.0000
  N   N8        1.0  0.87250  0.38751  0.26324  1.0000
  N   N9        1.0  0.70377  0.06271  0.76241  1.0000
  N   N10       1.0  0.29624  0.93729  0.23760  1.0000
  N   N11       1.0  0.56787  0.14461  0.87459  1.0000
  N   N12       1.0  0.43214  0.85539  0.12541  1.0000
  N   N13       1.0  0.12811  0.05315  0.61182  1.0000
  N   N14       1.0  0.87190  0.94686  0.38819  1.0000
  N   N15       1.0  0.08012  0.22257  0.84460  1.0000
  N   N16       1.0  0.91986  0.77741  0.15539  1.0000
