data_image0
_chemical_formula_structural       NiH32C26N4O8
_chemical_formula_sum              "Ni1 H32 C26 N4 O8"
_cell_length_a       8.02741
_cell_length_b       8.9349
_cell_length_c       10.5973
_cell_angle_alpha    90.8422
_cell_angle_beta     74.1119
_cell_angle_gamma    91.7408

_space_group_name_H-M_alt    "P 1"
_space_group_IT_number       1

loop_
  _space_group_symop_operation_xyz
  'x, y, z'

loop_
  _atom_site_type_symbol
  _atom_site_label
  _atom_site_symmetry_multiplicity
  _atom_site_fract_x
  _atom_site_fract_y
  _atom_site_fract_z
  _atom_site_occupancy
  Ni  Ni1       1.0  0.49999  0.50000  0.50000  1.0000
  H   H1        1.0  0.27017  0.81487  0.08694  1.0000
  H   H2        1.0  0.72983  0.18514  0.91307  1.0000
  H   H3        1.0  0.50412  0.37051  0.28845  1.0000
  H   H4        1.0  0.49589  0.62950  0.71154  1.0000
  H   H5        1.0  0.37440  0.40007  0.04439  1.0000
  H   H6        1.0  0.62562  0.59993  0.95562  1.0000
  H   H7        1.0  0.32058  0.18403  0.19701  1.0000
  H   H8        1.0  0.67940  0.81597  0.80301  1.0000
  H   H9        1.0  0.25189  0.89170  0.88714  1.0000
  H   H10       1.0  0.74811  0.10831  0.11287  1.0000
  H   H11       1.0  0.30777  0.10923  0.73446  1.0000
  H   H12       1.0  0.69225  0.89077  0.26554  1.0000
  H   H13       1.0  0.70307  0.28728  0.65756  1.0000
  H   H14       1.0  0.29694  0.71273  0.34244  1.0000
  H   H15       1.0  0.87765  0.49547  0.28857  1.0000
  H   H16       1.0  0.12236  0.50450  0.71141  1.0000
  H   H17       1.0  0.15046  0.34204  0.33961  1.0000
  H   H18       1.0  0.84954  0.65795  0.66039  1.0000
  H   H19       1.0  0.97161  0.17087  0.67902  1.0000
  H   H20       1.0  0.02839  0.82914  0.32098  1.0000
  H   H21       1.0  0.17159  0.24766  0.58000  1.0000
  H   H22       1.0  0.82841  0.75234  0.42001  1.0000
  H   H23       1.0  0.16744  0.06051  0.40392  1.0000
  H   H24       1.0  0.83256  0.93949  0.59609  1.0000
  H   H25       1.0  0.15613  0.97136  0.55354  1.0000
  H   H26       1.0  0.84387  0.02864  0.44647  1.0000
  H   H27       1.0  0.66041  0.18405  0.34265  1.0000
  H   H28       1.0  0.33959  0.81595  0.65731  1.0000
  H   H29       1.0  0.46586  0.08871  0.33075  1.0000
  H   H30       1.0  0.53414  0.91130  0.66921  1.0000
  H   H31       1.0  0.48973  0.14688  0.48771  1.0000
  H   H32       1.0  0.51028  0.85310  0.51225  1.0000
  C   C1        1.0  0.38770  0.39553  0.78391  1.0000
  C   C2        1.0  0.61231  0.60447  0.21610  1.0000
  C   C3        1.0  0.34261  0.26896  0.87922  1.0000
  C   C4        1.0  0.65739  0.73105  0.12079  1.0000
  C   C5        1.0  0.34377  0.28947  0.01060  1.0000
  C   C6        1.0  0.65623  0.71053  0.98942  1.0000
  C   C7        1.0  0.31424  0.16878  0.09625  1.0000
  C   C8        1.0  0.68575  0.83122  0.90376  1.0000
  C   C9        1.0  0.28284  0.02543  0.05120  1.0000
  C   C10       1.0  0.71714  0.97457  0.94882  1.0000
  C   C11       1.0  0.27689  0.00385  0.92137  1.0000
  C   C12       1.0  0.72311  0.99616  0.07864  1.0000
  C   C13       1.0  0.30756  0.12494  0.83660  1.0000
  C   C14       1.0  0.69244  0.87507  0.16342  1.0000
  C   C15       1.0  0.78527  0.32604  0.56423  1.0000
  C   C16       1.0  0.21473  0.67396  0.43577  1.0000
  C   C17       1.0  0.88124  0.42936  0.37245  1.0000
  C   C18       1.0  0.11876  0.57062  0.62754  1.0000
  C   C19       1.0  0.01618  0.35262  0.39453  1.0000
  C   C20       1.0  0.98381  0.64737  0.60546  1.0000
  C   C21       1.0  0.04971  0.18983  0.57769  1.0000
  C   C22       1.0  0.95028  0.81018  0.42231  1.0000
  C   C23       1.0  0.08317  0.04112  0.50365  1.0000
  C   C24       1.0  0.91682  0.95888  0.49636  1.0000
  C   C25       1.0  0.51873  0.17684  0.38374  1.0000
  C   C26       1.0  0.48127  0.82316  0.61623  1.0000
  N   N1        1.0  0.95338  0.28856  0.51647  1.0000
  N   N2        1.0  0.04662  0.71144  0.48353  1.0000
  N   N3        1.0  0.73805  0.41287  0.47935  1.0000
  N   N4        1.0  0.26195  0.58712  0.52063  1.0000
  O   O1        1.0  0.39989  0.36184  0.66358  1.0000
  O   O2        1.0  0.60009  0.63817  0.33644  1.0000
  O   O3        1.0  0.41462  0.52605  0.82576  1.0000
  O   O4        1.0  0.58542  0.47394  0.17424  1.0000
  O   O5        1.0  0.26144  0.90821  0.13702  1.0000
  O   O6        1.0  0.73853  0.09180  0.86299  1.0000
  O   O7        1.0  0.44106  0.31697  0.37530  1.0000
  O   O8        1.0  0.55894  0.68303  0.62469  1.0000
