data_image0
_chemical_formula_structural       CdH42C34S2N8O6
_chemical_formula_sum              "Cd1 H42 C34 S2 N8 O6"
_cell_length_a       8.32598
_cell_length_b       9.55581
_cell_length_c       11.7056
_cell_angle_alpha    98.0731
_cell_angle_beta     98.1186
_cell_angle_gamma    104.949

_space_group_name_H-M_alt    "P 1"
_space_group_IT_number       1

loop_
  _space_group_symop_operation_xyz
  'x, y, z'

loop_
  _atom_site_type_symbol
  _atom_site_label
  _atom_site_symmetry_multiplicity
  _atom_site_fract_x
  _atom_site_fract_y
  _atom_site_fract_z
  _atom_site_occupancy
  Cd  Cd1       1.0  0.50000  0.50000  0.50000  1.0000
  H   H1        1.0  0.46373  0.55180  0.80696  1.0000
  H   H2        1.0  0.53627  0.44820  0.19305  1.0000
  H   H3        1.0  0.93050  0.43593  0.69779  1.0000
  H   H4        1.0  0.06950  0.56407  0.30221  1.0000
  H   H5        1.0  0.08504  0.41006  0.50270  1.0000
  H   H6        1.0  0.91497  0.58993  0.49730  1.0000
  H   H7        1.0  0.33465  0.77498  0.60030  1.0000
  H   H8        1.0  0.66535  0.22502  0.39970  1.0000
  H   H9        1.0  0.32316  0.92885  0.27893  1.0000
  H   H10       1.0  0.67683  0.07114  0.72107  1.0000
  H   H11       1.0  0.43104  0.67247  0.25952  1.0000
  H   H12       1.0  0.56895  0.32754  0.74048  1.0000
  H   H13       1.0  0.21251  0.66166  0.93369  1.0000
  H   H14       1.0  0.78748  0.33834  0.06631  1.0000
  H   H15       1.0  0.27054  0.50288  0.96562  1.0000
  H   H16       1.0  0.72946  0.49713  0.03439  1.0000
  H   H17       1.0  0.96440  0.35566  0.91100  1.0000
  H   H18       1.0  0.03561  0.64434  0.08900  1.0000
  H   H19       1.0  0.90888  0.51638  0.88158  1.0000
  H   H20       1.0  0.09112  0.48361  0.11842  1.0000
  H   H21       1.0  0.99101  0.90572  0.37999  1.0000
  H   H22       1.0  0.00899  0.09428  0.62002  1.0000
  H   H23       1.0  0.99918  0.84319  0.51529  1.0000
  H   H24       1.0  0.00081  0.15681  0.48472  1.0000
  H   H25       1.0  0.27443  0.09275  0.45709  1.0000
  H   H26       1.0  0.72556  0.90724  0.54290  1.0000
  H   H27       1.0  0.28196  0.02977  0.59275  1.0000
  H   H28       1.0  0.71804  0.97024  0.40724  1.0000
  H   H29       1.0  0.92945  0.27242  0.27977  1.0000
  H   H30       1.0  0.07055  0.72758  0.72023  1.0000
  H   H31       1.0  0.63653  0.10744  0.20292  1.0000
  H   H32       1.0  0.36347  0.89255  0.79708  1.0000
  H   H33       1.0  0.84132  0.77699  0.04082  1.0000
  H   H34       1.0  0.15868  0.22301  0.95918  1.0000
  H   H35       1.0  0.13328  0.94254  0.11582  1.0000
  H   H36       1.0  0.86673  0.05746  0.88418  1.0000
  H   H37       1.0  0.44657  0.88261  0.08956  1.0000
  H   H38       1.0  0.55343  0.11739  0.91044  1.0000
  H   H39       1.0  0.52321  0.72484  0.09248  1.0000
  H   H40       1.0  0.47678  0.27516  0.90751  1.0000
  H   H41       1.0  0.52863  0.81118  0.96845  1.0000
  H   H42       1.0  0.47137  0.18882  0.03154  1.0000
  C   C1        1.0  0.34018  0.51331  0.74975  1.0000
  C   C2        1.0  0.65983  0.48670  0.25026  1.0000
  C   C3        1.0  0.06249  0.45537  0.69083  1.0000
  C   C4        1.0  0.93751  0.54463  0.30918  1.0000
  C   C5        1.0  0.14025  0.44324  0.59523  1.0000
  C   C6        1.0  0.85976  0.55676  0.40477  1.0000
  C   C7        1.0  0.34257  0.77746  0.50901  1.0000
  C   C8        1.0  0.65742  0.22254  0.49099  1.0000
  C   C9        1.0  0.33727  0.85466  0.33933  1.0000
  C   C10       1.0  0.66271  0.14535  0.66066  1.0000
  C   C11       1.0  0.39290  0.73052  0.33245  1.0000
  C   C12       1.0  0.60710  0.26947  0.66755  1.0000
  C   C13       1.0  0.17728  0.54054  0.91104  1.0000
  C   C14       1.0  0.82272  0.45946  0.08896  1.0000
  C   C15       1.0  0.00133  0.47675  0.93511  1.0000
  C   C16       1.0  0.99866  0.52325  0.06489  1.0000
  C   C17       1.0  0.03851  0.94090  0.47522  1.0000
  C   C18       1.0  0.96148  0.05911  0.52479  1.0000
  C   C19       1.0  0.23137  0.99662  0.49807  1.0000
  C   C20       1.0  0.76863  0.00338  0.50193  1.0000
  C   C21       1.0  0.04855  0.11709  0.20163  1.0000
  C   C22       1.0  0.95145  0.88291  0.79837  1.0000
  C   C23       1.0  0.90939  0.16347  0.22741  1.0000
  C   C24       1.0  0.09061  0.83653  0.77258  1.0000
  C   C25       1.0  0.74586  0.07059  0.18507  1.0000
  C   C26       1.0  0.25414  0.92940  0.81493  1.0000
  C   C27       1.0  0.71925  0.93030  0.11742  1.0000
  C   C28       1.0  0.28075  0.06970  0.88257  1.0000
  C   C29       1.0  0.86067  0.88413  0.09579  1.0000
  C   C30       1.0  0.13934  0.11586  0.90421  1.0000
  C   C31       1.0  0.02414  0.97662  0.13675  1.0000
  C   C32       1.0  0.97586  0.02337  0.86325  1.0000
  C   C33       1.0  0.54423  0.83244  0.06479  1.0000
  C   C34       1.0  0.45577  0.16756  0.93520  1.0000
  S   S1        1.0  0.25650  0.24109  0.24422  1.0000
  S   S2        1.0  0.74350  0.75891  0.75578  1.0000
  N   N1        1.0  0.31293  0.47963  0.63293  1.0000
  N   N2        1.0  0.68707  0.52037  0.36707  1.0000
  N   N3        1.0  0.19142  0.49956  0.78828  1.0000
  N   N4        1.0  0.80858  0.50044  0.21172  1.0000
  N   N5        1.0  0.39555  0.68360  0.43883  1.0000
  N   N6        1.0  0.60444  0.31640  0.56117  1.0000
  N   N7        1.0  0.30619  0.88277  0.45199  1.0000
  N   N8        1.0  0.69380  0.11722  0.54801  1.0000
  O   O1        1.0  0.26463  0.31008  0.36738  1.0000
  O   O2        1.0  0.73536  0.68992  0.63262  1.0000
  O   O3        1.0  0.26866  0.34860  0.16486  1.0000
  O   O4        1.0  0.73134  0.65140  0.83514  1.0000
  O   O5        1.0  0.37449  0.15145  0.23259  1.0000
  O   O6        1.0  0.62551  0.84855  0.76741  1.0000
