data_image0
_chemical_formula_structural       Li4H16C8O16
_chemical_formula_sum              "Li4 H16 C8 O16"
_cell_length_a       6.0981
_cell_length_b       7.29273
_cell_length_c       8.95746
_cell_angle_alpha    104.361
_cell_angle_beta     90.9589
_cell_angle_gamma    99.9614

_space_group_name_H-M_alt    "P 1"
_space_group_IT_number       1

loop_
  _space_group_symop_operation_xyz
  'x, y, z'

loop_
  _atom_site_type_symbol
  _atom_site_label
  _atom_site_symmetry_multiplicity
  _atom_site_fract_x
  _atom_site_fract_y
  _atom_site_fract_z
  _atom_site_occupancy
  Li  Li1       1.0  0.34954  0.10656  0.10448  1.0000
  Li  Li2       1.0  0.65045  0.89343  0.89552  1.0000
  Li  Li3       1.0  0.65920  0.49855  0.27221  1.0000
  Li  Li4       1.0  0.34080  0.50145  0.72779  1.0000
  H   H1        1.0  0.05103  0.19590  0.94496  1.0000
  H   H2        1.0  0.94897  0.80410  0.05504  1.0000
  H   H3        1.0  0.27899  0.33797  0.97955  1.0000
  H   H4        1.0  0.72101  0.66203  0.02045  1.0000
  H   H5        1.0  0.02327  0.01223  0.29863  1.0000
  H   H6        1.0  0.97673  0.98777  0.70137  1.0000
  H   H7        1.0  0.63698  0.20491  0.35170  1.0000
  H   H8        1.0  0.36302  0.79509  0.64830  1.0000
  H   H9        1.0  0.39922  0.26751  0.39278  1.0000
  H   H10       1.0  0.60078  0.73249  0.60722  1.0000
  H   H11       1.0  0.04458  0.42700  0.14937  1.0000
  H   H12       1.0  0.95542  0.57300  0.85063  1.0000
  H   H13       1.0  0.24499  0.58526  0.37313  1.0000
  H   H14       1.0  0.75501  0.41474  0.62687  1.0000
  H   H15       1.0  0.35328  0.91793  0.37286  1.0000
  H   H16       1.0  0.64672  0.08207  0.62715  1.0000
  C   C1        1.0  0.11712  0.65571  0.33345  1.0000
  C   C2        1.0  0.88288  0.34429  0.66655  1.0000
  C   C3        1.0  0.24368  0.82315  0.27438  1.0000
  C   C4        1.0  0.75632  0.17685  0.72562  1.0000
  C   C5        1.0  0.39754  0.75468  0.14581  1.0000
  C   C6        1.0  0.60245  0.24532  0.85419  1.0000
  C   C7        1.0  0.99339  0.73576  0.47602  1.0000
  C   C8        1.0  0.00661  0.26424  0.52398  1.0000
  O   O1        1.0  0.16129  0.26960  0.03261  1.0000
  O   O2        1.0  0.83871  0.73040  0.96739  1.0000
  O   O3        1.0  0.10430  0.93086  0.21599  1.0000
  O   O4        1.0  0.89570  0.06914  0.78401  1.0000
  O   O5        1.0  0.51147  0.25460  0.31197  1.0000
  O   O6        1.0  0.48852  0.74540  0.68803  1.0000
  O   O7        1.0  0.51109  0.62989  0.16037  1.0000
  O   O8        1.0  0.48891  0.37011  0.83963  1.0000
  O   O9        1.0  0.96558  0.52225  0.21994  1.0000
  O   O10       1.0  0.03442  0.47775  0.78006  1.0000
  O   O11       1.0  0.11284  0.85237  0.58999  1.0000
  O   O12       1.0  0.88716  0.14763  0.41001  1.0000
  O   O13       1.0  0.40539  0.83454  0.03495  1.0000
  O   O14       1.0  0.59460  0.16545  0.96505  1.0000
  O   O15       1.0  0.78325  0.68354  0.47047  1.0000
  O   O16       1.0  0.21675  0.31646  0.52954  1.0000
