data_image0
_chemical_formula_structural       Cu2H14C10Br2N6
_chemical_formula_sum              "Cu2 H14 C10 Br2 N6"
_cell_length_a       6.96973
_cell_length_b       7.20865
_cell_length_c       8.01584
_cell_angle_alpha    98.0741
_cell_angle_beta     105.801
_cell_angle_gamma    99.9569

_space_group_name_H-M_alt    "P 1"
_space_group_IT_number       1

loop_
  _space_group_symop_operation_xyz
  'x, y, z'

loop_
  _atom_site_type_symbol
  _atom_site_label
  _atom_site_symmetry_multiplicity
  _atom_site_fract_x
  _atom_site_fract_y
  _atom_site_fract_z
  _atom_site_occupancy
  Cu  Cu1       1.0  0.85404  0.64706  0.01195  1.0000
  Cu  Cu2       1.0  0.14598  0.35293  0.98805  1.0000
  H   H1        1.0  0.05151  0.72391  0.34240  1.0000
  H   H2        1.0  0.94850  0.27610  0.65760  1.0000
  H   H3        1.0  0.54614  0.87957  0.79401  1.0000
  H   H4        1.0  0.45389  0.12044  0.20599  1.0000
  H   H5        1.0  0.69409  0.89952  0.15091  1.0000
  H   H6        1.0  0.30590  0.10045  0.84907  1.0000
  H   H7        1.0  0.97065  0.99283  0.18797  1.0000
  H   H8        1.0  0.02931  0.00716  0.81201  1.0000
  H   H9        1.0  0.58236  0.57297  0.22426  1.0000
  H   H10       1.0  0.41764  0.42702  0.77574  1.0000
  H   H11       1.0  0.77278  0.45390  0.32911  1.0000
  H   H12       1.0  0.22723  0.54610  0.67089  1.0000
  H   H13       1.0  0.47802  0.82554  0.42283  1.0000
  H   H14       1.0  0.52198  0.17448  0.57717  1.0000
  C   C1        1.0  0.89325  0.72800  0.27707  1.0000
  C   C2        1.0  0.10674  0.27202  0.72292  1.0000
  C   C3        1.0  0.61443  0.80188  0.70840  1.0000
  C   C4        1.0  0.38560  0.19814  0.29163  1.0000
  C   C5        1.0  0.84979  0.87661  0.19103  1.0000
  C   C6        1.0  0.15020  0.12339  0.80896  1.0000
  C   C7        1.0  0.73276  0.59348  0.32251  1.0000
  C   C8        1.0  0.26723  0.40649  0.67749  1.0000
  C   C9        1.0  0.58165  0.77952  0.52836  1.0000
  C   C10       1.0  0.41838  0.22049  0.47165  1.0000
  Br  Br1       1.0  0.74159  0.29647  0.96037  1.0000
  Br  Br2       1.0  0.25836  0.70352  0.03968  1.0000
  N   N1        1.0  0.75708  0.70040  0.77216  1.0000
  N   N2        1.0  0.24292  0.29961  0.22785  1.0000
  N   N3        1.0  0.81484  0.61728  0.64142  1.0000
  N   N4        1.0  0.18515  0.38271  0.35855  1.0000
  N   N5        1.0  0.70819  0.66555  0.49445  1.0000
  N   N6        1.0  0.29183  0.33443  0.50557  1.0000
