data_image0
_chemical_formula_structural       Al4H16C32O20
_chemical_formula_sum              "Al4 H16 C32 O20"
_cell_length_a       11.9098
_cell_length_b       12.0954
_cell_length_c       12.0955
_cell_angle_alpha    75.9724
_cell_angle_beta     60.5064
_cell_angle_gamma    60.5061

_space_group_name_H-M_alt    "P 1"
_space_group_IT_number       1

loop_
  _space_group_symop_operation_xyz
  'x, y, z'

loop_
  _atom_site_type_symbol
  _atom_site_label
  _atom_site_symmetry_multiplicity
  _atom_site_fract_x
  _atom_site_fract_y
  _atom_site_fract_z
  _atom_site_occupancy
  Al  Al1       1.0  0.19213  1.00000  0.61574  1.0000
  Al  Al2       1.0  0.94209  0.11582  0.50000  1.0000
  Al  Al3       1.0  0.55791  0.88418  0.50000  1.0000
  Al  Al4       1.0  0.80787  1.00000  0.38426  1.0000
  H   H1        1.0  0.37504  0.06409  0.43589  1.0000
  H   H2        1.0  0.87501  0.93591  0.56411  1.0000
  H   H3        1.0  0.18907  0.93591  0.43589  1.0000
  H   H4        1.0  0.56088  0.06409  0.56411  1.0000
  H   H5        1.0  0.10950  1.00000  0.00000  1.0000
  H   H6        1.0  0.64038  0.50000  0.50000  1.0000
  H   H7        1.0  0.89050  1.00000  1.00000  1.0000
  H   H8        1.0  0.85962  0.50000  0.50000  1.0000
  H   H9        1.0  0.54871  0.94154  0.80323  1.0000
  H   H10       1.0  0.45649  0.30325  0.44144  1.0000
  H   H11       1.0  0.64807  0.05846  0.80323  1.0000
  H   H12       1.0  0.10207  0.69675  0.44144  1.0000
  H   H13       1.0  0.24026  0.30325  0.55857  1.0000
  H   H14       1.0  0.50976  0.94154  0.19677  1.0000
  H   H15       1.0  0.20118  0.69675  0.55857  1.0000
  H   H16       1.0  0.29347  0.05846  0.19677  1.0000
  C   C1        1.0  0.34260  0.95231  0.76550  1.0000
  C   C2        1.0  0.68957  0.26551  0.45223  1.0000
  C   C3        1.0  0.89190  0.04769  0.76550  1.0000
  C   C4        1.0  0.85820  0.73449  0.45223  1.0000
  C   C5        1.0  0.04492  0.26551  0.54777  1.0000
  C   C6        1.0  0.70509  0.95231  0.23450  1.0000
  C   C7        1.0  0.40731  0.73449  0.54777  1.0000
  C   C8        1.0  0.06041  0.04769  0.23450  1.0000
  C   C9        1.0  0.32948  0.97331  0.88867  1.0000
  C   C10       1.0  0.55850  0.38869  0.47321  1.0000
  C   C11       1.0  0.78185  0.02669  0.88867  1.0000
  C   C12       1.0  0.96828  0.61131  0.47321  1.0000
  C   C13       1.0  0.05281  0.38869  0.52679  1.0000
  C   C14       1.0  0.69721  0.97331  0.11133  1.0000
  C   C15       1.0  0.42040  0.61131  0.52679  1.0000
  C   C16       1.0  0.19146  0.02669  0.11133  1.0000
  C   C17       1.0  0.20092  0.00000  0.00000  1.0000
  C   C18       1.0  0.54896  0.50000  0.50000  1.0000
  C   C19       1.0  0.79908  1.00000  1.00000  1.0000
  C   C20       1.0  0.95103  0.50000  0.50000  1.0000
  C   C21       1.0  0.44802  0.96949  0.89002  1.0000
  C   C22       1.0  0.44245  0.39003  0.46940  1.0000
  C   C23       1.0  0.66196  0.03051  0.89002  1.0000
  C   C24       1.0  0.08814  0.60997  0.46940  1.0000
  C   C25       1.0  0.16751  0.39003  0.53060  1.0000
  C   C26       1.0  0.58250  0.96949  0.10998  1.0000
  C   C27       1.0  0.30189  0.60997  0.53060  1.0000
  C   C28       1.0  0.30752  0.03051  0.10998  1.0000
  C   C29       1.0  0.43813  1.00000  1.00000  1.0000
  C   C30       1.0  0.31184  0.50000  0.50000  1.0000
  C   C31       1.0  0.56188  1.00000  1.00000  1.0000
  C   C32       1.0  0.18816  0.50000  0.50000  1.0000
  O   O1        1.0  0.37503  0.99906  0.50086  1.0000
  O   O2        1.0  0.87496  0.00094  0.49914  1.0000
  O   O3        1.0  0.12411  0.00094  0.50086  1.0000
  O   O4        1.0  0.62591  0.99906  0.49914  1.0000
  O   O5        1.0  0.22724  0.00018  0.75404  1.0000
  O   O6        1.0  0.76851  0.25407  0.50010  1.0000
  O   O7        1.0  0.01872  0.99982  0.75404  1.0000
  O   O8        1.0  0.73139  0.74593  0.50010  1.0000
  O   O9        1.0  0.97741  0.25407  0.49990  1.0000
  O   O10       1.0  0.77258  0.00018  0.24597  1.0000
  O   O11       1.0  0.52269  0.74593  0.49990  1.0000
  O   O12       1.0  0.98145  0.99982  0.24596  1.0000
  O   O13       1.0  0.46962  0.89089  0.68021  1.0000
  O   O14       1.0  0.70926  0.18017  0.39087  1.0000
  O   O15       1.0  0.85018  0.10911  0.68021  1.0000
  O   O16       1.0  0.89987  0.81983  0.39087  1.0000
  O   O17       1.0  0.11057  0.18017  0.60913  1.0000
  O   O18       1.0  0.63949  0.89089  0.31979  1.0000
  O   O19       1.0  0.28030  0.81983  0.60913  1.0000
  O   O20       1.0  0.04072  0.10911  0.31979  1.0000
