data_image0
_chemical_formula_structural       CoH8C10S2N10
_chemical_formula_sum              "Co1 H8 C10 S2 N10"
_cell_length_a       3.62728
_cell_length_b       9.61386
_cell_length_c       10.9291
_cell_angle_alpha    109.863
_cell_angle_beta     97.0607
_cell_angle_gamma    100.861

_space_group_name_H-M_alt    "P 1"
_space_group_IT_number       1

loop_
  _space_group_symop_operation_xyz
  'x, y, z'

loop_
  _atom_site_type_symbol
  _atom_site_label
  _atom_site_symmetry_multiplicity
  _atom_site_fract_x
  _atom_site_fract_y
  _atom_site_fract_z
  _atom_site_occupancy
  Co  Co1       1.0  0.00001  1.00000  0.50000  1.0000
  H   H1        1.0  0.00392  0.27233  0.19264  1.0000
  H   H2        1.0  0.99605  0.72767  0.80736  1.0000
  H   H3        1.0  0.64947  0.09946  0.11375  1.0000
  H   H4        1.0  0.35052  0.90054  0.88625  1.0000
  H   H5        1.0  0.53494  0.38127  0.62872  1.0000
  H   H6        1.0  0.46507  0.61873  0.37128  1.0000
  H   H7        1.0  0.58953  0.51692  0.88420  1.0000
  H   H8        1.0  0.41047  0.48308  0.11579  1.0000
  C   C1        1.0  0.87813  0.19833  0.99101  1.0000
  C   C2        1.0  0.12186  0.80167  0.00899  1.0000
  C   C3        1.0  0.17610  0.31246  0.86720  1.0000
  C   C4        1.0  0.82390  0.68754  0.13280  1.0000
  C   C5        1.0  0.01279  0.18192  0.75524  1.0000
  C   C6        1.0  0.98721  0.81808  0.24476  1.0000
  C   C7        1.0  0.75728  0.05962  0.76316  1.0000
  C   C8        1.0  0.24272  0.94038  0.23684  1.0000
  C   C9        1.0  0.37430  0.33344  0.68854  1.0000
  C   C10       1.0  0.62571  0.66656  0.31146  1.0000
  S   S1        1.0  0.56605  0.91102  0.61122  1.0000
  S   S2        1.0  0.43396  0.08897  0.38878  1.0000
  N   N1        1.0  0.68675  0.06994  0.88317  1.0000
  N   N2        1.0  0.31324  0.93005  0.11683  1.0000
  N   N3        1.0  0.81362  0.19835  0.11005  1.0000
  N   N4        1.0  0.18636  0.80165  0.88995  1.0000
  N   N5        1.0  0.11704  0.32548  0.98917  1.0000
  N   N6        1.0  0.88294  0.67452  0.01083  1.0000
  N   N7        1.0  0.14162  0.19381  0.64517  1.0000
  N   N8        1.0  0.85840  0.80618  0.35483  1.0000
  N   N9        1.0  0.39862  0.41042  0.82254  1.0000
  N   N10       1.0  0.60138  0.58958  0.17746  1.0000
