data_image0
_chemical_formula_structural       Zn4H20C24O8F28
_chemical_formula_sum              "Zn4 H20 C24 O8 F28"
_cell_length_a       10.0011
_cell_length_b       10.4459
_cell_length_c       10.9492
_cell_angle_alpha    118.491
_cell_angle_beta     101.326
_cell_angle_gamma    90.0053

_space_group_name_H-M_alt    "P 1"
_space_group_IT_number       1

loop_
  _space_group_symop_operation_xyz
  'x, y, z'

loop_
  _atom_site_type_symbol
  _atom_site_label
  _atom_site_symmetry_multiplicity
  _atom_site_fract_x
  _atom_site_fract_y
  _atom_site_fract_z
  _atom_site_occupancy
  Zn  Zn1       1.0  0.91303  0.90959  0.06324  1.0000
  Zn  Zn2       1.0  0.58697  0.84642  0.93682  1.0000
  Zn  Zn3       1.0  0.08697  0.09041  0.93676  1.0000
  Zn  Zn4       1.0  0.41303  0.15358  0.06318  1.0000
  H   H1        1.0  0.92183  0.69557  0.10794  1.0000
  H   H2        1.0  0.57819  0.58779  0.89218  1.0000
  H   H3        1.0  0.07817  0.30443  0.89206  1.0000
  H   H4        1.0  0.42181  0.41221  0.10782  1.0000
  H   H5        1.0  0.84189  0.63740  0.92889  1.0000
  H   H6        1.0  0.65813  0.70864  0.07123  1.0000
  H   H7        1.0  0.15811  0.36260  0.07111  1.0000
  H   H8        1.0  0.34187  0.29136  0.92877  1.0000
  H   H9        1.0  0.07577  0.66707  0.87746  1.0000
  H   H10       1.0  0.42416  0.78964  0.12261  1.0000
  H   H11       1.0  0.92423  0.33293  0.12254  1.0000
  H   H12       1.0  0.57584  0.21036  0.87739  1.0000
  H   H13       1.0  0.07369  0.54122  0.94229  1.0000
  H   H14       1.0  0.42633  0.59896  0.05776  1.0000
  H   H15       1.0  0.92631  0.45878  0.05772  1.0000
  H   H16       1.0  0.57367  0.40104  0.94224  1.0000
  H   H17       1.0  0.15445  0.72090  0.05713  1.0000
  H   H18       1.0  0.34558  0.66378  0.94291  1.0000
  H   H19       1.0  0.84555  0.27910  0.94287  1.0000
  H   H20       1.0  0.65442  0.33622  0.05709  1.0000
  C   C1        1.0  0.93020  0.70581  0.01431  1.0000
  C   C2        1.0  0.56982  0.69161  0.98581  1.0000
  C   C3        1.0  0.06980  0.29419  0.98569  1.0000
  C   C4        1.0  0.43018  0.30838  0.01418  1.0000
  C   C5        1.0  0.06527  0.65663  0.97050  1.0000
  C   C6        1.0  0.43474  0.68619  0.02958  1.0000
  C   C7        1.0  0.93473  0.34337  0.02950  1.0000
  C   C8        1.0  0.56526  0.31381  0.97042  1.0000
  C   C9        1.0  0.77580  0.93290  0.79973  1.0000
  C   C10       1.0  0.72414  0.13318  0.20026  1.0000
  C   C11       1.0  0.22420  0.06710  0.20027  1.0000
  C   C12       1.0  0.27586  0.86682  0.79974  1.0000
  C   C13       1.0  0.78001  0.93638  0.65956  1.0000
  C   C14       1.0  0.71993  0.27687  0.34039  1.0000
  C   C15       1.0  0.21999  0.06362  0.34044  1.0000
  C   C16       1.0  0.28007  0.72313  0.65961  1.0000
  C   C17       1.0  0.77666  0.77864  0.53234  1.0000
  C   C18       1.0  0.72323  0.24635  0.46762  1.0000
  C   C19       1.0  0.22334  0.22136  0.46766  1.0000
  C   C20       1.0  0.27677  0.75365  0.53238  1.0000
  C   C21       1.0  0.77279  0.76781  0.38423  1.0000
  C   C22       1.0  0.72728  0.38363  0.61580  1.0000
  C   C23       1.0  0.22722  0.23219  0.61577  1.0000
  C   C24       1.0  0.27272  0.61637  0.38419  1.0000
  O   O1        1.0  0.88772  0.96342  0.89088  1.0000
  O   O2        1.0  0.61224  0.07257  0.10908  1.0000
  O   O3        1.0  0.11228  0.03658  0.10912  1.0000
  O   O4        1.0  0.38776  0.92743  0.89092  1.0000
  O   O5        1.0  0.65856  0.89664  0.80556  1.0000
  O   O6        1.0  0.84136  0.09104  0.19444  1.0000
  O   O7        1.0  0.34144  0.10336  0.19444  1.0000
  O   O8        1.0  0.15864  0.90896  0.80556  1.0000
  F   F1        1.0  0.67033  0.00115  0.62681  1.0000
  F   F2        1.0  0.82967  0.37433  0.37316  1.0000
  F   F3        1.0  0.32967  0.99885  0.37319  1.0000
  F   F4        1.0  0.17033  0.62567  0.62684  1.0000
  F   F5        1.0  0.89735  0.01744  0.67756  1.0000
  F   F6        1.0  0.60265  0.33995  0.32236  1.0000
  F   F7        1.0  0.10265  0.98256  0.32244  1.0000
  F   F8        1.0  0.39735  0.66005  0.67764  1.0000
  F   F9        1.0  0.89086  0.72027  0.56657  1.0000
  F   F10       1.0  0.60898  0.15383  0.43347  1.0000
  F   F11       1.0  0.10914  0.27973  0.43343  1.0000
  F   F12       1.0  0.39102  0.84616  0.56653  1.0000
  F   F13       1.0  0.66329  0.69432  0.51619  1.0000
  F   F14       1.0  0.83655  0.17809  0.48367  1.0000
  F   F15       1.0  0.33671  0.30568  0.48381  1.0000
  F   F16       1.0  0.16345  0.82191  0.51632  1.0000
  F   F17       1.0  0.65680  0.81590  0.34139  1.0000
  F   F18       1.0  0.84323  0.47459  0.65846  1.0000
  F   F19       1.0  0.34320  0.18410  0.65861  1.0000
  F   F20       1.0  0.15677  0.52541  0.34154  1.0000
  F   F21       1.0  0.77456  0.62584  0.28700  1.0000
  F   F22       1.0  0.72579  0.33885  0.71302  1.0000
  F   F23       1.0  0.22545  0.37415  0.71300  1.0000
  F   F24       1.0  0.27421  0.66116  0.28698  1.0000
  F   F25       1.0  0.88218  0.84733  0.38899  1.0000
  F   F26       1.0  0.61786  0.45840  0.61130  1.0000
  F   F27       1.0  0.11782  0.15267  0.61101  1.0000
  F   F28       1.0  0.38214  0.54160  0.38870  1.0000
