data_image0
_chemical_formula_structural       Zn2H28C32Cl4O14
_chemical_formula_sum              "Zn2 H28 C32 Cl4 O14"
_cell_length_a       4.89464
_cell_length_b       6.65296
_cell_length_c       27.7267
_cell_angle_alpha    90.0001
_cell_angle_beta     90.9147
_cell_angle_gamma    90.0001

_space_group_name_H-M_alt    "P 1"
_space_group_IT_number       1

loop_
  _space_group_symop_operation_xyz
  'x, y, z'

loop_
  _atom_site_type_symbol
  _atom_site_label
  _atom_site_symmetry_multiplicity
  _atom_site_fract_x
  _atom_site_fract_y
  _atom_site_fract_z
  _atom_site_occupancy
  Zn  Zn1       1.0  0.50973  0.87178  0.49853  1.0000
  Zn  Zn2       1.0  0.50974  0.12822  0.99853  1.0000
  H   H1        1.0  0.16275  0.58090  0.50654  1.0000
  H   H2        1.0  0.16275  0.41910  0.00655  1.0000
  H   H3        1.0  0.45557  0.46368  0.51617  1.0000
  H   H4        1.0  0.45558  0.53631  0.01617  1.0000
  H   H5        1.0  0.39668  0.76836  0.31988  1.0000
  H   H6        1.0  0.39667  0.23164  0.81988  1.0000
  H   H7        1.0  0.52095  0.06796  0.27344  1.0000
  H   H8        1.0  0.52096  0.93204  0.77344  1.0000
  H   H9        1.0  0.11062  0.23054  0.38380  1.0000
  H   H10       1.0  0.11061  0.76947  0.88380  1.0000
  H   H11       1.0  0.41632  0.40958  0.41683  1.0000
  H   H12       1.0  0.41633  0.59042  0.91683  1.0000
  H   H13       1.0  0.47409  0.46285  0.35419  1.0000
  H   H14       1.0  0.47409  0.53715  0.85420  1.0000
  H   H15       1.0  0.22291  0.60322  0.38673  1.0000
  H   H16       1.0  0.22290  0.39678  0.88674  1.0000
  H   H17       1.0  0.71782  0.66231  0.68332  1.0000
  H   H18       1.0  0.71783  0.33769  0.18333  1.0000
  H   H19       1.0  0.40037  0.50759  0.73985  1.0000
  H   H20       1.0  0.40037  0.49240  0.23986  1.0000
  H   H21       1.0  0.21681  0.04423  0.63578  1.0000
  H   H22       1.0  0.21684  0.95577  0.13578  1.0000
  H   H23       1.0  0.11686  0.73052  0.58021  1.0000
  H   H24       1.0  0.11689  0.26949  0.08021  1.0000
  H   H25       1.0  0.09912  0.66037  0.64228  1.0000
  H   H26       1.0  0.09913  0.33963  0.14229  1.0000
  H   H27       1.0  0.84283  0.82464  0.61569  1.0000
  H   H28       1.0  0.84285  0.17536  0.11569  1.0000
  C   C1        1.0  0.87715  0.96531  0.39769  1.0000
  C   C2        1.0  0.87714  0.03469  0.89769  1.0000
  C   C3        1.0  0.67901  0.82996  0.37916  1.0000
  C   C4        1.0  0.67900  0.17004  0.87916  1.0000
  C   C5        1.0  0.55210  0.86927  0.33446  1.0000
  C   C6        1.0  0.55210  0.13074  0.83446  1.0000
  C   C7        1.0  0.62328  0.03845  0.30789  1.0000
  C   C8        1.0  0.62328  0.96155  0.80789  1.0000
  C   C9        1.0  0.82565  0.16787  0.32561  1.0000
  C   C10       1.0  0.82566  0.83214  0.82561  1.0000
  C   C11       1.0  0.95225  0.13116  0.36992  1.0000
  C   C12       1.0  0.95225  0.86885  0.86993  1.0000
  C   C13       1.0  0.02067  0.93291  0.44497  1.0000
  C   C14       1.0  0.02066  0.06710  0.94497  1.0000
  C   C15       1.0  0.42233  0.52748  0.38937  1.0000
  C   C16       1.0  0.42233  0.47252  0.88937  1.0000
  C   C17       1.0  0.50136  0.26865  0.61289  1.0000
  C   C18       1.0  0.50137  0.73135  0.11289  1.0000
  C   C19       1.0  0.64579  0.44546  0.62614  1.0000
  C   C20       1.0  0.64581  0.55454  0.12614  1.0000
  C   C21       1.0  0.60693  0.52822  0.67216  1.0000
  C   C22       1.0  0.60695  0.47178  0.17216  1.0000
  C   C23       1.0  0.42699  0.44082  0.70438  1.0000
  C   C24       1.0  0.42701  0.55917  0.20439  1.0000
  C   C25       1.0  0.28476  0.26734  0.69108  1.0000
  C   C26       1.0  0.28478  0.73264  0.19108  1.0000
  C   C27       1.0  0.32398  0.18118  0.64606  1.0000
  C   C28       1.0  0.32401  0.81882  0.14606  1.0000
  C   C29       1.0  0.52933  0.16705  0.56516  1.0000
  C   C30       1.0  0.52936  0.83294  0.06517  1.0000
  C   C31       1.0  0.97868  0.69588  0.60959  1.0000
  C   C32       1.0  0.97870  0.30412  0.10960  1.0000
  Cl  Cl1       1.0  0.91836  0.37797  0.29230  1.0000
  Cl  Cl2       1.0  0.91836  0.62203  0.79231  1.0000
  Cl  Cl3       1.0  0.06153  0.15549  0.73122  1.0000
  Cl  Cl4       1.0  0.06153  0.84450  0.23121  1.0000
  O   O1        1.0  0.35990  0.59212  0.50382  1.0000
  O   O2        1.0  0.35990  0.40788  0.00382  1.0000
  O   O3        1.0  0.27237  0.98291  0.44661  1.0000
  O   O4        1.0  0.27236  0.01709  0.94661  1.0000
  O   O5        1.0  0.90070  0.85678  0.48137  1.0000
  O   O6        1.0  0.90069  0.14323  0.98136  1.0000
  O   O7        1.0  0.63022  0.66340  0.40590  1.0000
  O   O8        1.0  0.63022  0.33660  0.90590  1.0000
  O   O9        1.0  0.49497  0.97444  0.56535  1.0000
  O   O10       1.0  0.49499  0.02555  0.06535  1.0000
  O   O11       1.0  0.57866  0.26184  0.52676  1.0000
  O   O12       1.0  0.57868  0.73815  0.02676  1.0000
  O   O13       1.0  0.82223  0.52423  0.59401  1.0000
  O   O14       1.0  0.82224  0.47577  0.09401  1.0000
