data_image0
_chemical_formula_structural       Cu4Mo8H32C40N8O28
_chemical_formula_sum              "Cu4 Mo8 H32 C40 N8 O28"
_cell_length_a       7.23319
_cell_length_b       11.5245
_cell_length_c       16.7812
_cell_angle_alpha    89.5543
_cell_angle_beta     79.7434
_cell_angle_gamma    81.8091

_space_group_name_H-M_alt    "P 1"
_space_group_IT_number       1

loop_
  _space_group_symop_operation_xyz
  'x, y, z'

loop_
  _atom_site_type_symbol
  _atom_site_label
  _atom_site_symmetry_multiplicity
  _atom_site_fract_x
  _atom_site_fract_y
  _atom_site_fract_z
  _atom_site_occupancy
  Cu  Cu1       1.0  0.15512  0.78632  0.02853  1.0000
  Cu  Cu2       1.0  0.84488  0.21368  0.97148  1.0000
  Cu  Cu3       1.0  0.68768  0.28414  0.47828  1.0000
  Cu  Cu4       1.0  0.31232  0.71586  0.52172  1.0000
  Mo  Mo1       1.0  0.41599  0.10904  0.94391  1.0000
  Mo  Mo2       1.0  0.58401  0.89096  0.05609  1.0000
  Mo  Mo3       1.0  0.07710  0.05092  0.08439  1.0000
  Mo  Mo4       1.0  0.92289  0.94908  0.91561  1.0000
  Mo  Mo5       1.0  0.64618  0.54210  0.41629  1.0000
  Mo  Mo6       1.0  0.35382  0.45790  0.58371  1.0000
  Mo  Mo7       1.0  0.86578  0.61171  0.55560  1.0000
  Mo  Mo8       1.0  0.13422  0.38829  0.44440  1.0000
  H   H1        1.0  0.32555  0.78987  0.85145  1.0000
  H   H2        1.0  0.67444  0.21014  0.14855  1.0000
  H   H3        1.0  0.47073  0.63176  0.74470  1.0000
  H   H4        1.0  0.52927  0.36825  0.25530  1.0000
  H   H5        1.0  0.46128  0.42234  0.78352  1.0000
  H   H6        1.0  0.53872  0.57767  0.21647  1.0000
  H   H7        1.0  0.33221  0.37587  0.92558  1.0000
  H   H8        1.0  0.66779  0.62413  0.07442  1.0000
  H   H9        1.0  0.22580  0.35175  0.05109  1.0000
  H   H10       1.0  0.77419  0.64825  0.94891  1.0000
  H   H11       1.0  0.11415  0.34605  0.20022  1.0000
  H   H12       1.0  0.88584  0.65395  0.79978  1.0000
  H   H13       1.0  0.00969  0.53569  0.27889  1.0000
  H   H14       1.0  0.99031  0.46431  0.72111  1.0000
  H   H15       1.0  0.01280  0.72533  0.20299  1.0000
  H   H16       1.0  0.98720  0.27467  0.79701  1.0000
  H   H17       1.0  0.70779  0.20175  0.30603  1.0000
  H   H18       1.0  0.29222  0.79824  0.69397  1.0000
  H   H19       1.0  0.72919  0.00181  0.23911  1.0000
  H   H20       1.0  0.27082  0.99819  0.76089  1.0000
  H   H21       1.0  0.75476  0.82430  0.32534  1.0000
  H   H22       1.0  0.24524  0.17570  0.67466  1.0000
  H   H23       1.0  0.76475  0.84801  0.47153  1.0000
  H   H24       1.0  0.23525  0.15199  0.52848  1.0000
  H   H25       1.0  0.78905  0.88735  0.59486  1.0000
  H   H26       1.0  0.21096  0.11265  0.40514  1.0000
  H   H27       1.0  0.78297  0.95290  0.73658  1.0000
  H   H28       1.0  0.21704  0.04710  0.26342  1.0000
  H   H29       1.0  0.73383  0.16777  0.76966  1.0000
  H   H30       1.0  0.26618  0.83223  0.23034  1.0000
  H   H31       1.0  0.69342  0.31077  0.65639  1.0000
  H   H32       1.0  0.30658  0.68923  0.34361  1.0000
  C   C1        1.0  0.32976  0.69669  0.86395  1.0000
  C   C2        1.0  0.67024  0.30332  0.13605  1.0000
  C   C3        1.0  0.40735  0.60948  0.80570  1.0000
  C   C4        1.0  0.59264  0.39053  0.19430  1.0000
  C   C5        1.0  0.40521  0.49271  0.82783  1.0000
  C   C6        1.0  0.59478  0.50730  0.17217  1.0000
  C   C7        1.0  0.32973  0.46641  0.90695  1.0000
  C   C8        1.0  0.67026  0.53360  0.09305  1.0000
  C   C9        1.0  0.25750  0.55773  0.96278  1.0000
  C   C10       1.0  0.74250  0.44227  0.03722  1.0000
  C   C11       1.0  0.18491  0.54166  0.04921  1.0000
  C   C12       1.0  0.81508  0.45834  0.95079  1.0000
  C   C13       1.0  0.18003  0.43291  0.08648  1.0000
  C   C14       1.0  0.81997  0.56709  0.91352  1.0000
  C   C15       1.0  0.11722  0.42984  0.16985  1.0000
  C   C16       1.0  0.88278  0.57016  0.83015  1.0000
  C   C17       1.0  0.05832  0.53487  0.21382  1.0000
  C   C18       1.0  0.94168  0.46513  0.78618  1.0000
  C   C19       1.0  0.06124  0.64022  0.17272  1.0000
  C   C20       1.0  0.93875  0.35978  0.82728  1.0000
  C   C21       1.0  0.71774  0.12060  0.33975  1.0000
  C   C22       1.0  0.28226  0.87939  0.66025  1.0000
  C   C23       1.0  0.73290  0.01061  0.30331  1.0000
  C   C24       1.0  0.26710  0.98938  0.69668  1.0000
  C   C25       1.0  0.74805  0.91160  0.35134  1.0000
  C   C26       1.0  0.25196  0.08840  0.64866  1.0000
  C   C27       1.0  0.75128  0.92466  0.43358  1.0000
  C   C28       1.0  0.24872  0.07534  0.56642  1.0000
  C   C29       1.0  0.73459  0.03747  0.46646  1.0000
  C   C30       1.0  0.26541  0.96253  0.53354  1.0000
  C   C31       1.0  0.73532  0.06414  0.55210  1.0000
  C   C32       1.0  0.26469  0.93586  0.44790  1.0000
  C   C33       1.0  0.76250  0.98024  0.61098  1.0000
  C   C34       1.0  0.23751  0.01976  0.38902  1.0000
  C   C35       1.0  0.76108  0.01713  0.68996  1.0000
  C   C36       1.0  0.23893  0.98287  0.31004  1.0000
  C   C37       1.0  0.73547  0.13681  0.70841  1.0000
  C   C38       1.0  0.26454  0.86319  0.29159  1.0000
  C   C39       1.0  0.71180  0.21610  0.64680  1.0000
  C   C40       1.0  0.28821  0.78390  0.35320  1.0000
  N   N1        1.0  0.25584  0.67081  0.93988  1.0000
  N   N2        1.0  0.74415  0.32920  0.06012  1.0000
  N   N3        1.0  0.12445  0.64282  0.09280  1.0000
  N   N4        1.0  0.87555  0.35718  0.90720  1.0000
  N   N5        1.0  0.71557  0.13294  0.41918  1.0000
  N   N6        1.0  0.28443  0.86706  0.58082  1.0000
  N   N7        1.0  0.70972  0.18004  0.57126  1.0000
  N   N8        1.0  0.29028  0.81996  0.42874  1.0000
  O   O1        1.0  0.37136  0.01964  0.05622  1.0000
  O   O2        1.0  0.62864  0.98036  0.94378  1.0000
  O   O3        1.0  0.38754  0.09454  0.84516  1.0000
  O   O4        1.0  0.61246  0.90545  0.15484  1.0000
  O   O5        1.0  0.53298  0.22924  0.94879  1.0000
  O   O6        1.0  0.46702  0.77076  0.05121  1.0000
  O   O7        1.0  0.16815  0.16584  0.99756  1.0000
  O   O8        1.0  0.83185  0.83416  0.00244  1.0000
  O   O9        1.0  0.14843  0.92434  0.95459  1.0000
  O   O10       1.0  0.85156  0.07566  0.04541  1.0000
  O   O11       1.0  0.03891  0.13494  0.17117  1.0000
  O   O12       1.0  0.96109  0.86506  0.82883  1.0000
  O   O13       1.0  0.08020  0.90227  0.11756  1.0000
  O   O14       1.0  0.91980  0.09773  0.88244  1.0000
  O   O15       1.0  0.67881  0.61977  0.32861  1.0000
  O   O16       1.0  0.32119  0.38023  0.67139  1.0000
  O   O17       1.0  0.68115  0.39042  0.38613  1.0000
  O   O18       1.0  0.31885  0.60958  0.61386  1.0000
  O   O19       1.0  0.61380  0.43142  0.54638  1.0000
  O   O20       1.0  0.38620  0.56858  0.45361  1.0000
  O   O21       1.0  0.92216  0.51566  0.44200  1.0000
  O   O22       1.0  0.07784  0.48434  0.55800  1.0000
  O   O23       1.0  0.66367  0.66294  0.50060  1.0000
  O   O24       1.0  0.33632  0.33706  0.49940  1.0000
  O   O25       1.0  0.75221  0.60775  0.65454  1.0000
  O   O26       1.0  0.24778  0.39225  0.34546  1.0000
  O   O27       1.0  0.98335  0.73327  0.54729  1.0000
  O   O28       1.0  0.01665  0.26672  0.45271  1.0000
