data_image0
_chemical_formula_structural       Co2Mo6H16C20N4O20
_chemical_formula_sum              "Co2 Mo6 H16 C20 N4 O20"
_cell_length_a       7.09667
_cell_length_b       10.4074
_cell_length_c       10.6314
_cell_angle_alpha    89.0465
_cell_angle_beta     90.1676
_cell_angle_gamma    79.2418

_space_group_name_H-M_alt    "P 1"
_space_group_IT_number       1

loop_
  _space_group_symop_operation_xyz
  'x, y, z'

loop_
  _atom_site_type_symbol
  _atom_site_label
  _atom_site_symmetry_multiplicity
  _atom_site_fract_x
  _atom_site_fract_y
  _atom_site_fract_z
  _atom_site_occupancy
  Co  Co1       1.0  0.24458  0.08035  0.80519  1.0000
  Co  Co2       1.0  0.75515  0.91938  0.19490  1.0000
  Mo  Mo1       1.0  0.11475  0.34595  0.01849  1.0000
  Mo  Mo2       1.0  0.88534  0.65387  0.98170  1.0000
  Mo  Mo3       1.0  0.37853  0.53321  0.13282  1.0000
  Mo  Mo4       1.0  0.62187  0.46652  0.86696  1.0000
  Mo  Mo5       1.0  0.27530  0.89116  0.10029  1.0000
  Mo  Mo6       1.0  0.72458  0.10849  0.89968  1.0000
  H   H1        1.0  0.19387  0.36327  0.72686  1.0000
  H   H2        1.0  0.80622  0.63653  0.27383  1.0000
  H   H3        1.0  0.18364  0.47766  0.51746  1.0000
  H   H4        1.0  0.81656  0.52254  0.48347  1.0000
  H   H5        1.0  0.20435  0.34491  0.32076  1.0000
  H   H6        1.0  0.79553  0.65577  0.67986  1.0000
  H   H7        1.0  0.23537  0.10278  0.34155  1.0000
  H   H8        1.0  0.76443  0.89783  0.65856  1.0000
  H   H9        1.0  0.24401  0.89935  0.38082  1.0000
  H   H10       1.0  0.75569  0.10123  0.61889  1.0000
  H   H11       1.0  0.29243  0.66448  0.44742  1.0000
  H   H12       1.0  0.70755  0.33595  0.55187  1.0000
  H   H13       1.0  0.32768  0.60856  0.67971  1.0000
  H   H14       1.0  0.67259  0.39129  0.31950  1.0000
  H   H15       1.0  0.31915  0.78760  0.83190  1.0000
  H   H16       1.0  0.68065  0.21205  0.16767  1.0000
  C   C1        1.0  0.20129  0.30976  0.63951  1.0000
  C   C2        1.0  0.79875  0.69026  0.36105  1.0000
  C   C3        1.0  0.19522  0.37209  0.52246  1.0000
  C   C4        1.0  0.80497  0.62812  0.47819  1.0000
  C   C5        1.0  0.20611  0.29855  0.41329  1.0000
  C   C6        1.0  0.79386  0.70190  0.58721  1.0000
  C   C7        1.0  0.22352  0.16361  0.42459  1.0000
  C   C8        1.0  0.77625  0.83684  0.57566  1.0000
  C   C9        1.0  0.22991  0.10613  0.54447  1.0000
  C   C10       1.0  0.76985  0.89410  0.45569  1.0000
  C   C11       1.0  0.25340  0.96656  0.57052  1.0000
  C   C12       1.0  0.74636  0.03362  0.42937  1.0000
  C   C13       1.0  0.25956  0.87101  0.47973  1.0000
  C   C14       1.0  0.74022  0.12938  0.51994  1.0000
  C   C15       1.0  0.28558  0.74023  0.51762  1.0000
  C   C16       1.0  0.71443  0.26007  0.48183  1.0000
  C   C17       1.0  0.30628  0.70916  0.64533  1.0000
  C   C18       1.0  0.69376  0.29081  0.35408  1.0000
  C   C19       1.0  0.30081  0.80854  0.73195  1.0000
  C   C20       1.0  0.69899  0.19128  0.26764  1.0000
  N   N1        1.0  0.21885  0.17887  0.65088  1.0000
  N   N2        1.0  0.78097  0.82114  0.34943  1.0000
  N   N3        1.0  0.27167  0.93483  0.69570  1.0000
  N   N4        1.0  0.72811  0.06505  0.30412  1.0000
  O   O1        1.0  0.99398  0.26081  0.11697  1.0000
  O   O2        1.0  0.00602  0.73944  0.88362  1.0000
  O   O3        1.0  0.20998  0.23328  0.90189  1.0000
  O   O4        1.0  0.78958  0.76620  0.09847  1.0000
  O   O5        1.0  0.08077  0.54372  0.08535  1.0000
  O   O6        1.0  0.91967  0.45609  0.91465  1.0000
  O   O7        1.0  0.33842  0.35548  0.11564  1.0000
  O   O8        1.0  0.66213  0.64427  0.88411  1.0000
  O   O9        1.0  0.36759  0.54965  0.29235  1.0000
  O   O10       1.0  0.63322  0.45006  0.70743  1.0000
  O   O11       1.0  0.62594  0.50195  0.09825  1.0000
  O   O12       1.0  0.37439  0.49784  0.90119  1.0000
  O   O13       1.0  0.32668  0.71128  0.07399  1.0000
  O   O14       1.0  0.67371  0.28843  0.92588  1.0000
  O   O15       1.0  0.94264  0.07154  0.82040  1.0000
  O   O16       1.0  0.05715  0.92799  0.17950  1.0000
  O   O17       1.0  0.27722  0.97551  0.95439  1.0000
  O   O18       1.0  0.72258  0.02395  0.04549  1.0000
  O   O19       1.0  0.55143  0.06877  0.79725  1.0000
  O   O20       1.0  0.44834  0.93114  0.20270  1.0000
