data_image0
_chemical_formula_structural       Ag2H16Au2C24S2Cl10O4F6
_chemical_formula_sum              "Ag2 H16 Au2 C24 S2 Cl10 O4 F6"
_cell_length_a       8.61377
_cell_length_b       9.49086
_cell_length_c       12.1805
_cell_angle_alpha    77.8438
_cell_angle_beta     73.3952
_cell_angle_gamma    82.8076

_space_group_name_H-M_alt    "P 1"
_space_group_IT_number       1

loop_
  _space_group_symop_operation_xyz
  'x, y, z'

loop_
  _atom_site_type_symbol
  _atom_site_label
  _atom_site_symmetry_multiplicity
  _atom_site_fract_x
  _atom_site_fract_y
  _atom_site_fract_z
  _atom_site_occupancy
  Ag  Ag1       1.0  0.81930  0.01241  0.52212  1.0000
  Ag  Ag2       1.0  0.18071  0.98759  0.47788  1.0000
  H   H1        1.0  0.63826  0.29778  0.68123  1.0000
  H   H2        1.0  0.36174  0.70223  0.31877  1.0000
  H   H3        1.0  0.42399  0.33462  0.70417  1.0000
  H   H4        1.0  0.57600  0.66537  0.29583  1.0000
  H   H5        1.0  0.60103  0.09851  0.84848  1.0000
  H   H6        1.0  0.39897  0.90149  0.15152  1.0000
  H   H7        1.0  0.44490  0.22923  0.90003  1.0000
  H   H8        1.0  0.55510  0.77077  0.09997  1.0000
  H   H9        1.0  0.24489  0.11199  0.84170  1.0000
  H   H10       1.0  0.75511  0.88801  0.15830  1.0000
  H   H11       1.0  0.34489  0.97129  0.92267  1.0000
  H   H12       1.0  0.65511  0.02871  0.07733  1.0000
  H   H13       1.0  0.33478  0.93528  0.71173  1.0000
  H   H14       1.0  0.66522  0.06472  0.28827  1.0000
  H   H15       1.0  0.52711  0.89991  0.74602  1.0000
  H   H16       1.0  0.47288  0.10009  0.25398  1.0000
  Au  Au1       1.0  0.34703  0.23097  0.50197  1.0000
  Au  Au2       1.0  0.65297  0.76903  0.49803  1.0000
  C   C1        1.0  0.20856  0.33745  0.39581  1.0000
  C   C2        1.0  0.79144  0.66255  0.60419  1.0000
  C   C3        1.0  0.03861  0.34949  0.43498  1.0000
  C   C4        1.0  0.96139  0.65051  0.56502  1.0000
  C   C5        1.0  0.93948  0.41821  0.36305  1.0000
  C   C6        1.0  0.06051  0.58179  0.63695  1.0000
  C   C7        1.0  0.01260  0.48280  0.24754  1.0000
  C   C8        1.0  0.98740  0.51720  0.75247  1.0000
  C   C9        1.0  0.18311  0.47787  0.20632  1.0000
  C   C10       1.0  0.81688  0.52213  0.79368  1.0000
  C   C11       1.0  0.27763  0.40427  0.28046  1.0000
  C   C12       1.0  0.72237  0.59574  0.71954  1.0000
  C   C13       1.0  0.52078  0.24999  0.71273  1.0000
  C   C14       1.0  0.47922  0.75001  0.28727  1.0000
  C   C15       1.0  0.48827  0.15866  0.83502  1.0000
  C   C16       1.0  0.51173  0.84134  0.16498  1.0000
  C   C17       1.0  0.36319  0.05345  0.84267  1.0000
  C   C18       1.0  0.63681  0.94655  0.15733  1.0000
  C   C19       1.0  0.42744  0.98122  0.73643  1.0000
  C   C20       1.0  0.57256  0.01878  0.26357  1.0000
  C   C21       1.0  0.03231  0.08978  0.26628  1.0000
  C   C22       1.0  0.96767  0.91022  0.73372  1.0000
  C   C23       1.0  0.04780  0.12239  0.13324  1.0000
  C   C24       1.0  0.95220  0.87761  0.86676  1.0000
  S   S1        1.0  0.52007  0.12374  0.61613  1.0000
  S   S2        1.0  0.47993  0.87626  0.38386  1.0000
  Cl  Cl1       1.0  0.94697  0.27446  0.57845  1.0000
  Cl  Cl2       1.0  0.05303  0.72554  0.42156  1.0000
  Cl  Cl3       1.0  0.73171  0.42312  0.41356  1.0000
  Cl  Cl4       1.0  0.26829  0.57688  0.58645  1.0000
  Cl  Cl5       1.0  0.89565  0.56880  0.15751  1.0000
  Cl  Cl6       1.0  0.10435  0.43120  0.84249  1.0000
  Cl  Cl7       1.0  0.27329  0.56055  0.06692  1.0000
  Cl  Cl8       1.0  0.72670  0.43946  0.93308  1.0000
  Cl  Cl9       1.0  0.48685  0.39793  0.22711  1.0000
  Cl  Cl10      1.0  0.51314  0.60207  0.77289  1.0000
  O   O1        1.0  0.88905  0.09275  0.33094  1.0000
  O   O2        1.0  0.11096  0.90725  0.66906  1.0000
  O   O3        1.0  0.16592  0.05866  0.29119  1.0000
  O   O4        1.0  0.83410  0.94133  0.70881  1.0000
  F   F1        1.0  0.07648  0.99408  0.09379  1.0000
  F   F2        1.0  0.92352  0.00593  0.90621  1.0000
  F   F3        1.0  0.91246  0.19088  0.10582  1.0000
  F   F4        1.0  0.08754  0.80912  0.89418  1.0000
  F   F5        1.0  0.17443  0.20484  0.07244  1.0000
  F   F6        1.0  0.82556  0.79516  0.92756  1.0000
