data_image0
_chemical_formula_structural       Fe2H26C24S4N2
_chemical_formula_sum              "Fe2 H26 C24 S4 N2"
_cell_length_a       6.94354
_cell_length_b       7.25084
_cell_length_c       13.0566
_cell_angle_alpha    95.7876
_cell_angle_beta     105.426
_cell_angle_gamma    89.9883

_space_group_name_H-M_alt    "P 1"
_space_group_IT_number       1

loop_
  _space_group_symop_operation_xyz
  'x, y, z'

loop_
  _atom_site_type_symbol
  _atom_site_label
  _atom_site_symmetry_multiplicity
  _atom_site_fract_x
  _atom_site_fract_y
  _atom_site_fract_z
  _atom_site_occupancy
  Fe  Fe1       1.0  0.63118  0.83165  0.28308  1.0000
  Fe  Fe2       1.0  0.65125  0.33181  0.28305  1.0000
  H   H1        1.0  0.29635  0.69128  0.16951  1.0000
  H   H2        1.0  0.87303  0.19115  0.16976  1.0000
  H   H3        1.0  0.31065  0.90204  0.13168  1.0000
  H   H4        1.0  0.82103  0.40177  0.13169  1.0000
  H   H5        1.0  0.22929  0.87315  0.23598  1.0000
  H   H6        1.0  0.00621  0.37317  0.23627  1.0000
  H   H7        1.0  0.77877  0.49597  0.60712  1.0000
  H   H8        1.0  0.82808  0.99517  0.60670  1.0000
  H   H9        1.0  0.10179  0.54058  0.74975  1.0000
  H   H10       1.0  0.64888  0.03956  0.74965  1.0000
  H   H11       1.0  0.39308  0.69432  0.71328  1.0000
  H   H12       1.0  0.32147  0.19440  0.71394  1.0000
  H   H13       1.0  0.36862  0.78937  0.53242  1.0000
  H   H14       1.0  0.16417  0.28978  0.53313  1.0000
  H   H15       1.0  0.04703  0.74434  0.39057  1.0000
  H   H16       1.0  0.34309  0.24491  0.39101  1.0000
  H   H17       1.0  0.97083  0.91881  0.99423  1.0000
  H   H18       1.0  0.02340  0.41894  0.99383  1.0000
  H   H19       1.0  0.88766  0.75330  0.81240  1.0000
  H   H20       1.0  0.92493  0.25326  0.81208  1.0000
  H   H21       1.0  0.64388  0.48406  0.76339  1.0000
  H   H22       1.0  0.11962  0.98365  0.76324  1.0000
  H   H23       1.0  0.47695  0.39023  0.89776  1.0000
  H   H24       1.0  0.42092  0.88990  0.89788  1.0000
  H   H25       1.0  0.55365  0.55930  0.07850  1.0000
  H   H26       1.0  0.52467  0.05938  0.07848  1.0000
  C   C1        1.0  0.89277  0.62097  0.49114  1.0000
  C   C2        1.0  0.59802  0.12092  0.49116  1.0000
  C   C3        1.0  0.90838  0.56173  0.59210  1.0000
  C   C4        1.0  0.68362  0.06122  0.59196  1.0000
  C   C5        1.0  0.08902  0.58748  0.67140  1.0000
  C   C6        1.0  0.58281  0.08688  0.67149  1.0000
  C   C7        1.0  0.25349  0.67223  0.65070  1.0000
  C   C8        1.0  0.39791  0.17214  0.65116  1.0000
  C   C9        1.0  0.23957  0.72621  0.54935  1.0000
  C   C10       1.0  0.31009  0.22642  0.54991  1.0000
  C   C11       1.0  0.06017  0.70048  0.46963  1.0000
  C   C12       1.0  0.40920  0.20077  0.46996  1.0000
  C   C13       1.0  0.77365  0.74698  0.05092  1.0000
  C   C14       1.0  0.27697  0.24686  0.05075  1.0000
  C   C15       1.0  0.86441  0.80156  0.97380  1.0000
  C   C16       1.0  0.10943  0.30154  0.97353  1.0000
  C   C17       1.0  0.81657  0.70844  0.87107  1.0000
  C   C18       1.0  0.05485  0.20847  0.87075  1.0000
  C   C19       1.0  0.67946  0.55850  0.84321  1.0000
  C   C20       1.0  0.16407  0.05851  0.84293  1.0000
  C   C21       1.0  0.58601  0.50543  0.91852  1.0000
  C   C22       1.0  0.33267  0.00543  0.91841  1.0000
  C   C23       1.0  0.63108  0.59964  0.02112  1.0000
  C   C24       1.0  0.38995  0.09965  0.02102  1.0000
  S   S1        1.0  0.65889  0.59939  0.39368  1.0000
  S   S2        1.0  0.73406  0.09941  0.39357  1.0000
  S   S3        1.0  0.84079  0.86671  0.18045  1.0000
  S   S4        1.0  0.33916  0.36713  0.18020  1.0000
  N   N1        1.0  0.33403  0.82885  0.19697  1.0000
  N   N2        1.0  0.86259  0.32876  0.19708  1.0000
