data_image0
_chemical_formula_structural       Zn4H32C48S4N16Cl8
_chemical_formula_sum              "Zn4 H32 C48 S4 N16 Cl8"
_cell_length_a       5.36936
_cell_length_b       12.8103
_cell_length_c       20.0387
_cell_angle_alpha    100.754
_cell_angle_beta     90.0003
_cell_angle_gamma    90

_space_group_name_H-M_alt    "P 1"
_space_group_IT_number       1

loop_
  _space_group_symop_operation_xyz
  'x, y, z'

loop_
  _atom_site_type_symbol
  _atom_site_label
  _atom_site_symmetry_multiplicity
  _atom_site_fract_x
  _atom_site_fract_y
  _atom_site_fract_z
  _atom_site_occupancy
  Zn  Zn1       1.0  0.79819  0.54333  0.31972  1.0000
  Zn  Zn2       1.0  0.29818  0.95667  0.18027  1.0000
  Zn  Zn3       1.0  0.20181  0.45667  0.68027  1.0000
  Zn  Zn4       1.0  0.70181  0.04333  0.81973  1.0000
  H   H1        1.0  0.93944  0.77013  0.36091  1.0000
  H   H2        1.0  0.43944  0.72987  0.13909  1.0000
  H   H3        1.0  0.06056  0.22987  0.63909  1.0000
  H   H4        1.0  0.56057  0.27013  0.86091  1.0000
  H   H5        1.0  0.25035  0.87925  0.43735  1.0000
  H   H6        1.0  0.75035  0.62075  0.06265  1.0000
  H   H7        1.0  0.74966  0.12075  0.56264  1.0000
  H   H8        1.0  0.24965  0.37925  0.93735  1.0000
  H   H9        1.0  0.48864  0.58850  0.49899  1.0000
  H   H10       1.0  0.98865  0.91150  0.00101  1.0000
  H   H11       1.0  0.51135  0.41149  0.50101  1.0000
  H   H12       1.0  0.01134  0.08850  0.99899  1.0000
  H   H13       1.0  0.15324  0.49415  0.42477  1.0000
  H   H14       1.0  0.65324  0.00585  0.07523  1.0000
  H   H15       1.0  0.84675  0.50585  0.57523  1.0000
  H   H16       1.0  0.34675  0.99415  0.92477  1.0000
  H   H17       1.0  0.26079  0.03314  0.59133  1.0000
  H   H18       1.0  0.76079  0.46686  0.90867  1.0000
  H   H19       1.0  0.73921  0.96686  0.40867  1.0000
  H   H20       1.0  0.23921  0.53314  0.09132  1.0000
  H   H21       1.0  0.56789  0.09491  0.68491  1.0000
  H   H22       1.0  0.06789  0.40509  0.81510  1.0000
  H   H23       1.0  0.43211  0.90509  0.31510  1.0000
  H   H24       1.0  0.93211  0.59491  0.18490  1.0000
  H   H25       1.0  0.32929  0.86885  0.79365  1.0000
  H   H26       1.0  0.82929  0.63115  0.70635  1.0000
  H   H27       1.0  0.67071  0.13114  0.20635  1.0000
  H   H28       1.0  0.17071  0.36885  0.29365  1.0000
  H   H29       1.0  0.00202  0.80230  0.70873  1.0000
  H   H30       1.0  0.50202  0.69770  0.79127  1.0000
  H   H31       1.0  0.99798  0.19770  0.29127  1.0000
  H   H32       1.0  0.49799  0.30230  0.20873  1.0000
  C   C1        1.0  0.06305  0.73426  0.39354  1.0000
  C   C2        1.0  0.56305  0.76573  0.10646  1.0000
  C   C3        1.0  0.93695  0.26573  0.60646  1.0000
  C   C4        1.0  0.43695  0.23427  0.89354  1.0000
  C   C5        1.0  0.23938  0.79364  0.43476  1.0000
  C   C6        1.0  0.73939  0.70636  0.06524  1.0000
  C   C7        1.0  0.76063  0.20636  0.56524  1.0000
  C   C8        1.0  0.26062  0.29364  0.93476  1.0000
  C   C9        1.0  0.39939  0.74173  0.47344  1.0000
  C   C10       1.0  0.89940  0.75827  0.02656  1.0000
  C   C11       1.0  0.60061  0.25827  0.52656  1.0000
  C   C12       1.0  0.10060  0.24173  0.97344  1.0000
  C   C13       1.0  0.36960  0.63221  0.46996  1.0000
  C   C14       1.0  0.86960  0.86779  0.03004  1.0000
  C   C15       1.0  0.63041  0.36779  0.53004  1.0000
  C   C16       1.0  0.13040  0.13222  0.96996  1.0000
  C   C17       1.0  0.18467  0.57917  0.42864  1.0000
  C   C18       1.0  0.68468  0.92083  0.07136  1.0000
  C   C19       1.0  0.81532  0.42083  0.57136  1.0000
  C   C20       1.0  0.31531  0.07917  0.92864  1.0000
  C   C21       1.0  0.59256  0.80241  0.51493  1.0000
  C   C22       1.0  0.09256  0.69759  0.98507  1.0000
  C   C23       1.0  0.40743  0.19759  0.48506  1.0000
  C   C24       1.0  0.90744  0.30241  0.01493  1.0000
  C   C25       1.0  0.91333  0.87974  0.59116  1.0000
  C   C26       1.0  0.41334  0.62026  0.90884  1.0000
  C   C27       1.0  0.08667  0.12026  0.40884  1.0000
  C   C28       1.0  0.58667  0.37975  0.09116  1.0000
  C   C29       1.0  0.10405  0.91266  0.64268  1.0000
  C   C30       1.0  0.60406  0.58734  0.85732  1.0000
  C   C31       1.0  0.89594  0.08734  0.35732  1.0000
  C   C32       1.0  0.39595  0.41266  0.14268  1.0000
  C   C33       1.0  0.26751  0.99576  0.63592  1.0000
  C   C34       1.0  0.76751  0.50425  0.86409  1.0000
  C   C35       1.0  0.73249  0.00424  0.36409  1.0000
  C   C36       1.0  0.23249  0.49576  0.13591  1.0000
  C   C37       1.0  0.44117  0.02890  0.68669  1.0000
  C   C38       1.0  0.94117  0.47111  0.81332  1.0000
  C   C39       1.0  0.55883  0.97110  0.31331  1.0000
  C   C40       1.0  0.05883  0.52890  0.18668  1.0000
  C   C41       1.0  0.30729  0.90254  0.74795  1.0000
  C   C42       1.0  0.80730  0.59747  0.75205  1.0000
  C   C43       1.0  0.69270  0.09746  0.25205  1.0000
  C   C44       1.0  0.19271  0.40254  0.24795  1.0000
  C   C45       1.0  0.12604  0.86555  0.70011  1.0000
  C   C46       1.0  0.62605  0.63445  0.79990  1.0000
  C   C47       1.0  0.87395  0.13445  0.29990  1.0000
  C   C48       1.0  0.37396  0.36556  0.20010  1.0000
  S   S1        1.0  0.75557  0.75974  0.57964  1.0000
  S   S2        1.0  0.25557  0.74025  0.92036  1.0000
  S   S3        1.0  0.24444  0.24025  0.42036  1.0000
  S   S4        1.0  0.74444  0.25975  0.07964  1.0000
  N   N1        1.0  0.03490  0.62896  0.39076  1.0000
  N   N2        1.0  0.53491  0.87104  0.10924  1.0000
  N   N3        1.0  0.96509  0.37104  0.60924  1.0000
  N   N4        1.0  0.46510  0.12895  0.89076  1.0000
  N   N5        1.0  0.66210  0.89789  0.50572  1.0000
  N   N6        1.0  0.16211  0.60210  0.99428  1.0000
  N   N7        1.0  0.33789  0.10210  0.49428  1.0000
  N   N8        1.0  0.83790  0.39790  0.00572  1.0000
  N   N9        1.0  0.83987  0.94185  0.54896  1.0000
  N   N10       1.0  0.33987  0.55815  0.95104  1.0000
  N   N11       1.0  0.16013  0.05815  0.45104  1.0000
  N   N12       1.0  0.66014  0.44185  0.04896  1.0000
  N   N13       1.0  0.46211  0.98254  0.74151  1.0000
  N   N14       1.0  0.96211  0.51746  0.75849  1.0000
  N   N15       1.0  0.53789  0.01745  0.25849  1.0000
  N   N16       1.0  0.03789  0.48255  0.24151  1.0000
  Cl  Cl1       1.0  0.54934  0.65702  0.28265  1.0000
  Cl  Cl2       1.0  0.04933  0.84299  0.21734  1.0000
  Cl  Cl3       1.0  0.45066  0.34298  0.71734  1.0000
  Cl  Cl4       1.0  0.95066  0.15701  0.78266  1.0000
  Cl  Cl5       1.0  0.69683  0.39919  0.36369  1.0000
  Cl  Cl6       1.0  0.19683  0.10081  0.13631  1.0000
  Cl  Cl7       1.0  0.30316  0.60081  0.63631  1.0000
  Cl  Cl8       1.0  0.80317  0.89919  0.86370  1.0000
