data_image0
_chemical_formula_structural       Ca2H20C26S4N8O12F12
_chemical_formula_sum              "Ca2 H20 C26 S4 N8 O12 F12"
_cell_length_a       8.84675
_cell_length_b       10.2111
_cell_length_c       11.1233
_cell_angle_alpha    91.6733
_cell_angle_beta     98.143
_cell_angle_gamma    100.607

_space_group_name_H-M_alt    "P 1"
_space_group_IT_number       1

loop_
  _space_group_symop_operation_xyz
  'x, y, z'

loop_
  _atom_site_type_symbol
  _atom_site_label
  _atom_site_symmetry_multiplicity
  _atom_site_fract_x
  _atom_site_fract_y
  _atom_site_fract_z
  _atom_site_occupancy
  Ca  Ca1       1.0  0.20279  0.32826  0.46649  1.0000
  Ca  Ca2       1.0  0.79721  0.67174  0.53351  1.0000
  H   H1        1.0  0.20834  0.38432  0.16190  1.0000
  H   H2        1.0  0.79166  0.61568  0.83810  1.0000
  H   H3        1.0  0.29733  0.30395  0.97476  1.0000
  H   H4        1.0  0.70267  0.69605  0.02524  1.0000
  H   H5        1.0  0.41691  0.09780  0.98430  1.0000
  H   H6        1.0  0.58309  0.90220  0.01570  1.0000
  H   H7        1.0  0.43688  0.98067  0.17925  1.0000
  H   H8        1.0  0.56312  0.01933  0.82075  1.0000
  H   H9        1.0  0.28266  0.92515  0.56616  1.0000
  H   H10       1.0  0.71735  0.07485  0.43384  1.0000
  H   H11       1.0  0.17598  0.89446  0.75687  1.0000
  H   H12       1.0  0.82402  0.10554  0.24313  1.0000
  H   H13       1.0  0.01625  0.96466  0.90697  1.0000
  H   H14       1.0  0.98374  0.03534  0.09303  1.0000
  H   H15       1.0  0.91303  0.17825  0.87563  1.0000
  H   H16       1.0  0.08697  0.82175  0.12436  1.0000
  H   H17       1.0  0.97569  0.30885  0.69693  1.0000
  H   H18       1.0  0.02431  0.69115  0.30307  1.0000
  H   H19       1.0  0.36005  0.96059  0.37699  1.0000
  H   H20       1.0  0.63995  0.03941  0.62301  1.0000
  C   C1        1.0  0.25892  0.29481  0.16148  1.0000
  C   C2        1.0  0.74108  0.70519  0.83852  1.0000
  C   C3        1.0  0.30871  0.25005  0.05744  1.0000
  C   C4        1.0  0.69129  0.74995  0.94256  1.0000
  C   C5        1.0  0.37492  0.13545  0.06344  1.0000
  C   C6        1.0  0.62509  0.86455  0.93656  1.0000
  C   C7        1.0  0.38612  0.06993  0.17068  1.0000
  C   C8        1.0  0.61388  0.93007  0.82932  1.0000
  C   C9        1.0  0.32943  0.12163  0.27025  1.0000
  C   C10       1.0  0.67057  0.87837  0.72975  1.0000
  C   C11       1.0  0.24080  0.01951  0.55653  1.0000
  C   C12       1.0  0.75920  0.98049  0.44347  1.0000
  C   C13       1.0  0.15581  0.06312  0.64803  1.0000
  C   C14       1.0  0.84419  0.93688  0.35197  1.0000
  C   C15       1.0  0.12912  0.98542  0.74745  1.0000
  C   C16       1.0  0.87088  0.01459  0.25255  1.0000
  C   C17       1.0  0.04111  0.02575  0.83078  1.0000
  C   C18       1.0  0.95889  0.97425  0.16922  1.0000
  C   C19       1.0  0.98335  0.14302  0.81346  1.0000
  C   C20       1.0  0.01665  0.85699  0.18654  1.0000
  C   C21       1.0  0.01764  0.21627  0.71328  1.0000
  C   C22       1.0  0.98236  0.78373  0.28672  1.0000
  C   C23       1.0  0.57013  0.33571  0.78481  1.0000
  C   C24       1.0  0.42986  0.66429  0.21518  1.0000
  C   C25       1.0  0.84205  0.40574  0.16174  1.0000
  C   C26       1.0  0.15795  0.59426  0.83826  1.0000
  S   S1        1.0  0.60930  0.34460  0.62493  1.0000
  S   S2        1.0  0.39070  0.65540  0.37507  1.0000
  S   S3        1.0  0.81734  0.38102  0.32453  1.0000
  S   S4        1.0  0.18266  0.61898  0.67548  1.0000
  N   N1        1.0  0.26868  0.23329  0.26706  1.0000
  N   N2        1.0  0.73132  0.76671  0.73294  1.0000
  N   N3        1.0  0.33214  0.05419  0.37617  1.0000
  N   N4        1.0  0.66786  0.94581  0.62383  1.0000
  N   N5        1.0  0.25891  0.09281  0.46431  1.0000
  N   N6        1.0  0.74109  0.90719  0.53569  1.0000
  N   N7        1.0  0.10203  0.17882  0.63214  1.0000
  N   N8        1.0  0.89797  0.82118  0.36786  1.0000
  O   O1        1.0  0.46098  0.36023  0.55736  1.0000
  O   O2        1.0  0.53902  0.63978  0.44264  1.0000
  O   O3        1.0  0.65633  0.21831  0.60218  1.0000
  O   O4        1.0  0.34367  0.78169  0.39782  1.0000
  O   O5        1.0  0.95295  0.32286  0.37005  1.0000
  O   O6        1.0  0.04705  0.67714  0.62995  1.0000
  O   O7        1.0  0.66974  0.29088  0.31783  1.0000
  O   O8        1.0  0.33026  0.70912  0.68217  1.0000
  O   O9        1.0  0.82616  0.51657  0.37442  1.0000
  O   O10       1.0  0.17384  0.48343  0.62558  1.0000
  O   O11       1.0  0.73295  0.46195  0.62947  1.0000
  O   O12       1.0  0.26705  0.53805  0.37053  1.0000
  F   F1        1.0  0.46188  0.22415  0.79528  1.0000
  F   F2        1.0  0.53812  0.77585  0.20471  1.0000
  F   F3        1.0  0.51567  0.44250  0.82152  1.0000
  F   F4        1.0  0.48433  0.55750  0.17848  1.0000
  F   F5        1.0  0.70203  0.32721  0.86070  1.0000
  F   F6        1.0  0.29797  0.67279  0.13930  1.0000
  F   F7        1.0  0.72368  0.45688  0.10274  1.0000
  F   F8        1.0  0.27632  0.54312  0.89726  1.0000
  F   F9        1.0  0.84399  0.28651  0.10414  1.0000
  F   F10       1.0  0.15601  0.71349  0.89586  1.0000
  F   F11       1.0  0.97742  0.48958  0.15154  1.0000
  F   F12       1.0  0.02258  0.51041  0.84846  1.0000
