data_image0
_chemical_formula_structural       Li4H20C20N8O20
_chemical_formula_sum              "Li4 H20 C20 N8 O20"
_cell_length_a       3.50128
_cell_length_b       10.3041
_cell_length_c       17.9368
_cell_angle_alpha    90.0003
_cell_angle_beta     89.9994
_cell_angle_gamma    89.3771

_space_group_name_H-M_alt    "P 1"
_space_group_IT_number       1

loop_
  _space_group_symop_operation_xyz
  'x, y, z'

loop_
  _atom_site_type_symbol
  _atom_site_label
  _atom_site_symmetry_multiplicity
  _atom_site_fract_x
  _atom_site_fract_y
  _atom_site_fract_z
  _atom_site_occupancy
  Li  Li1       1.0  0.46807  0.13254  0.53338  1.0000
  Li  Li2       1.0  0.03194  0.36746  0.03338  1.0000
  Li  Li3       1.0  0.53194  0.86745  0.46662  1.0000
  Li  Li4       1.0  0.96807  0.63255  0.96662  1.0000
  H   H1        1.0  0.06681  0.46371  0.23816  1.0000
  H   H2        1.0  0.43319  0.03628  0.73816  1.0000
  H   H3        1.0  0.93319  0.53629  0.76184  1.0000
  H   H4        1.0  0.56682  0.96372  0.26184  1.0000
  H   H5        1.0  0.62675  0.54957  0.44448  1.0000
  H   H6        1.0  0.87323  0.95044  0.94449  1.0000
  H   H7        1.0  0.37324  0.45043  0.55551  1.0000
  H   H8        1.0  0.12678  0.04957  0.05552  1.0000
  H   H9        1.0  0.98126  0.23375  0.25811  1.0000
  H   H10       1.0  0.51875  0.26625  0.75812  1.0000
  H   H11       1.0  0.01874  0.76625  0.74189  1.0000
  H   H12       1.0  0.48124  0.73375  0.24189  1.0000
  H   H13       1.0  0.00936  0.08790  0.62360  1.0000
  H   H14       1.0  0.49063  0.41210  0.12360  1.0000
  H   H15       1.0  0.99065  0.91210  0.37640  1.0000
  H   H16       1.0  0.50937  0.58790  0.87640  1.0000
  H   H17       1.0  0.99980  0.24045  0.61613  1.0000
  H   H18       1.0  0.50020  0.25955  0.11614  1.0000
  H   H19       1.0  0.00020  0.75955  0.38386  1.0000
  H   H20       1.0  0.49979  0.74045  0.88386  1.0000
  C   C1        1.0  0.84643  0.52362  0.33867  1.0000
  C   C2        1.0  0.65354  0.97639  0.83868  1.0000
  C   C3        1.0  0.15355  0.47638  0.66132  1.0000
  C   C4        1.0  0.34647  0.02362  0.16133  1.0000
  C   C5        1.0  0.63417  0.34979  0.42397  1.0000
  C   C6        1.0  0.86581  0.15021  0.92397  1.0000
  C   C7        1.0  0.36581  0.65020  0.57603  1.0000
  C   C8        1.0  0.13421  0.84980  0.07603  1.0000
  C   C9        1.0  0.74086  0.25574  0.36733  1.0000
  C   C10       1.0  0.75914  0.24426  0.86733  1.0000
  C   C11       1.0  0.25914  0.74426  0.63267  1.0000
  C   C12       1.0  0.24087  0.75575  0.13267  1.0000
  C   C13       1.0  0.89242  0.30130  0.30172  1.0000
  C   C14       1.0  0.60758  0.19870  0.80172  1.0000
  C   C15       1.0  0.10758  0.69870  0.69828  1.0000
  C   C16       1.0  0.39242  0.80130  0.19828  1.0000
  C   C17       1.0  0.70063  0.11217  0.37676  1.0000
  C   C18       1.0  0.79938  0.38783  0.87676  1.0000
  C   C19       1.0  0.29938  0.88784  0.62324  1.0000
  C   C20       1.0  0.20062  0.61217  0.12324  1.0000
  N   N1        1.0  0.94080  0.42891  0.28760  1.0000
  N   N2        1.0  0.55918  0.07109  0.78760  1.0000
  N   N3        1.0  0.05918  0.57109  0.71240  1.0000
  N   N4        1.0  0.44083  0.92891  0.21240  1.0000
  N   N5        1.0  0.69738  0.47930  0.40472  1.0000
  N   N6        1.0  0.80259  0.02071  0.90472  1.0000
  N   N7        1.0  0.30260  0.52070  0.59528  1.0000
  N   N8        1.0  0.19742  0.97930  0.09528  1.0000
  O   O1        1.0  0.89677  0.64035  0.32521  1.0000
  O   O2        1.0  0.60320  0.85965  0.82522  1.0000
  O   O3        1.0  0.10321  0.35965  0.67478  1.0000
  O   O4        1.0  0.39679  0.14035  0.17479  1.0000
  O   O5        1.0  0.49159  0.32737  0.48670  1.0000
  O   O6        1.0  0.00840  0.17264  0.98670  1.0000
  O   O7        1.0  0.50840  0.67264  0.51330  1.0000
  O   O8        1.0  0.99162  0.82736  0.01330  1.0000
  O   O9        1.0  0.54640  0.06851  0.43501  1.0000
  O   O10       1.0  0.95361  0.43148  0.93502  1.0000
  O   O11       1.0  0.45360  0.93150  0.56498  1.0000
  O   O12       1.0  0.04639  0.56851  0.06498  1.0000
  O   O13       1.0  0.83406  0.04002  0.32428  1.0000
  O   O14       1.0  0.66597  0.45997  0.82428  1.0000
  O   O15       1.0  0.16595  0.95998  0.67572  1.0000
  O   O16       1.0  0.33405  0.54003  0.17572  1.0000
  O   O17       1.0  0.95804  0.15974  0.58724  1.0000
  O   O18       1.0  0.54195  0.34025  0.08724  1.0000
  O   O19       1.0  0.04196  0.84025  0.41276  1.0000
  O   O20       1.0  0.45804  0.65975  0.91276  1.0000
