data_image0
_chemical_formula_structural       Ni3H14C16O12
_chemical_formula_sum              "Ni3 H14 C16 O12"
_cell_length_a       6.19735
_cell_length_b       6.62172
_cell_length_c       10.2055
_cell_angle_alpha    82.823
_cell_angle_beta     83.2539
_cell_angle_gamma    85.5882

_space_group_name_H-M_alt    "P 1"
_space_group_IT_number       1

loop_
  _space_group_symop_operation_xyz
  'x, y, z'

loop_
  _atom_site_type_symbol
  _atom_site_label
  _atom_site_symmetry_multiplicity
  _atom_site_fract_x
  _atom_site_fract_y
  _atom_site_fract_z
  _atom_site_occupancy
  Ni  Ni1       1.0  0.52148  0.26189  0.99470  1.0000
  Ni  Ni2       1.0  0.47853  0.73811  0.00530  1.0000
  Ni  Ni3       1.0  0.00000  0.50000  1.00000  1.0000
  H   H1        1.0  0.40658  0.30939  0.41242  1.0000
  H   H2        1.0  0.59341  0.69061  0.58758  1.0000
  H   H3        1.0  0.26834  0.33652  0.65048  1.0000
  H   H4        1.0  0.73166  0.66348  0.34952  1.0000
  H   H5        1.0  0.63473  0.19056  0.57550  1.0000
  H   H6        1.0  0.36527  0.80944  0.42450  1.0000
  H   H7        1.0  0.77131  0.16864  0.33632  1.0000
  H   H8        1.0  0.22869  0.83136  0.66368  1.0000
  H   H9        1.0  0.66601  0.46322  0.15091  1.0000
  H   H10       1.0  0.33399  0.53678  0.84909  1.0000
  H   H11       1.0  0.81986  0.91526  0.97624  1.0000
  H   H12       1.0  0.18014  0.08474  0.02377  1.0000
  H   H13       1.0  0.75913  0.94124  0.12844  1.0000
  H   H14       1.0  0.24088  0.05876  0.87157  1.0000
  C   C1        1.0  0.18337  0.22404  0.21930  1.0000
  C   C2        1.0  0.81662  0.77596  0.78069  1.0000
  C   C3        1.0  0.09806  0.23684  0.36060  1.0000
  C   C4        1.0  0.90194  0.76316  0.63940  1.0000
  C   C5        1.0  0.23824  0.28205  0.44952  1.0000
  C   C6        1.0  0.76176  0.71795  0.55047  1.0000
  C   C7        1.0  0.16124  0.29727  0.58144  1.0000
  C   C8        1.0  0.83876  0.70273  0.41856  1.0000
  C   C9        1.0  0.94268  0.26645  0.62685  1.0000
  C   C10       1.0  0.05732  0.73355  0.37315  1.0000
  C   C11       1.0  0.80308  0.21790  0.53827  1.0000
  C   C12       1.0  0.19692  0.78210  0.46173  1.0000
  C   C13       1.0  0.87928  0.20521  0.40580  1.0000
  C   C14       1.0  0.12072  0.79479  0.59420  1.0000
  C   C15       1.0  0.86020  0.29151  0.76851  1.0000
  C   C16       1.0  0.13980  0.70849  0.23149  1.0000
  O   O1        1.0  0.04601  0.21062  0.13501  1.0000
  O   O2        1.0  0.95400  0.78938  0.86499  1.0000
  O   O3        1.0  0.38779  0.22680  0.18795  1.0000
  O   O4        1.0  0.61220  0.77320  0.81205  1.0000
  O   O5        1.0  0.00169  0.32960  0.84210  1.0000
  O   O6        1.0  0.99831  0.67039  0.15790  1.0000
  O   O7        1.0  0.65769  0.27380  0.80445  1.0000
  O   O8        1.0  0.34231  0.72620  0.19555  1.0000
  O   O9        1.0  0.68489  0.48611  0.05408  1.0000
  O   O10       1.0  0.31511  0.51389  0.94593  1.0000
  O   O11       1.0  0.70078  0.97013  0.04269  1.0000
  O   O12       1.0  0.29922  0.02987  0.95731  1.0000
