data_image0
_chemical_formula_structural       Ga2H8C8N4Cl6
_chemical_formula_sum              "Ga2 H8 C8 N4 Cl6"
_cell_length_a       6.35341
_cell_length_b       6.3757
_cell_length_c       11.7083
_cell_angle_alpha    100.148
_cell_angle_beta     89.9949
_cell_angle_gamma    119.887

_space_group_name_H-M_alt    "P 1"
_space_group_IT_number       1

loop_
  _space_group_symop_operation_xyz
  'x, y, z'

loop_
  _atom_site_type_symbol
  _atom_site_label
  _atom_site_symmetry_multiplicity
  _atom_site_fract_x
  _atom_site_fract_y
  _atom_site_fract_z
  _atom_site_occupancy
  Ga  Ga1       1.0  0.28281  0.00002  0.74998  1.0000
  Ga  Ga2       1.0  0.71720  0.99997  0.25001  1.0000
  H   H1        1.0  0.66191  0.22211  0.97017  1.0000
  H   H2        1.0  0.43979  0.77781  0.52981  1.0000
  H   H3        1.0  0.33809  0.77788  0.02984  1.0000
  H   H4        1.0  0.56021  0.22222  0.47018  1.0000
  H   H5        1.0  0.20091  0.44191  0.84937  1.0000
  H   H6        1.0  0.75902  0.55827  0.65060  1.0000
  H   H7        1.0  0.79910  0.55808  0.15063  1.0000
  H   H8        1.0  0.24096  0.44175  0.34939  1.0000
  C   C1        1.0  0.58849  0.34575  0.98396  1.0000
  C   C2        1.0  0.24271  0.65418  0.51603  1.0000
  C   C3        1.0  0.41154  0.65424  0.01605  1.0000
  C   C4        1.0  0.75726  0.34584  0.48397  1.0000
  C   C5        1.0  0.33473  0.46800  0.91672  1.0000
  C   C6        1.0  0.86670  0.53211  0.58328  1.0000
  C   C7        1.0  0.66530  0.53199  0.08330  1.0000
  C   C8        1.0  0.13326  0.46789  0.41672  1.0000
  N   N1        1.0  0.42403  0.31482  0.90118  1.0000
  N   N2        1.0  0.10916  0.68519  0.59879  1.0000
  N   N3        1.0  0.57602  0.68516  0.09883  1.0000
  N   N4        1.0  0.89081  0.31483  0.40120  1.0000
  Cl  Cl1       1.0  0.23390  0.22321  0.63916  1.0000
  Cl  Cl2       1.0  0.01078  0.77687  0.86082  1.0000
  Cl  Cl3       1.0  0.76610  0.77682  0.36085  1.0000
  Cl  Cl4       1.0  0.98921  0.22310  0.13918  1.0000
  Cl  Cl5       1.0  0.62923  0.00004  0.74996  1.0000
  Cl  Cl6       1.0  0.37078  0.99995  0.25001  1.0000
