data_image0
_chemical_formula_structural       Tl4H24C24N12Cl12
_chemical_formula_sum              "Tl4 H24 C24 N12 Cl12"
_cell_length_a       7.7137
_cell_length_b       11.6507
_cell_length_c       11.7566
_cell_angle_alpha    90
_cell_angle_beta     90
_cell_angle_gamma    92.8286

_space_group_name_H-M_alt    "P 1"
_space_group_IT_number       1

loop_
  _space_group_symop_operation_xyz
  'x, y, z'

loop_
  _atom_site_type_symbol
  _atom_site_label
  _atom_site_symmetry_multiplicity
  _atom_site_fract_x
  _atom_site_fract_y
  _atom_site_fract_z
  _atom_site_occupancy
  Tl  Tl1       1.0  0.98172  0.26090  0.73767  1.0000
  Tl  Tl2       1.0  0.51828  0.23910  0.23767  1.0000
  Tl  Tl3       1.0  0.01828  0.73910  0.26233  1.0000
  Tl  Tl4       1.0  0.48172  0.76090  0.76233  1.0000
  H   H1        1.0  0.32686  0.40513  0.84357  1.0000
  H   H2        1.0  0.17314  0.09487  0.34357  1.0000
  H   H3        1.0  0.67314  0.59487  0.15643  1.0000
  H   H4        1.0  0.82686  0.90513  0.65643  1.0000
  H   H5        1.0  0.31452  0.15441  0.59080  1.0000
  H   H6        1.0  0.18548  0.34559  0.09080  1.0000
  H   H7        1.0  0.68548  0.84559  0.40920  1.0000
  H   H8        1.0  0.81452  0.65441  0.90920  1.0000
  H   H9        1.0  0.65589  0.40418  0.84754  1.0000
  H   H10       1.0  0.84411  0.09582  0.34754  1.0000
  H   H11       1.0  0.34411  0.59582  0.15246  1.0000
  H   H12       1.0  0.15589  0.90418  0.65246  1.0000
  H   H13       1.0  0.64395  0.16193  0.58686  1.0000
  H   H14       1.0  0.85605  0.33807  0.08687  1.0000
  H   H15       1.0  0.35605  0.83807  0.41313  1.0000
  H   H16       1.0  0.14395  0.66193  0.91313  1.0000
  H   H17       1.0  0.80322  0.50989  0.66108  1.0000
  H   H18       1.0  0.69678  0.99011  0.16108  1.0000
  H   H19       1.0  0.19678  0.49011  0.33892  1.0000
  H   H20       1.0  0.30322  0.00989  0.83892  1.0000
  H   H21       1.0  0.81307  0.66192  0.50950  1.0000
  H   H22       1.0  0.68693  0.83808  0.00950  1.0000
  H   H23       1.0  0.18693  0.33808  0.49050  1.0000
  H   H24       1.0  0.31307  0.16192  0.99050  1.0000
  C   C1        1.0  0.39830  0.34946  0.78785  1.0000
  C   C2        1.0  0.10170  0.15054  0.28785  1.0000
  C   C3        1.0  0.60170  0.65054  0.21215  1.0000
  C   C4        1.0  0.89830  0.84946  0.71215  1.0000
  C   C5        1.0  0.39156  0.21164  0.64654  1.0000
  C   C6        1.0  0.10844  0.28836  0.14654  1.0000
  C   C7        1.0  0.60844  0.78836  0.35346  1.0000
  C   C8        1.0  0.89156  0.71164  0.85346  1.0000
  C   C9        1.0  0.57894  0.35020  0.78885  1.0000
  C   C10       1.0  0.92106  0.14980  0.28885  1.0000
  C   C11       1.0  0.42106  0.64980  0.21115  1.0000
  C   C12       1.0  0.07894  0.85020  0.71115  1.0000
  C   C13       1.0  0.57245  0.21484  0.64519  1.0000
  C   C14       1.0  0.92755  0.28516  0.14520  1.0000
  C   C15       1.0  0.42755  0.78516  0.35481  1.0000
  C   C16       1.0  0.07245  0.71484  0.85480  1.0000
  C   C17       1.0  0.89198  0.50540  0.58933  1.0000
  C   C18       1.0  0.60802  0.99460  0.08933  1.0000
  C   C19       1.0  0.10802  0.49460  0.41067  1.0000
  C   C20       1.0  0.39198  0.00540  0.91067  1.0000
  C   C21       1.0  0.89738  0.58981  0.50517  1.0000
  C   C22       1.0  0.60262  0.91019  0.00516  1.0000
  C   C23       1.0  0.10262  0.41019  0.49483  1.0000
  C   C24       1.0  0.39738  0.08981  0.99483  1.0000
  N   N1        1.0  0.30653  0.27826  0.71840  1.0000
  N   N2        1.0  0.19347  0.22174  0.21840  1.0000
  N   N3        1.0  0.69347  0.72174  0.28160  1.0000
  N   N4        1.0  0.80653  0.77826  0.78160  1.0000
  N   N5        1.0  0.66373  0.28230  0.71811  1.0000
  N   N6        1.0  0.83627  0.21770  0.21811  1.0000
  N   N7        1.0  0.33627  0.71770  0.28189  1.0000
  N   N8        1.0  0.16373  0.78230  0.78189  1.0000
  N   N9        1.0  0.99462  0.41628  0.58346  1.0000
  N   N10       1.0  0.50537  0.08372  0.08346  1.0000
  N   N11       1.0  0.00538  0.58372  0.41654  1.0000
  N   N12       1.0  0.49463  0.91628  0.91654  1.0000
  Cl  Cl1       1.0  0.97853  0.12425  0.57270  1.0000
  Cl  Cl2       1.0  0.52147  0.37575  0.07270  1.0000
  Cl  Cl3       1.0  0.02147  0.87575  0.42730  1.0000
  Cl  Cl4       1.0  0.47853  0.62425  0.92730  1.0000
  Cl  Cl5       1.0  0.99541  0.42797  0.87268  1.0000
  Cl  Cl6       1.0  0.50459  0.07203  0.37268  1.0000
  Cl  Cl7       1.0  0.00459  0.57203  0.12732  1.0000
  Cl  Cl8       1.0  0.49541  0.92797  0.62732  1.0000
  Cl  Cl9       1.0  0.95967  0.10769  0.89016  1.0000
  Cl  Cl10      1.0  0.54033  0.39231  0.39016  1.0000
  Cl  Cl11      1.0  0.04033  0.89231  0.10984  1.0000
  Cl  Cl12      1.0  0.45967  0.60769  0.60984  1.0000
