data_image0
_chemical_formula_structural       Ga2H8C8Br6N4
_chemical_formula_sum              "Ga2 H8 C8 Br6 N4"
_cell_length_a       6.58119
_cell_length_b       6.58134
_cell_length_c       11.9403
_cell_angle_alpha    79.2097
_cell_angle_beta     79.2124
_cell_angle_gamma    61.5497

_space_group_name_H-M_alt    "P 1"
_space_group_IT_number       1

loop_
  _space_group_symop_operation_xyz
  'x, y, z'

loop_
  _atom_site_type_symbol
  _atom_site_label
  _atom_site_symmetry_multiplicity
  _atom_site_fract_x
  _atom_site_fract_y
  _atom_site_fract_z
  _atom_site_occupancy
  Ga  Ga1       1.0  0.28866  0.71133  0.25000  1.0000
  Ga  Ga2       1.0  0.71133  0.28867  0.75000  1.0000
  H   H1        1.0  0.41951  0.35617  0.47351  1.0000
  H   H2        1.0  0.64383  0.58054  0.02648  1.0000
  H   H3        1.0  0.58053  0.64382  0.52649  1.0000
  H   H4        1.0  0.35615  0.41947  0.97353  1.0000
  H   H5        1.0  0.77883  0.77381  0.34789  1.0000
  H   H6        1.0  0.22616  0.22116  0.15213  1.0000
  H   H7        1.0  0.22121  0.22618  0.65212  1.0000
  H   H8        1.0  0.77380  0.77885  0.84787  1.0000
  C   C1        1.0  0.23136  0.42200  0.48557  1.0000
  C   C2        1.0  0.57798  0.76870  0.01442  1.0000
  C   C3        1.0  0.76870  0.57796  0.51445  1.0000
  C   C4        1.0  0.42199  0.23130  0.98559  1.0000
  C   C5        1.0  0.87818  0.65120  0.41584  1.0000
  C   C6        1.0  0.34879  0.12182  0.08417  1.0000
  C   C7        1.0  0.12192  0.34879  0.58415  1.0000
  C   C8        1.0  0.65119  0.87819  0.91583  1.0000
  Br  Br1       1.0  0.63845  0.36153  0.24999  1.0000
  Br  Br2       1.0  0.36154  0.63845  0.74998  1.0000
  Br  Br3       1.0  0.24376  0.98468  0.36796  1.0000
  Br  Br4       1.0  0.01526  0.75629  0.13203  1.0000
  Br  Br5       1.0  0.75625  0.01530  0.63203  1.0000
  Br  Br6       1.0  0.98469  0.24373  0.86797  1.0000
  N   N1        1.0  0.10941  0.57264  0.40181  1.0000
  N   N2        1.0  0.42738  0.89056  0.09818  1.0000
  N   N3        1.0  0.89057  0.42738  0.59819  1.0000
  N   N4        1.0  0.57259  0.10946  0.90182  1.0000
