data_image0
_chemical_formula_structural       Zn4P8H40C32O16
_chemical_formula_sum              "Zn4 P8 H40 C32 O16"
_cell_length_a       7.2837
_cell_length_b       10.4616
_cell_length_c       15.8645
_cell_angle_alpha    105.374
_cell_angle_beta     90.0005
_cell_angle_gamma    90

_space_group_name_H-M_alt    "P 1"
_space_group_IT_number       1

loop_
  _space_group_symop_operation_xyz
  'x, y, z'

loop_
  _atom_site_type_symbol
  _atom_site_label
  _atom_site_symmetry_multiplicity
  _atom_site_fract_x
  _atom_site_fract_y
  _atom_site_fract_z
  _atom_site_occupancy
  Zn  Zn1       1.0  0.41298  0.62162  0.41776  1.0000
  Zn  Zn2       1.0  0.91298  0.87838  0.58223  1.0000
  Zn  Zn3       1.0  0.58702  0.37838  0.58223  1.0000
  Zn  Zn4       1.0  0.08702  0.12162  0.41776  1.0000
  P   P1        1.0  0.09420  0.80824  0.39651  1.0000
  P   P2        1.0  0.59421  0.69176  0.60350  1.0000
  P   P3        1.0  0.90579  0.19176  0.60349  1.0000
  P   P4        1.0  0.40579  0.30824  0.39650  1.0000
  P   P5        1.0  0.78216  0.93883  0.31333  1.0000
  P   P6        1.0  0.28217  0.56117  0.68666  1.0000
  P   P7        1.0  0.21783  0.06117  0.68666  1.0000
  P   P8        1.0  0.71783  0.43883  0.31334  1.0000
  H   H1        1.0  0.02087  0.79320  0.24650  1.0000
  H   H2        1.0  0.52087  0.70680  0.75350  1.0000
  H   H3        1.0  0.97914  0.20680  0.75350  1.0000
  H   H4        1.0  0.47913  0.29320  0.24650  1.0000
  H   H5        1.0  0.85230  0.71052  0.29513  1.0000
  H   H6        1.0  0.35230  0.78948  0.70487  1.0000
  H   H7        1.0  0.14770  0.28948  0.70487  1.0000
  H   H8        1.0  0.64770  0.21052  0.29513  1.0000
  H   H9        1.0  0.54430  0.84030  0.37948  1.0000
  H   H10       1.0  0.04430  0.65970  0.62052  1.0000
  H   H11       1.0  0.45571  0.15971  0.62052  1.0000
  H   H12       1.0  0.95570  0.34030  0.37948  1.0000
  H   H13       1.0  0.50467  0.01217  0.38922  1.0000
  H   H14       1.0  0.00467  0.48783  0.61078  1.0000
  H   H15       1.0  0.49534  0.98783  0.61078  1.0000
  H   H16       1.0  0.99533  0.51217  0.38922  1.0000
  H   H17       1.0  0.67171  0.96499  0.45745  1.0000
  H   H18       1.0  0.17171  0.53500  0.54255  1.0000
  H   H19       1.0  0.32829  0.03501  0.54255  1.0000
  H   H20       1.0  0.82829  0.46500  0.45745  1.0000
  H   H21       1.0  0.46739  0.77031  0.23406  1.0000
  H   H22       1.0  0.96741  0.72970  0.76595  1.0000
  H   H23       1.0  0.53260  0.22970  0.76595  1.0000
  H   H24       1.0  0.03261  0.27031  0.23407  1.0000
  H   H25       1.0  0.34010  0.71576  0.08382  1.0000
  H   H26       1.0  0.84013  0.78424  0.91618  1.0000
  H   H27       1.0  0.65988  0.28424  0.91618  1.0000
  H   H28       1.0  0.15991  0.21578  0.08383  1.0000
  H   H29       1.0  0.47154  0.81664  0.97226  1.0000
  H   H30       1.0  0.97157  0.68335  0.02774  1.0000
  H   H31       1.0  0.52844  0.18335  0.02774  1.0000
  H   H32       1.0  0.02846  0.31665  0.97227  1.0000
  H   H33       1.0  0.73065  0.97810  0.01206  1.0000
  H   H34       1.0  0.23068  0.52188  0.98794  1.0000
  H   H35       1.0  0.26932  0.02189  0.98794  1.0000
  H   H36       1.0  0.76933  0.47810  0.01206  1.0000
  H   H37       1.0  0.86156  0.03213  0.16240  1.0000
  H   H38       1.0  0.36158  0.46786  0.83759  1.0000
  H   H39       1.0  0.13842  0.96787  0.83759  1.0000
  H   H40       1.0  0.63842  0.53213  0.16240  1.0000
  C   C1        1.0  0.93671  0.80059  0.30517  1.0000
  C   C2        1.0  0.43671  0.69942  0.69483  1.0000
  C   C3        1.0  0.06329  0.19941  0.69483  1.0000
  C   C4        1.0  0.56329  0.30059  0.30517  1.0000
  C   C5        1.0  0.60904  0.93802  0.39218  1.0000
  C   C6        1.0  0.10905  0.56198  0.60782  1.0000
  C   C7        1.0  0.39096  0.06198  0.60782  1.0000
  C   C8        1.0  0.89096  0.43802  0.39218  1.0000
  C   C9        1.0  0.67509  0.90347  0.20703  1.0000
  C   C10       1.0  0.17511  0.59653  0.79297  1.0000
  C   C11       1.0  0.32490  0.09653  0.79297  1.0000
  C   C12       1.0  0.82490  0.40347  0.20703  1.0000
  C   C13       1.0  0.52712  0.81492  0.18543  1.0000
  C   C14       1.0  0.02714  0.68508  0.81457  1.0000
  C   C15       1.0  0.47287  0.18508  0.81457  1.0000
  C   C16       1.0  0.97288  0.31493  0.18544  1.0000
  C   C17       1.0  0.45512  0.78429  0.10091  1.0000
  C   C18       1.0  0.95515  0.71571  0.89909  1.0000
  C   C19       1.0  0.54485  0.21571  0.89909  1.0000
  C   C20       1.0  0.04488  0.28430  0.10092  1.0000
  C   C21       1.0  0.52886  0.84155  0.03817  1.0000
  C   C22       1.0  0.02888  0.65845  0.96183  1.0000
  C   C23       1.0  0.47112  0.15845  0.96183  1.0000
  C   C24       1.0  0.97114  0.34156  0.03818  1.0000
  C   C25       1.0  0.67461  0.93125  0.06024  1.0000
  C   C26       1.0  0.17464  0.56874  0.93976  1.0000
  C   C27       1.0  0.32536  0.06875  0.93976  1.0000
  C   C28       1.0  0.82538  0.43125  0.06024  1.0000
  C   C29       1.0  0.74830  0.96195  0.14440  1.0000
  C   C30       1.0  0.24831  0.53804  0.85560  1.0000
  C   C31       1.0  0.25169  0.03805  0.85560  1.0000
  C   C32       1.0  0.75170  0.46195  0.14440  1.0000
  O   O1        1.0  0.24073  0.70441  0.35547  1.0000
  O   O2        1.0  0.74073  0.79559  0.64453  1.0000
  O   O3        1.0  0.75927  0.29559  0.64453  1.0000
  O   O4        1.0  0.25927  0.20441  0.35546  1.0000
  O   O5        1.0  0.17451  0.94857  0.42547  1.0000
  O   O6        1.0  0.67451  0.55143  0.57454  1.0000
  O   O7        1.0  0.82549  0.05142  0.57453  1.0000
  O   O8        1.0  0.32548  0.44857  0.42546  1.0000
  O   O9        1.0  0.98504  0.76895  0.46871  1.0000
  O   O10       1.0  0.48505  0.73105  0.53129  1.0000
  O   O11       1.0  0.01495  0.23105  0.53129  1.0000
  O   O12       1.0  0.51495  0.26896  0.46871  1.0000
  O   O13       1.0  0.88373  0.07133  0.32926  1.0000
  O   O14       1.0  0.38374  0.42867  0.67073  1.0000
  O   O15       1.0  0.11627  0.92867  0.67073  1.0000
  O   O16       1.0  0.61627  0.57133  0.32927  1.0000
