data_image0
_chemical_formula_structural       Y4P8H28C8O32
_chemical_formula_sum              "Y4 P8 H28 C8 O32"
_cell_length_a       9.71023
_cell_length_b       10.8107
_cell_length_c       8.06616
_cell_angle_alpha    101.032
_cell_angle_beta     89.998
_cell_angle_gamma    90.0008

_space_group_name_H-M_alt    "P 1"
_space_group_IT_number       1

loop_
  _space_group_symop_operation_xyz
  'x, y, z'

loop_
  _atom_site_type_symbol
  _atom_site_label
  _atom_site_symmetry_multiplicity
  _atom_site_fract_x
  _atom_site_fract_y
  _atom_site_fract_z
  _atom_site_occupancy
  Y   Y1        1.0  0.18321  0.07143  0.56114  1.0000
  Y   Y2        1.0  0.68322  0.42859  0.43888  1.0000
  Y   Y3        1.0  0.81679  0.92859  0.43887  1.0000
  Y   Y4        1.0  0.31679  0.57142  0.56112  1.0000
  P   P1        1.0  0.29028  0.86941  0.80977  1.0000
  P   P2        1.0  0.79028  0.63059  0.19023  1.0000
  P   P3        1.0  0.70972  0.13059  0.19023  1.0000
  P   P4        1.0  0.20972  0.36941  0.80977  1.0000
  P   P5        1.0  0.03852  0.78692  0.58874  1.0000
  P   P6        1.0  0.53852  0.71307  0.41127  1.0000
  P   P7        1.0  0.96148  0.21306  0.41127  1.0000
  P   P8        1.0  0.46147  0.28692  0.58872  1.0000
  H   H1        1.0  0.08099  0.82670  0.05851  1.0000
  H   H2        1.0  0.58099  0.67331  0.94149  1.0000
  H   H3        1.0  0.91903  0.17331  0.94149  1.0000
  H   H4        1.0  0.41902  0.32671  0.05851  1.0000
  H   H5        1.0  0.07313  0.68915  0.89917  1.0000
  H   H6        1.0  0.57313  0.81085  0.10085  1.0000
  H   H7        1.0  0.92687  0.31085  0.10084  1.0000
  H   H8        1.0  0.42689  0.18915  0.89915  1.0000
  H   H9        1.0  0.93084  0.79341  0.92983  1.0000
  H   H10       1.0  0.43084  0.70660  0.07020  1.0000
  H   H11       1.0  0.06917  0.20658  0.07020  1.0000
  H   H12       1.0  0.56917  0.29341  0.92980  1.0000
  H   H13       1.0  0.40836  0.98684  0.34206  1.0000
  H   H14       1.0  0.90837  0.51316  0.65795  1.0000
  H   H15       1.0  0.59163  0.01316  0.65794  1.0000
  H   H16       1.0  0.09162  0.48684  0.34206  1.0000
  H   H17       1.0  0.31474  0.92646  0.10312  1.0000
  H   H18       1.0  0.81475  0.57356  0.89688  1.0000
  H   H19       1.0  0.68527  0.07354  0.89688  1.0000
  H   H20       1.0  0.18526  0.42645  0.10311  1.0000
  H   H21       1.0  0.33404  0.85740  0.34903  1.0000
  H   H22       1.0  0.83404  0.64260  0.65097  1.0000
  H   H23       1.0  0.66596  0.14260  0.65096  1.0000
  H   H24       1.0  0.16596  0.35740  0.34904  1.0000
  H   H25       1.0  0.09209  0.03867  0.92196  1.0000
  H   H26       1.0  0.59206  0.46134  0.07806  1.0000
  H   H27       1.0  0.90793  0.96132  0.07804  1.0000
  H   H28       1.0  0.40792  0.53868  0.92194  1.0000
  C   C1        1.0  0.10250  0.85933  0.80024  1.0000
  C   C2        1.0  0.60251  0.64066  0.19977  1.0000
  C   C3        1.0  0.89750  0.14065  0.19977  1.0000
  C   C4        1.0  0.39750  0.35934  0.80023  1.0000
  C   C5        1.0  0.04376  0.78905  0.93047  1.0000
  C   C6        1.0  0.54375  0.71096  0.06953  1.0000
  C   C7        1.0  0.95625  0.21095  0.06954  1.0000
  C   C8        1.0  0.45625  0.28905  0.93046  1.0000
  O   O1        1.0  0.05503  0.98947  0.81678  1.0000
  O   O2        1.0  0.55504  0.51053  0.18326  1.0000
  O   O3        1.0  0.94498  0.01052  0.18322  1.0000
  O   O4        1.0  0.44496  0.48948  0.81676  1.0000
  O   O5        1.0  0.32383  0.95151  0.98985  1.0000
  O   O6        1.0  0.82380  0.54848  0.01013  1.0000
  O   O7        1.0  0.67621  0.04848  0.01015  1.0000
  O   O8        1.0  0.17619  0.45152  0.98985  1.0000
  O   O9        1.0  0.88021  0.77960  0.60504  1.0000
  O   O10       1.0  0.38021  0.72039  0.39495  1.0000
  O   O11       1.0  0.11980  0.22041  0.39499  1.0000
  O   O12       1.0  0.61978  0.27963  0.60504  1.0000
  O   O13       1.0  0.31998  0.94270  0.31680  1.0000
  O   O14       1.0  0.81997  0.55729  0.68318  1.0000
  O   O15       1.0  0.68002  0.05730  0.68321  1.0000
  O   O16       1.0  0.18000  0.44270  0.31677  1.0000
  O   O17       1.0  0.06409  0.88546  0.47501  1.0000
  O   O18       1.0  0.56411  0.61453  0.52500  1.0000
  O   O19       1.0  0.93591  0.11454  0.52501  1.0000
  O   O20       1.0  0.43589  0.38546  0.47501  1.0000
  O   O21       1.0  0.34622  0.73579  0.78145  1.0000
  O   O22       1.0  0.84622  0.76422  0.21851  1.0000
  O   O23       1.0  0.65376  0.26420  0.21855  1.0000
  O   O24       1.0  0.15377  0.23580  0.78147  1.0000
  O   O25       1.0  0.11002  0.66146  0.53400  1.0000
  O   O26       1.0  0.60998  0.83851  0.46599  1.0000
  O   O27       1.0  0.88999  0.33853  0.46601  1.0000
  O   O28       1.0  0.39000  0.16147  0.53399  1.0000
  O   O29       1.0  0.33203  0.95322  0.68680  1.0000
  O   O30       1.0  0.83201  0.54680  0.31319  1.0000
  O   O31       1.0  0.66796  0.04677  0.31321  1.0000
  O   O32       1.0  0.16796  0.45321  0.68679  1.0000
