data_image0
_chemical_formula_structural       Cd2H56C52N8O8
_chemical_formula_sum              "Cd2 H56 C52 N8 O8"
_cell_length_a       9.21335
_cell_length_b       10.7221
_cell_length_c       13.1568
_cell_angle_alpha    74.7128
_cell_angle_beta     73.9124
_cell_angle_gamma    83.0929

_space_group_name_H-M_alt    "P 1"
_space_group_IT_number       1

loop_
  _space_group_symop_operation_xyz
  'x, y, z'

loop_
  _atom_site_type_symbol
  _atom_site_label
  _atom_site_symmetry_multiplicity
  _atom_site_fract_x
  _atom_site_fract_y
  _atom_site_fract_z
  _atom_site_occupancy
  Cd  Cd1       1.0  0.18232  0.38474  0.99481  1.0000
  Cd  Cd2       1.0  0.81768  0.61526  0.00519  1.0000
  H   H1        1.0  0.42788  0.65927  0.59310  1.0000
  H   H2        1.0  0.57212  0.34073  0.40690  1.0000
  H   H3        1.0  0.90367  0.11176  0.39272  1.0000
  H   H4        1.0  0.09633  0.88824  0.60728  1.0000
  H   H5        1.0  0.40050  0.61002  0.98012  1.0000
  H   H6        1.0  0.59950  0.38998  0.01988  1.0000
  H   H7        1.0  0.25269  0.50848  0.74362  1.0000
  H   H8        1.0  0.74732  0.49152  0.25637  1.0000
  H   H9        1.0  0.08059  0.26943  0.24935  1.0000
  H   H10       1.0  0.91940  0.73057  0.75065  1.0000
  H   H11       1.0  0.57423  0.76689  0.84264  1.0000
  H   H12       1.0  0.42577  0.23311  0.15736  1.0000
  H   H13       1.0  0.32810  0.67220  0.14810  1.0000
  H   H14       1.0  0.67190  0.32780  0.85190  1.0000
  H   H15       1.0  0.20695  0.81434  0.13981  1.0000
  H   H16       1.0  0.79305  0.18566  0.86018  1.0000
  H   H17       1.0  0.79245  0.99956  0.13237  1.0000
  H   H18       1.0  0.20755  0.00044  0.86763  1.0000
  H   H19       1.0  0.27496  0.48971  0.32205  1.0000
  H   H20       1.0  0.72504  0.51029  0.67795  1.0000
  H   H21       1.0  0.11807  0.50631  0.43273  1.0000
  H   H22       1.0  0.88193  0.49369  0.56727  1.0000
  H   H23       1.0  0.33325  0.93932  0.34037  1.0000
  H   H24       1.0  0.66675  0.06068  0.65962  1.0000
  H   H25       1.0  0.21272  0.97459  0.25044  1.0000
  H   H26       1.0  0.78728  0.02541  0.74956  1.0000
  H   H27       1.0  0.69584  0.86390  0.64718  1.0000
  H   H28       1.0  0.30416  0.13610  0.35282  1.0000
  H   H29       1.0  0.97241  0.16402  0.99980  1.0000
  H   H30       1.0  0.02759  0.83597  0.00020  1.0000
  H   H31       1.0  0.66570  0.89493  0.32312  1.0000
  H   H32       1.0  0.33430  0.10507  0.67688  1.0000
  H   H33       1.0  0.95039  0.54312  0.31258  1.0000
  H   H34       1.0  0.04961  0.45688  0.68742  1.0000
  H   H35       1.0  0.95090  0.68529  0.20882  1.0000
  H   H36       1.0  0.04911  0.31471  0.79118  1.0000
  H   H37       1.0  0.42890  0.94160  0.08660  1.0000
  H   H38       1.0  0.57110  0.05839  0.91340  1.0000
  H   H39       1.0  0.53196  0.94382  0.18195  1.0000
  H   H40       1.0  0.46804  0.05618  0.81805  1.0000
  H   H41       1.0  0.50507  0.73845  0.35324  1.0000
  H   H42       1.0  0.49493  0.26156  0.64676  1.0000
  H   H43       1.0  0.50195  0.62709  0.27571  1.0000
  H   H44       1.0  0.49804  0.37291  0.72429  1.0000
  H   H45       1.0  0.98528  0.83439  0.29570  1.0000
  H   H46       1.0  0.01472  0.16561  0.70430  1.0000
  H   H47       1.0  0.94562  0.71049  0.41749  1.0000
  H   H48       1.0  0.05439  0.28951  0.58251  1.0000
  H   H49       1.0  0.06529  0.89327  0.44279  1.0000
  H   H50       1.0  0.93471  0.10673  0.55722  1.0000
  H   H51       1.0  0.35883  0.54681  0.46919  1.0000
  H   H52       1.0  0.64117  0.45319  0.53082  1.0000
  H   H53       1.0  0.12049  0.66767  0.54512  1.0000
  H   H54       1.0  0.87952  0.33233  0.45488  1.0000
  H   H55       1.0  0.27858  0.76485  0.51040  1.0000
  H   H56       1.0  0.72142  0.23516  0.48960  1.0000
  C   C1        1.0  0.51407  0.72696  0.70514  1.0000
  C   C2        1.0  0.48593  0.27305  0.29486  1.0000
  C   C3        1.0  0.42186  0.65218  0.67808  1.0000
  C   C4        1.0  0.57814  0.34782  0.32192  1.0000
  C   C5        1.0  0.91554  0.12177  0.30643  1.0000
  C   C6        1.0  0.08446  0.87823  0.69357  1.0000
  C   C7        1.0  0.13351  0.66410  0.28837  1.0000
  C   C8        1.0  0.86649  0.33591  0.71163  1.0000
  C   C9        1.0  0.40754  0.62477  0.89367  1.0000
  C   C10       1.0  0.59246  0.37523  0.10633  1.0000
  C   C11       1.0  0.83146  0.04601  0.27343  1.0000
  C   C12       1.0  0.16854  0.95400  0.72657  1.0000
  C   C13       1.0  0.32609  0.56839  0.76094  1.0000
  C   C14       1.0  0.67391  0.43161  0.23906  1.0000
  C   C15       1.0  0.09447  0.52981  0.15933  1.0000
  C   C16       1.0  0.90553  0.47019  0.84067  1.0000
  C   C17       1.0  0.01326  0.20807  0.22781  1.0000
  C   C18       1.0  0.98674  0.79193  0.77219  1.0000
  C   C19       1.0  0.50556  0.71270  0.81560  1.0000
  C   C20       1.0  0.49444  0.28730  0.18440  1.0000
  C   C21       1.0  0.61112  0.79590  0.09463  1.0000
  C   C22       1.0  0.38888  0.20410  0.90537  1.0000
  C   C23       1.0  0.36060  0.80182  0.24122  1.0000
  C   C24       1.0  0.63940  0.19818  0.75878  1.0000
  C   C25       1.0  0.25889  0.73827  0.19584  1.0000
  C   C26       1.0  0.74110  0.26173  0.80416  1.0000
  C   C27       1.0  0.85194  0.05988  0.16121  1.0000
  C   C28       1.0  0.14805  0.94012  0.83878  1.0000
  C   C29       1.0  0.20749  0.55961  0.36638  1.0000
  C   C30       1.0  0.79251  0.44039  0.63362  1.0000
  C   C31       1.0  0.26155  0.89561  0.30591  1.0000
  C   C32       1.0  0.73845  0.10439  0.69409  1.0000
  C   C33       1.0  0.61593  0.81787  0.62189  1.0000
  C   C34       1.0  0.38407  0.18213  0.37812  1.0000
  C   C35       1.0  0.95257  0.14929  0.08778  1.0000
  C   C36       1.0  0.04743  0.85071  0.91222  1.0000
  C   C37       1.0  0.72768  0.95303  0.35294  1.0000
  C   C38       1.0  0.27232  0.04697  0.64707  1.0000
  C   C39       1.0  0.02580  0.60780  0.24346  1.0000
  C   C40       1.0  0.97420  0.39219  0.75654  1.0000
  C   C41       1.0  0.48335  0.87994  0.14828  1.0000
  C   C42       1.0  0.51665  0.12005  0.85172  1.0000
  C   C43       1.0  0.43083  0.69534  0.32033  1.0000
  C   C44       1.0  0.56917  0.30466  0.67967  1.0000
  C   C45       1.0  0.03808  0.76039  0.35177  1.0000
  C   C46       1.0  0.96192  0.23961  0.64823  1.0000
  C   C47       1.0  0.13606  0.82387  0.39862  1.0000
  C   C48       1.0  0.86393  0.17613  0.60138  1.0000
  C   C49       1.0  0.30630  0.62281  0.41367  1.0000
  C   C50       1.0  0.69371  0.37719  0.58633  1.0000
  C   C51       1.0  0.20874  0.71880  0.47637  1.0000
  C   C52       1.0  0.79126  0.28120  0.52363  1.0000
  N   N1        1.0  0.03123  0.22230  0.12024  1.0000
  N   N2        1.0  0.96877  0.77770  0.87976  1.0000
  N   N3        1.0  0.31946  0.55386  0.86708  1.0000
  N   N4        1.0  0.68054  0.44614  0.13292  1.0000
  N   N5        1.0  0.61118  0.84640  0.52083  1.0000
  N   N6        1.0  0.38882  0.15360  0.47917  1.0000
  N   N7        1.0  0.71316  0.93813  0.45604  1.0000
  N   N8        1.0  0.28684  0.06187  0.54396  1.0000
  O   O1        1.0  0.21350  0.45798  0.16143  1.0000
  O   O2        1.0  0.78650  0.54202  0.83857  1.0000
  O   O3        1.0  0.02306  0.53659  0.08649  1.0000
  O   O4        1.0  0.97695  0.46341  0.91351  1.0000
  O   O5        1.0  0.73395  0.77683  0.12452  1.0000
  O   O6        1.0  0.26605  0.22317  0.87548  1.0000
  O   O7        1.0  0.58850  0.74394  0.02345  1.0000
  O   O8        1.0  0.41150  0.25606  0.97655  1.0000
