data_image0
_chemical_formula_structural       Zn2H56C52N8O8
_chemical_formula_sum              "Zn2 H56 C52 N8 O8"
_cell_length_a       9.8253
_cell_length_b       10.1372
_cell_length_c       12.5384
_cell_angle_alpha    80.5167
_cell_angle_beta     68.2277
_cell_angle_gamma    83.9108

_space_group_name_H-M_alt    "P 1"
_space_group_IT_number       1

loop_
  _space_group_symop_operation_xyz
  'x, y, z'

loop_
  _atom_site_type_symbol
  _atom_site_label
  _atom_site_symmetry_multiplicity
  _atom_site_fract_x
  _atom_site_fract_y
  _atom_site_fract_z
  _atom_site_occupancy
  Zn  Zn1       1.0  0.31391  0.12024  0.05799  1.0000
  Zn  Zn2       1.0  0.68609  0.87976  0.94201  1.0000
  H   H1        1.0  0.91545  0.41777  0.04581  1.0000
  H   H2        1.0  0.08455  0.58223  0.95419  1.0000
  H   H3        1.0  0.98376  0.47500  0.14249  1.0000
  H   H4        1.0  0.01624  0.52500  0.85751  1.0000
  H   H5        1.0  0.42151  0.20133  0.39161  1.0000
  H   H6        1.0  0.57849  0.79866  0.60838  1.0000
  H   H7        1.0  0.48037  0.27377  0.24547  1.0000
  H   H8        1.0  0.51962  0.72623  0.75453  1.0000
  H   H9        1.0  0.75074  0.22796  0.11106  1.0000
  H   H10       1.0  0.24926  0.77204  0.88894  1.0000
  H   H11       1.0  0.86830  0.12196  0.16830  1.0000
  H   H12       1.0  0.13170  0.87804  0.83169  1.0000
  H   H13       1.0  0.18887  0.03688  0.31604  1.0000
  H   H14       1.0  0.81114  0.96311  0.68396  1.0000
  H   H15       1.0  0.10026  0.91417  0.05073  1.0000
  H   H16       1.0  0.89974  0.08583  0.94927  1.0000
  H   H17       1.0  0.93790  0.73933  0.18386  1.0000
  H   H18       1.0  0.06210  0.26066  0.81614  1.0000
  H   H19       1.0  0.66699  0.45729  0.17220  1.0000
  H   H20       1.0  0.33301  0.54272  0.82780  1.0000
  H   H21       1.0  0.73005  0.51565  0.27011  1.0000
  H   H22       1.0  0.26995  0.48435  0.72989  1.0000
  H   H23       1.0  0.52820  0.31470  0.06421  1.0000
  H   H24       1.0  0.47179  0.68530  0.93579  1.0000
  H   H25       1.0  0.69375  0.93803  0.24331  1.0000
  H   H26       1.0  0.30626  0.06197  0.75669  1.0000
  H   H27       1.0  0.50735  0.96932  0.33539  1.0000
  H   H28       1.0  0.49266  0.03067  0.66460  1.0000
  H   H29       1.0  0.76464  0.18828  0.50849  1.0000
  H   H30       1.0  0.23536  0.81172  0.49151  1.0000
  H   H31       1.0  0.62887  0.35370  0.64713  1.0000
  H   H32       1.0  0.37113  0.64631  0.35287  1.0000
  H   H33       1.0  0.82651  0.61602  0.38653  1.0000
  H   H34       1.0  0.17348  0.38398  0.61348  1.0000
  H   H35       1.0  0.90187  0.36612  0.35417  1.0000
  H   H36       1.0  0.09813  0.63388  0.64583  1.0000
  H   H37       1.0  0.96099  0.20616  0.31200  1.0000
  H   H38       1.0  0.03900  0.79384  0.68800  1.0000
  H   H39       1.0  0.82466  0.60221  0.73210  1.0000
  H   H40       1.0  0.17534  0.39779  0.26790  1.0000
  H   H41       1.0  0.59516  0.05159  0.47026  1.0000
  H   H42       1.0  0.40484  0.94841  0.52974  1.0000
  H   H43       1.0  0.77900  0.02031  0.37899  1.0000
  H   H44       1.0  0.22100  0.97969  0.62101  1.0000
  H   H45       1.0  0.02721  0.86483  0.46478  1.0000
  H   H46       1.0  0.97279  0.13517  0.53522  1.0000
  H   H47       1.0  0.51111  0.28469  0.53211  1.0000
  H   H48       1.0  0.48889  0.71531  0.46789  1.0000
  H   H49       1.0  0.63961  0.41300  0.48253  1.0000
  H   H50       1.0  0.36038  0.58700  0.51747  1.0000
  H   H51       1.0  0.47287  0.44174  0.37102  1.0000
  H   H52       1.0  0.52713  0.55826  0.62898  1.0000
  H   H53       1.0  0.70775  0.48211  0.92934  1.0000
  H   H54       1.0  0.29224  0.51789  0.07066  1.0000
  H   H55       1.0  0.43975  0.20611  0.79402  1.0000
  H   H56       1.0  0.56025  0.79389  0.20598  1.0000
  C   C1        1.0  0.95467  0.38557  0.11781  1.0000
  C   C2        1.0  0.04534  0.61443  0.88219  1.0000
  C   C3        1.0  0.51691  0.24434  0.31938  1.0000
  C   C4        1.0  0.48309  0.75565  0.68062  1.0000
  C   C5        1.0  0.77754  0.19841  0.18992  1.0000
  C   C6        1.0  0.22246  0.80159  0.81007  1.0000
  C   C7        1.0  0.13043  0.96812  0.29208  1.0000
  C   C8        1.0  0.86958  0.03188  0.70792  1.0000
  C   C9        1.0  0.64437  0.13780  0.29033  1.0000
  C   C10       1.0  0.35564  0.86220  0.70966  1.0000
  C   C11       1.0  0.68265  0.43142  0.77657  1.0000
  C   C12       1.0  0.31734  0.56859  0.22343  1.0000
  C   C13       1.0  0.08192  0.89971  0.14296  1.0000
  C   C14       1.0  0.91808  0.10028  0.85704  1.0000
  C   C15       1.0  0.82692  0.32116  0.22136  1.0000
  C   C16       1.0  0.17308  0.67884  0.77864  1.0000
  C   C17       1.0  0.55300  0.03628  0.15548  1.0000
  C   C18       1.0  0.44701  0.96372  0.84451  1.0000
  C   C19       1.0  0.09093  0.29389  0.07620  1.0000
  C   C20       1.0  0.90908  0.70611  0.92380  1.0000
  C   C21       1.0  0.99123  0.80114  0.21893  1.0000
  C   C22       1.0  0.00878  0.19886  0.78107  1.0000
  C   C23       1.0  0.69666  0.42526  0.24958  1.0000
  C   C24       1.0  0.30334  0.57475  0.75041  1.0000
  C   C25       1.0  0.55287  0.32775  0.97103  1.0000
  C   C26       1.0  0.44712  0.67226  0.02897  1.0000
  C   C27       1.0  0.59990  0.01145  0.26021  1.0000
  C   C28       1.0  0.40010  0.98855  0.73979  1.0000
  C   C29       1.0  0.73448  0.21934  0.43141  1.0000
  C   C30       1.0  0.26552  0.78066  0.56859  1.0000
  C   C31       1.0  0.97293  0.78448  0.33674  1.0000
  C   C32       1.0  0.02707  0.21552  0.66326  1.0000
  C   C33       1.0  0.60852  0.34866  0.73888  1.0000
  C   C34       1.0  0.39148  0.65134  0.26112  1.0000
  C   C35       1.0  0.88635  0.67731  0.41765  1.0000
  C   C36       1.0  0.11364  0.32269  0.58235  1.0000
  C   C37       1.0  0.86683  0.27904  0.33039  1.0000
  C   C38       1.0  0.13317  0.72096  0.66961  1.0000
  C   C39       1.0  0.77816  0.53382  0.69635  1.0000
  C   C40       1.0  0.22184  0.46618  0.30365  1.0000
  C   C41       1.0  0.68835  0.09720  0.39766  1.0000
  C   C42       1.0  0.31165  0.90280  0.60234  1.0000
  C   C43       1.0  0.04228  0.87292  0.37347  1.0000
  C   C44       1.0  0.95772  0.12708  0.62653  1.0000
  C   C45       1.0  0.60687  0.32495  0.45840  1.0000
  C   C46       1.0  0.39313  0.67505  0.54160  1.0000
  C   C47       1.0  0.56467  0.36662  0.35130  1.0000
  C   C48       1.0  0.43533  0.63338  0.64870  1.0000
  C   C49       1.0  0.65391  0.41885  0.89605  1.0000
  C   C50       1.0  0.34608  0.58116  0.10395  1.0000
  C   C51       1.0  0.50551  0.26494  0.82010  1.0000
  C   C52       1.0  0.49449  0.73506  0.17990  1.0000
  N   N1        1.0  0.47773  0.25321  0.93462  1.0000
  N   N2        1.0  0.52226  0.74679  0.06538  1.0000
  N   N3        1.0  0.15254  0.98020  0.17807  1.0000
  N   N4        1.0  0.84747  0.01980  0.82193  1.0000
  N   N5        1.0  0.88262  0.65326  0.52335  1.0000
  N   N6        1.0  0.11738  0.34674  0.47665  1.0000
  N   N7        1.0  0.79744  0.54682  0.58706  1.0000
  N   N8        1.0  0.20256  0.45318  0.41295  1.0000
  O   O1        1.0  0.18023  0.28199  0.13176  1.0000
  O   O2        1.0  0.81977  0.71802  0.86824  1.0000
  O   O3        1.0  0.11277  0.22939  0.99284  1.0000
  O   O4        1.0  0.88724  0.77061  0.00717  1.0000
  O   O5        1.0  0.64657  0.01323  0.05783  1.0000
  O   O6        1.0  0.35343  0.98677  0.94217  1.0000
  O   O7        1.0  0.42143  0.08146  0.17320  1.0000
  O   O8        1.0  0.57858  0.91854  0.82680  1.0000
