data_image0
_chemical_formula_structural       Cd4H40C56N16O12
_chemical_formula_sum              "Cd4 H40 C56 N16 O12"
_cell_length_a       7.3915
_cell_length_b       13.6258
_cell_length_c       13.6708
_cell_angle_alpha    77.0797
_cell_angle_beta     90.2762
_cell_angle_gamma    78.8649

_space_group_name_H-M_alt    "P 1"
_space_group_IT_number       1

loop_
  _space_group_symop_operation_xyz
  'x, y, z'

loop_
  _atom_site_type_symbol
  _atom_site_label
  _atom_site_symmetry_multiplicity
  _atom_site_fract_x
  _atom_site_fract_y
  _atom_site_fract_z
  _atom_site_occupancy
  Cd  Cd1       1.0  0.45934  0.25615  0.74436  1.0000
  Cd  Cd2       1.0  0.54066  0.74385  0.25564  1.0000
  Cd  Cd3       1.0  0.95864  0.24524  0.64896  1.0000
  Cd  Cd4       1.0  0.04136  0.75476  0.35104  1.0000
  H   H1        1.0  0.18266  0.38975  0.53038  1.0000
  H   H2        1.0  0.81734  0.61025  0.46961  1.0000
  H   H3        1.0  0.97844  0.42847  0.48866  1.0000
  H   H4        1.0  0.02155  0.57157  0.51136  1.0000
  H   H5        1.0  0.96055  0.18324  0.45859  1.0000
  H   H6        1.0  0.03945  0.81676  0.54141  1.0000
  H   H7        1.0  0.52171  0.82238  0.02875  1.0000
  H   H8        1.0  0.47828  0.17763  0.97124  1.0000
  H   H9        1.0  0.01937  0.74648  0.90475  1.0000
  H   H10       1.0  0.98062  0.25352  0.09524  1.0000
  H   H11       1.0  0.25235  0.32128  0.21021  1.0000
  H   H12       1.0  0.74767  0.67871  0.78980  1.0000
  H   H13       1.0  0.75106  0.10505  0.33857  1.0000
  H   H14       1.0  0.24894  0.89495  0.66143  1.0000
  H   H15       1.0  0.26889  0.67444  0.83287  1.0000
  H   H16       1.0  0.73111  0.32557  0.16713  1.0000
  H   H17       1.0  0.38375  0.89168  0.39982  1.0000
  H   H18       1.0  0.61627  0.10832  0.60018  1.0000
  H   H19       1.0  0.00330  0.47422  0.17199  1.0000
  H   H20       1.0  0.99671  0.52578  0.82801  1.0000
  H   H21       1.0  0.48379  0.24998  0.32649  1.0000
  H   H22       1.0  0.51622  0.75001  0.67351  1.0000
  H   H23       1.0  0.10056  0.10656  0.85998  1.0000
  H   H24       1.0  0.89943  0.89344  0.14001  1.0000
  H   H25       1.0  0.73590  0.48879  0.28174  1.0000
  H   H26       1.0  0.26411  0.51120  0.71825  1.0000
  H   H27       1.0  0.37136  0.96532  0.90386  1.0000
  H   H28       1.0  0.62864  0.03468  0.09613  1.0000
  H   H29       1.0  0.74644  0.88955  0.86341  1.0000
  H   H30       1.0  0.25355  0.11045  0.13659  1.0000
  H   H31       1.0  0.79144  0.52424  0.98723  1.0000
  H   H32       1.0  0.20856  0.47576  0.01277  1.0000
  H   H33       1.0  0.53165  0.52704  0.86929  1.0000
  H   H34       1.0  0.46835  0.47297  0.13071  1.0000
  H   H35       1.0  0.11741  0.03466  0.38963  1.0000
  H   H36       1.0  0.88260  0.96534  0.61037  1.0000
  H   H37       1.0  0.68607  0.39174  0.79518  1.0000
  H   H38       1.0  0.31392  0.60826  0.20482  1.0000
  H   H39       1.0  0.56046  0.46764  0.70232  1.0000
  H   H40       1.0  0.43954  0.53236  0.29768  1.0000
  C   C1        1.0  0.97136  0.24806  0.39697  1.0000
  C   C2        1.0  0.02865  0.75194  0.60303  1.0000
  C   C3        1.0  0.90584  0.00738  0.85744  1.0000
  C   C4        1.0  0.09415  0.99262  0.14255  1.0000
  C   C5        1.0  0.58423  0.98924  0.36821  1.0000
  C   C6        1.0  0.41578  0.01076  0.63180  1.0000
  C   C7        1.0  0.52311  0.75737  0.99414  1.0000
  C   C8        1.0  0.47687  0.24263  0.00586  1.0000
  C   C9        1.0  0.67195  0.67308  0.01552  1.0000
  C   C10       1.0  0.32804  0.32693  0.98447  1.0000
  C   C11       1.0  0.82165  0.67043  0.08691  1.0000
  C   C12       1.0  0.17834  0.32957  0.91309  1.0000
  C   C13       1.0  0.74408  0.90509  0.36694  1.0000
  C   C14       1.0  0.25592  0.09492  0.63305  1.0000
  C   C15       1.0  0.67935  0.34730  0.44456  1.0000
  C   C16       1.0  0.32065  0.65270  0.55544  1.0000
  C   C17       1.0  0.21486  0.84515  0.90668  1.0000
  C   C18       1.0  0.78513  0.15485  0.09332  1.0000
  C   C19       1.0  0.03705  0.82555  0.89440  1.0000
  C   C20       1.0  0.96294  0.17445  0.10559  1.0000
  C   C21       1.0  0.12654  0.24237  0.33849  1.0000
  C   C22       1.0  0.87347  0.75762  0.66151  1.0000
  C   C23       1.0  0.37513  0.75850  0.92900  1.0000
  C   C24       1.0  0.62486  0.24151  0.07099  1.0000
  C   C25       1.0  0.13533  0.32580  0.25809  1.0000
  C   C26       1.0  0.86468  0.67420  0.74191  1.0000
  C   C27       1.0  0.74219  0.09133  0.82584  1.0000
  C   C28       1.0  0.25781  0.90867  0.17415  1.0000
  C   C29       1.0  0.61194  0.09056  0.34976  1.0000
  C   C30       1.0  0.38806  0.90944  0.65025  1.0000
  C   C31       1.0  0.83265  0.33777  0.37797  1.0000
  C   C32       1.0  0.16735  0.66223  0.62203  1.0000
  C   C33       1.0  0.38139  0.67421  0.88473  1.0000
  C   C34       1.0  0.61861  0.32580  0.11526  1.0000
  C   C35       1.0  0.40553  0.97037  0.38405  1.0000
  C   C36       1.0  0.59448  0.02963  0.61595  1.0000
  C   C37       1.0  0.99491  0.41256  0.23668  1.0000
  C   C38       1.0  0.00510  0.58743  0.76332  1.0000
  C   C39       1.0  0.46226  0.17122  0.34291  1.0000
  C   C40       1.0  0.53775  0.82878  0.65710  1.0000
  C   C41       1.0  0.08251  0.02756  0.86974  1.0000
  C   C42       1.0  0.91748  0.97244  0.13025  1.0000
  C   C43       1.0  0.84433  0.42010  0.29725  1.0000
  C   C44       1.0  0.15567  0.57989  0.70275  1.0000
  C   C45       1.0  0.23521  0.94749  0.89569  1.0000
  C   C46       1.0  0.76479  0.05251  0.10431  1.0000
  C   C47       1.0  0.88393  0.90528  0.87192  1.0000
  C   C48       1.0  0.11606  0.09471  0.12808  1.0000
  C   C49       1.0  0.67633  0.58994  0.97022  1.0000
  C   C50       1.0  0.32367  0.41006  0.02978  1.0000
  C   C51       1.0  0.53025  0.59135  0.90466  1.0000
  C   C52       1.0  0.46975  0.40865  0.09534  1.0000
  C   C53       1.0  0.25566  0.05117  0.37945  1.0000
  C   C54       1.0  0.74435  0.94883  0.62055  1.0000
  C   C55       1.0  0.28185  0.15302  0.35617  1.0000
  C   C56       1.0  0.71816  0.84698  0.64383  1.0000
  N   N1        1.0  0.96878  0.68778  0.21580  1.0000
  N   N2        1.0  0.03121  0.31222  0.78420  1.0000
  N   N3        1.0  0.00261  0.63558  0.07677  1.0000
  N   N4        1.0  0.99738  0.36442  0.92322  1.0000
  N   N5        1.0  0.50527  0.40001  0.41818  1.0000
  N   N6        1.0  0.49473  0.59998  0.58181  1.0000
  N   N7        1.0  0.69423  0.30237  0.54377  1.0000
  N   N8        1.0  0.30577  0.69764  0.45623  1.0000
  N   N9        1.0  0.08941  0.64821  0.15762  1.0000
  N   N10       1.0  0.91058  0.35179  0.84238  1.0000
  N   N11       1.0  0.52523  0.32680  0.57741  1.0000
  N   N12       1.0  0.47477  0.67320  0.42259  1.0000
  N   N13       1.0  0.41310  0.38458  0.50282  1.0000
  N   N14       1.0  0.58689  0.61542  0.49717  1.0000
  N   N15       1.0  0.79844  0.70271  0.17344  1.0000
  N   N16       1.0  0.20156  0.29729  0.82656  1.0000
  O   O1        1.0  0.76528  0.17846  0.76907  1.0000
  O   O2        1.0  0.23471  0.82153  0.23092  1.0000
  O   O3        1.0  0.71758  0.81958  0.34887  1.0000
  O   O4        1.0  0.28242  0.18043  0.65113  1.0000
  O   O5        1.0  0.05131  0.39596  0.55133  1.0000
  O   O6        1.0  0.94869  0.60403  0.44867  1.0000
  O   O7        1.0  0.58228  0.08017  0.85100  1.0000
  O   O8        1.0  0.41771  0.91984  0.14899  1.0000
  O   O9        1.0  0.90773  0.91662  0.38236  1.0000
  O   O10       1.0  0.09228  0.08338  0.61765  1.0000
  O   O11       1.0  0.55834  0.41124  0.76157  1.0000
  O   O12       1.0  0.44166  0.58876  0.23843  1.0000
