data_image0
_chemical_formula_structural       Cu4H32C48N20
_chemical_formula_sum              "Cu4 H32 C48 N20"
_cell_length_a       9.19198
_cell_length_b       9.99932
_cell_length_c       11.9371
_cell_angle_alpha    109.634
_cell_angle_beta     89.9998
_cell_angle_gamma    89.9999

_space_group_name_H-M_alt    "P 1"
_space_group_IT_number       1

loop_
  _space_group_symop_operation_xyz
  'x, y, z'

loop_
  _atom_site_type_symbol
  _atom_site_label
  _atom_site_symmetry_multiplicity
  _atom_site_fract_x
  _atom_site_fract_y
  _atom_site_fract_z
  _atom_site_occupancy
  Cu  Cu1       1.0  0.09391  0.95401  0.11602  1.0000
  Cu  Cu2       1.0  0.59391  0.54599  0.88399  1.0000
  Cu  Cu3       1.0  0.90608  0.04599  0.88399  1.0000
  Cu  Cu4       1.0  0.40608  0.45401  0.11602  1.0000
  H   H1        1.0  0.86639  0.87245  0.26376  1.0000
  H   H2        1.0  0.36640  0.62755  0.73624  1.0000
  H   H3        1.0  0.13361  0.12755  0.73624  1.0000
  H   H4        1.0  0.63361  0.37245  0.26376  1.0000
  H   H5        1.0  0.05994  0.80751  0.72510  1.0000
  H   H6        1.0  0.55994  0.69249  0.27491  1.0000
  H   H7        1.0  0.94006  0.19249  0.27491  1.0000
  H   H8        1.0  0.44006  0.30751  0.72510  1.0000
  H   H9        1.0  0.06110  0.65829  0.51218  1.0000
  H   H10       1.0  0.56110  0.84170  0.48782  1.0000
  H   H11       1.0  0.93890  0.34171  0.48782  1.0000
  H   H12       1.0  0.43890  0.15830  0.51218  1.0000
  H   H13       1.0  0.94156  0.50711  0.37144  1.0000
  H   H14       1.0  0.44156  0.99288  0.62856  1.0000
  H   H15       1.0  0.05844  0.49288  0.62856  1.0000
  H   H16       1.0  0.55844  0.00711  0.37144  1.0000
  H   H17       1.0  0.91810  0.35066  0.16210  1.0000
  H   H18       1.0  0.41810  0.14934  0.83790  1.0000
  H   H19       1.0  0.08190  0.64935  0.83791  1.0000
  H   H20       1.0  0.58190  0.85066  0.16210  1.0000
  H   H21       1.0  0.78122  0.10036  0.66397  1.0000
  H   H22       1.0  0.28121  0.39963  0.33603  1.0000
  H   H23       1.0  0.21879  0.89964  0.33603  1.0000
  H   H24       1.0  0.71878  0.60036  0.66397  1.0000
  H   H25       1.0  0.77030  0.96284  0.44694  1.0000
  H   H26       1.0  0.27030  0.53715  0.55307  1.0000
  H   H27       1.0  0.22970  0.03716  0.55307  1.0000
  H   H28       1.0  0.72970  0.46285  0.44694  1.0000
  H   H29       1.0  0.86874  0.45394  0.00357  1.0000
  H   H30       1.0  0.36874  0.04606  0.99643  1.0000
  H   H31       1.0  0.13126  0.54607  0.99643  1.0000
  H   H32       1.0  0.63126  0.95394  0.00357  1.0000
  C   C1        1.0  0.90949  0.79282  0.45967  1.0000
  C   C2        1.0  0.40948  0.70718  0.54033  1.0000
  C   C3        1.0  0.09051  0.20718  0.54034  1.0000
  C   C4        1.0  0.59051  0.29282  0.45967  1.0000
  C   C5        1.0  0.90142  0.70134  0.33387  1.0000
  C   C6        1.0  0.40142  0.79865  0.66613  1.0000
  C   C7        1.0  0.09858  0.29866  0.66613  1.0000
  C   C8        1.0  0.59858  0.20134  0.33387  1.0000
  C   C9        1.0  0.87559  0.75817  0.24305  1.0000
  C   C10       1.0  0.37559  0.74182  0.75696  1.0000
  C   C11       1.0  0.12441  0.24183  0.75696  1.0000
  C   C12       1.0  0.62441  0.25817  0.24305  1.0000
  C   C13       1.0  0.99467  0.83671  0.66062  1.0000
  C   C14       1.0  0.49467  0.66329  0.33938  1.0000
  C   C15       1.0  0.00533  0.16329  0.33939  1.0000
  C   C16       1.0  0.50533  0.33671  0.66062  1.0000
  C   C17       1.0  0.99326  0.75291  0.54172  1.0000
  C   C18       1.0  0.49326  0.74709  0.45828  1.0000
  C   C19       1.0  0.00674  0.24709  0.45829  1.0000
  C   C20       1.0  0.50674  0.25291  0.54172  1.0000
  C   C21       1.0  0.91886  0.55343  0.30270  1.0000
  C   C22       1.0  0.41886  0.94656  0.69730  1.0000
  C   C23       1.0  0.08114  0.44657  0.69731  1.0000
  C   C24       1.0  0.58114  0.05343  0.30270  1.0000
  C   C25       1.0  0.90548  0.46502  0.18505  1.0000
  C   C26       1.0  0.40548  0.03497  0.81494  1.0000
  C   C27       1.0  0.09452  0.53498  0.81495  1.0000
  C   C28       1.0  0.59452  0.96503  0.18506  1.0000
  C   C29       1.0  0.84959  0.73096  0.02910  1.0000
  C   C30       1.0  0.34959  0.76904  0.97090  1.0000
  C   C31       1.0  0.15042  0.26904  0.97090  1.0000
  C   C32       1.0  0.65041  0.23096  0.02910  1.0000
  C   C33       1.0  0.83998  0.00025  0.62621  1.0000
  C   C34       1.0  0.33998  0.49974  0.37380  1.0000
  C   C35       1.0  0.16002  0.99975  0.37380  1.0000
  C   C36       1.0  0.66002  0.50025  0.62621  1.0000
  C   C37       1.0  0.83418  0.92226  0.50543  1.0000
  C   C38       1.0  0.33418  0.57774  0.49457  1.0000
  C   C39       1.0  0.16582  0.07774  0.49457  1.0000
  C   C40       1.0  0.66582  0.42226  0.50544  1.0000
  C   C41       1.0  0.86495  0.66972  0.12403  1.0000
  C   C42       1.0  0.36496  0.83027  0.87597  1.0000
  C   C43       1.0  0.13505  0.33027  0.87597  1.0000
  C   C44       1.0  0.63505  0.16972  0.12403  1.0000
  C   C45       1.0  0.87694  0.52220  0.09590  1.0000
  C   C46       1.0  0.37694  0.97780  0.90410  1.0000
  C   C47       1.0  0.12305  0.47780  0.90411  1.0000
  C   C48       1.0  0.62305  0.02220  0.09590  1.0000
  N   N1        1.0  0.76445  0.68043  0.93125  1.0000
  N   N2        1.0  0.26445  0.81957  0.06875  1.0000
  N   N3        1.0  0.23555  0.31957  0.06875  1.0000
  N   N4        1.0  0.73555  0.18043  0.93125  1.0000
  N   N5        1.0  0.92342  0.84613  0.02533  1.0000
  N   N6        1.0  0.42341  0.65387  0.97467  1.0000
  N   N7        1.0  0.07658  0.15386  0.97467  1.0000
  N   N8        1.0  0.57658  0.34613  0.02533  1.0000
  N   N9        1.0  0.88062  0.86550  0.92334  1.0000
  N   N10       1.0  0.38063  0.63450  0.07666  1.0000
  N   N11       1.0  0.11938  0.13450  0.07666  1.0000
  N   N12       1.0  0.61938  0.36550  0.92334  1.0000
  N   N13       1.0  0.91743  0.95809  0.70471  1.0000
  N   N14       1.0  0.41743  0.54191  0.29529  1.0000
  N   N15       1.0  0.08257  0.04191  0.29529  1.0000
  N   N16       1.0  0.58257  0.45809  0.70471  1.0000
  N   N17       1.0  0.78605  0.76632  0.86664  1.0000
  N   N18       1.0  0.28606  0.73368  0.13337  1.0000
  N   N19       1.0  0.21394  0.23368  0.13336  1.0000
  N   N20       1.0  0.71395  0.26632  0.86664  1.0000
