data_image0
_chemical_formula_structural       Zn8H20C20N52O4
_chemical_formula_sum              "Zn8 H20 C20 N52 O4"
_cell_length_a       10.944
_cell_length_b       11.1154
_cell_length_c       11.9174
_cell_angle_alpha    103.972
_cell_angle_beta     90.0001
_cell_angle_gamma    90.0002

_space_group_name_H-M_alt    "P 1"
_space_group_IT_number       1

loop_
  _space_group_symop_operation_xyz
  'x, y, z'

loop_
  _atom_site_type_symbol
  _atom_site_label
  _atom_site_symmetry_multiplicity
  _atom_site_fract_x
  _atom_site_fract_y
  _atom_site_fract_z
  _atom_site_occupancy
  Zn  Zn1       1.0  0.87770  0.49885  0.17148  1.0000
  Zn  Zn2       1.0  0.37770  0.50114  0.32852  1.0000
  Zn  Zn3       1.0  0.12230  0.50115  0.82852  1.0000
  Zn  Zn4       1.0  0.62230  0.49885  0.67148  1.0000
  Zn  Zn5       1.0  0.16961  0.49047  0.12938  1.0000
  Zn  Zn6       1.0  0.66961  0.50953  0.37062  1.0000
  Zn  Zn7       1.0  0.83039  0.50953  0.87063  1.0000
  Zn  Zn8       1.0  0.33039  0.49047  0.62937  1.0000
  H   H1        1.0  0.80822  0.23768  0.02173  1.0000
  H   H2        1.0  0.30822  0.76231  0.47827  1.0000
  H   H3        1.0  0.19178  0.76232  0.97826  1.0000
  H   H4        1.0  0.69178  0.23769  0.52173  1.0000
  H   H5        1.0  0.81011  0.04218  0.89187  1.0000
  H   H6        1.0  0.31011  0.95781  0.60813  1.0000
  H   H7        1.0  0.18989  0.95782  0.10814  1.0000
  H   H8        1.0  0.68989  0.04219  0.39186  1.0000
  H   H9        1.0  0.97636  0.93740  0.79937  1.0000
  H   H10       1.0  0.47636  0.06260  0.70062  1.0000
  H   H11       1.0  0.02364  0.06260  0.20064  1.0000
  H   H12       1.0  0.52364  0.93740  0.29937  1.0000
  H   H13       1.0  0.18417  0.03798  0.83656  1.0000
  H   H14       1.0  0.68417  0.96203  0.66344  1.0000
  H   H15       1.0  0.81584  0.96202  0.16345  1.0000
  H   H16       1.0  0.31583  0.03797  0.33656  1.0000
  H   H17       1.0  0.20025  0.24948  0.96924  1.0000
  H   H18       1.0  0.70025  0.75052  0.53076  1.0000
  H   H19       1.0  0.79975  0.75052  0.03077  1.0000
  H   H20       1.0  0.29975  0.24947  0.46924  1.0000
  C   C1        1.0  0.00711  0.26366  0.00933  1.0000
  C   C2        1.0  0.50711  0.73634  0.49066  1.0000
  C   C3        1.0  0.99289  0.73635  0.99067  1.0000
  C   C4        1.0  0.49289  0.26366  0.50933  1.0000
  C   C5        1.0  0.89487  0.20010  0.98441  1.0000
  C   C6        1.0  0.39487  0.79990  0.51558  1.0000
  C   C7        1.0  0.10513  0.79990  0.01559  1.0000
  C   C8        1.0  0.60514  0.20010  0.48441  1.0000
  C   C9        1.0  0.99112  0.02748  0.85769  1.0000
  C   C10       1.0  0.49112  0.97252  0.64231  1.0000
  C   C11       1.0  0.00889  0.97252  0.14232  1.0000
  C   C12       1.0  0.50888  0.02747  0.35769  1.0000
  C   C13       1.0  0.10398  0.08535  0.87959  1.0000
  C   C14       1.0  0.60398  0.91466  0.62040  1.0000
  C   C15       1.0  0.89603  0.91465  0.12042  1.0000
  C   C16       1.0  0.39602  0.08534  0.37959  1.0000
  C   C17       1.0  0.11230  0.20215  0.95341  1.0000
  C   C18       1.0  0.61230  0.79785  0.54659  1.0000
  C   C19       1.0  0.88771  0.79785  0.04660  1.0000
  C   C20       1.0  0.38770  0.20215  0.45341  1.0000
  N   N1        1.0  0.02845  0.60451  0.19870  1.0000
  N   N2        1.0  0.52845  0.39549  0.30130  1.0000
  N   N3        1.0  0.97155  0.39549  0.80130  1.0000
  N   N4        1.0  0.47155  0.60451  0.69869  1.0000
  N   N5        1.0  0.04123  0.70533  0.26596  1.0000
  N   N6        1.0  0.54122  0.29467  0.23404  1.0000
  N   N7        1.0  0.95877  0.29467  0.73404  1.0000
  N   N8        1.0  0.45877  0.70533  0.76596  1.0000
  N   N9        1.0  0.05547  0.80124  0.32843  1.0000
  N   N10       1.0  0.55547  0.19876  0.17157  1.0000
  N   N11       1.0  0.94453  0.19876  0.67157  1.0000
  N   N12       1.0  0.44454  0.80124  0.82843  1.0000
  N   N13       1.0  0.77156  0.49402  0.02817  1.0000
  N   N14       1.0  0.27156  0.50598  0.47182  1.0000
  N   N15       1.0  0.22844  0.50598  0.97183  1.0000
  N   N16       1.0  0.72844  0.49402  0.52817  1.0000
  N   N17       1.0  0.66783  0.45407  0.03535  1.0000
  N   N18       1.0  0.16783  0.54593  0.46465  1.0000
  N   N19       1.0  0.33218  0.54594  0.96465  1.0000
  N   N20       1.0  0.83217  0.45407  0.53535  1.0000
  N   N21       1.0  0.57134  0.41571  0.04334  1.0000
  N   N22       1.0  0.07134  0.58429  0.45666  1.0000
  N   N23       1.0  0.42865  0.58429  0.95666  1.0000
  N   N24       1.0  0.92866  0.41571  0.54334  1.0000
  N   N25       1.0  0.80684  0.38662  0.26699  1.0000
  N   N26       1.0  0.30684  0.61338  0.23301  1.0000
  N   N27       1.0  0.19315  0.61339  0.73301  1.0000
  N   N28       1.0  0.69315  0.38662  0.76699  1.0000
  N   N29       1.0  0.83212  0.28456  0.27903  1.0000
  N   N30       1.0  0.33212  0.71544  0.22098  1.0000
  N   N31       1.0  0.16787  0.71544  0.72097  1.0000
  N   N32       1.0  0.66787  0.28456  0.77902  1.0000
  N   N33       1.0  0.85254  0.18689  0.29353  1.0000
  N   N34       1.0  0.35254  0.81311  0.20647  1.0000
  N   N35       1.0  0.14746  0.81311  0.70647  1.0000
  N   N36       1.0  0.64746  0.18689  0.79353  1.0000
  N   N37       1.0  0.75741  0.62828  0.29054  1.0000
  N   N38       1.0  0.25742  0.37171  0.20946  1.0000
  N   N39       1.0  0.24258  0.37171  0.70946  1.0000
  N   N40       1.0  0.74258  0.62829  0.79054  1.0000
  N   N41       1.0  0.73401  0.73525  0.29438  1.0000
  N   N42       1.0  0.23402  0.26475  0.20562  1.0000
  N   N43       1.0  0.26598  0.26476  0.70562  1.0000
  N   N44       1.0  0.76598  0.73524  0.79438  1.0000
  N   N45       1.0  0.71332  0.83863  0.29795  1.0000
  N   N46       1.0  0.21332  0.16137  0.20205  1.0000
  N   N47       1.0  0.28669  0.16136  0.70205  1.0000
  N   N48       1.0  0.78669  0.83864  0.79795  1.0000
  N   N49       1.0  0.89220  0.08695  0.91065  1.0000
  N   N50       1.0  0.39220  0.91305  0.58934  1.0000
  N   N51       1.0  0.10781  0.91305  0.08935  1.0000
  N   N52       1.0  0.60780  0.08695  0.41065  1.0000
  O   O1        1.0  0.01379  0.37399  0.08007  1.0000
  O   O2        1.0  0.51379  0.62600  0.41993  1.0000
  O   O3        1.0  0.98621  0.62601  0.91994  1.0000
  O   O4        1.0  0.48621  0.37399  0.58006  1.0000
