data_image0
_chemical_formula_structural       Zn2H8C8N16
_chemical_formula_sum              "Zn2 H8 C8 N16"
_cell_length_a       7.46985
_cell_length_b       8.20683
_cell_length_c       8.20711
_cell_angle_alpha    94.6608
_cell_angle_beta     115.863
_cell_angle_gamma    115.862

_space_group_name_H-M_alt    "P 1"
_space_group_IT_number       1

loop_
  _space_group_symop_operation_xyz
  'x, y, z'

loop_
  _atom_site_type_symbol
  _atom_site_label
  _atom_site_symmetry_multiplicity
  _atom_site_fract_x
  _atom_site_fract_y
  _atom_site_fract_z
  _atom_site_occupancy
  Zn  Zn1       1.0  0.50000  0.50000  0.00000  1.0000
  Zn  Zn2       1.0  0.50000  0.00000  0.50000  1.0000
  H   H1        1.0  0.92105  0.58350  0.94098  1.0000
  H   H2        1.0  0.07896  0.05904  0.41651  1.0000
  H   H3        1.0  0.07895  0.41650  0.05902  1.0000
  H   H4        1.0  0.92104  0.94096  0.58349  1.0000
  H   H5        1.0  0.10661  0.77158  0.77159  1.0000
  H   H6        1.0  0.89338  0.22842  0.22841  1.0000
  H   H7        1.0  0.43121  0.74574  0.74573  1.0000
  H   H8        1.0  0.56879  0.25426  0.25427  1.0000
  C   C1        1.0  0.85526  0.66347  0.86014  1.0000
  C   C2        1.0  0.14474  0.13988  0.33653  1.0000
  C   C3        1.0  0.14474  0.33653  0.13986  1.0000
  C   C4        1.0  0.85526  0.86013  0.66347  1.0000
  C   C5        1.0  0.95586  0.76599  0.76599  1.0000
  C   C6        1.0  0.04414  0.23401  0.23401  1.0000
  C   C7        1.0  0.58215  0.75130  0.75131  1.0000
  C   C8        1.0  0.41785  0.24870  0.24870  1.0000
  N   N1        1.0  0.66858  0.65685  0.85335  1.0000
  N   N2        1.0  0.33143  0.14666  0.34315  1.0000
  N   N3        1.0  0.33142  0.34315  0.14665  1.0000
  N   N4        1.0  0.66857  0.85334  0.65685  1.0000
  N   N5        1.0  0.81786  0.66487  0.27904  1.0000
  N   N6        1.0  0.18216  0.72095  0.33511  1.0000
  N   N7        1.0  0.18214  0.33513  0.72096  1.0000
  N   N8        1.0  0.81785  0.27905  0.66489  1.0000
  N   N9        1.0  0.00001  0.69323  0.30676  1.0000
  N   N10       1.0  0.99999  0.30677  0.69324  1.0000
  N   N11       1.0  0.60920  0.30092  0.97401  1.0000
  N   N12       1.0  0.39077  0.02598  0.69905  1.0000
  N   N13       1.0  0.39080  0.69909  0.02600  1.0000
  N   N14       1.0  0.60924  0.97403  0.30095  1.0000
  N   N15       1.0  0.49998  0.16494  0.83504  1.0000
  N   N16       1.0  0.50002  0.83506  0.16496  1.0000
