data_image0
_chemical_formula_structural       Ni2H16C8N4O12
_chemical_formula_sum              "Ni2 H16 C8 N4 O12"
_cell_length_a       7.36712
_cell_length_b       7.93847
_cell_length_c       8.23217
_cell_angle_alpha    90.0008
_cell_angle_beta     116.229
_cell_angle_gamma    89.9988

_space_group_name_H-M_alt    "P 1"
_space_group_IT_number       1

loop_
  _space_group_symop_operation_xyz
  'x, y, z'

loop_
  _atom_site_type_symbol
  _atom_site_label
  _atom_site_symmetry_multiplicity
  _atom_site_fract_x
  _atom_site_fract_y
  _atom_site_fract_z
  _atom_site_occupancy
  Ni  Ni1       1.0  1.00000  0.50000  1.00000  1.0000
  Ni  Ni2       1.0  0.50000  0.00000  0.50000  1.0000
  H   H1        1.0  0.52867  0.44931  0.85707  1.0000
  H   H2        1.0  0.97133  0.94931  0.64292  1.0000
  H   H3        1.0  0.47133  0.55069  0.14293  1.0000
  H   H4        1.0  0.02867  0.05069  0.35707  1.0000
  H   H5        1.0  0.38338  0.36465  0.63506  1.0000
  H   H6        1.0  0.11662  0.86465  0.86493  1.0000
  H   H7        1.0  0.61662  0.63535  0.36494  1.0000
  H   H8        1.0  0.88338  0.13535  0.13507  1.0000
  H   H9        1.0  0.27909  0.22854  0.17833  1.0000
  H   H10       1.0  0.22090  0.72854  0.32167  1.0000
  H   H11       1.0  0.72090  0.77146  0.82167  1.0000
  H   H12       1.0  0.77910  0.27146  0.67833  1.0000
  H   H13       1.0  0.08659  0.37663  0.67552  1.0000
  H   H14       1.0  0.41341  0.87664  0.82447  1.0000
  H   H15       1.0  0.91341  0.62336  0.32448  1.0000
  H   H16       1.0  0.58659  0.12336  0.17553  1.0000
  C   C1        1.0  0.23144  0.41520  0.78786  1.0000
  C   C2        1.0  0.26855  0.91521  0.71214  1.0000
  C   C3        1.0  0.76856  0.58480  0.21214  1.0000
  C   C4        1.0  0.73145  0.08479  0.28786  1.0000
  C   C5        1.0  0.28698  0.30350  0.29437  1.0000
  C   C6        1.0  0.21302  0.80349  0.20562  1.0000
  C   C7        1.0  0.71302  0.69649  0.70563  1.0000
  C   C8        1.0  0.78698  0.19651  0.79437  1.0000
  N   N1        1.0  0.39153  0.41246  0.75535  1.0000
  N   N2        1.0  0.10847  0.91246  0.74464  1.0000
  N   N3        1.0  0.60847  0.58754  0.24465  1.0000
  N   N4        1.0  0.89153  0.08754  0.25536  1.0000
  O   O1        1.0  0.18384  0.43759  0.26334  1.0000
  O   O2        1.0  0.31617  0.93757  0.23665  1.0000
  O   O3        1.0  0.81616  0.56241  0.73666  1.0000
  O   O4        1.0  0.68383  0.06242  0.76335  1.0000
  O   O5        1.0  0.39726  0.24822  0.45326  1.0000
  O   O6        1.0  0.10275  0.74822  0.04673  1.0000
  O   O7        1.0  0.60275  0.75178  0.54674  1.0000
  O   O8        1.0  0.89725  0.25178  0.95326  1.0000
  O   O9        1.0  0.23907  0.46018  0.93813  1.0000
  O   O10       1.0  0.26093  0.96019  0.56186  1.0000
  O   O11       1.0  0.76093  0.53982  0.06187  1.0000
  O   O12       1.0  0.73907  0.03982  0.43814  1.0000
