data_image0
_chemical_formula_structural       Mg4H32C16N8O24
_chemical_formula_sum              "Mg4 H32 C16 N8 O24"
_cell_length_a       8.46012
_cell_length_b       8.644
_cell_length_c       12.1229
_cell_angle_alpha    90.9193
_cell_angle_beta     90.0002
_cell_angle_gamma    89.9999

_space_group_name_H-M_alt    "P 1"
_space_group_IT_number       1

loop_
  _space_group_symop_operation_xyz
  'x, y, z'

loop_
  _atom_site_type_symbol
  _atom_site_label
  _atom_site_symmetry_multiplicity
  _atom_site_fract_x
  _atom_site_fract_y
  _atom_site_fract_z
  _atom_site_occupancy
  Mg  Mg1       1.0  0.00000  0.00000  0.50000  1.0000
  Mg  Mg2       1.0  0.50000  0.00000  1.00000  1.0000
  Mg  Mg3       1.0  0.50000  0.50000  0.50000  1.0000
  Mg  Mg4       1.0  1.00000  0.50000  0.00000  1.0000
  H   H1        1.0  0.85573  0.01134  0.87335  1.0000
  H   H2        1.0  0.35573  0.98866  0.62664  1.0000
  H   H3        1.0  0.14427  0.98866  0.12665  1.0000
  H   H4        1.0  0.64427  0.01134  0.37335  1.0000
  H   H5        1.0  0.79514  0.70437  0.54735  1.0000
  H   H6        1.0  0.29514  0.29563  0.95266  1.0000
  H   H7        1.0  0.20486  0.29563  0.45265  1.0000
  H   H8        1.0  0.70486  0.70437  0.04734  1.0000
  H   H9        1.0  0.63316  0.53854  0.82332  1.0000
  H   H10       1.0  0.13316  0.46146  0.67668  1.0000
  H   H11       1.0  0.36684  0.46146  0.17668  1.0000
  H   H12       1.0  0.86684  0.53854  0.32331  1.0000
  H   H13       1.0  0.54907  0.28848  0.83878  1.0000
  H   H14       1.0  0.04907  0.71152  0.66122  1.0000
  H   H15       1.0  0.45093  0.71152  0.16122  1.0000
  H   H16       1.0  0.95093  0.28848  0.33878  1.0000
  H   H17       1.0  0.47672  0.28286  0.69949  1.0000
  H   H18       1.0  0.97672  0.71714  0.80051  1.0000
  H   H19       1.0  0.52328  0.71714  0.30051  1.0000
  H   H20       1.0  0.02328  0.28286  0.19949  1.0000
  H   H21       1.0  0.71962  0.21840  0.58298  1.0000
  H   H22       1.0  0.21962  0.78160  0.91702  1.0000
  H   H23       1.0  0.28038  0.78160  0.41702  1.0000
  H   H24       1.0  0.78038  0.21840  0.08298  1.0000
  H   H25       1.0  0.06032  0.18290  0.71466  1.0000
  H   H26       1.0  0.56032  0.81710  0.78534  1.0000
  H   H27       1.0  0.93968  0.81710  0.28534  1.0000
  H   H28       1.0  0.43968  0.18290  0.21466  1.0000
  H   H29       1.0  0.97559  0.17763  0.89093  1.0000
  H   H30       1.0  0.47559  0.82237  0.60907  1.0000
  H   H31       1.0  0.02441  0.82237  0.10907  1.0000
  H   H32       1.0  0.52441  0.17763  0.39093  1.0000
  C   C1        1.0  0.72697  0.77041  0.48599  1.0000
  C   C2        1.0  0.22696  0.22959  0.01401  1.0000
  C   C3        1.0  0.27303  0.22959  0.51401  1.0000
  C   C4        1.0  0.77304  0.77041  0.98599  1.0000
  C   C5        1.0  0.77966  0.27850  0.51425  1.0000
  C   C6        1.0  0.27966  0.72150  0.98575  1.0000
  C   C7        1.0  0.22034  0.72150  0.48575  1.0000
  C   C8        1.0  0.72033  0.27850  0.01425  1.0000
  C   C9        1.0  0.97723  0.09012  0.73644  1.0000
  C   C10       1.0  0.47723  0.90988  0.76356  1.0000
  C   C11       1.0  0.02277  0.90988  0.26356  1.0000
  C   C12       1.0  0.52277  0.09012  0.23644  1.0000
  C   C13       1.0  0.57652  0.48534  0.75000  1.0000
  C   C14       1.0  0.07652  0.51466  0.75000  1.0000
  C   C15       1.0  0.42348  0.51466  0.25000  1.0000
  C   C16       1.0  0.92348  0.48534  0.25000  1.0000
  N   N1        1.0  0.93446  0.09062  0.84137  1.0000
  N   N2        1.0  0.43446  0.90939  0.65863  1.0000
  N   N3        1.0  0.06554  0.90939  0.15863  1.0000
  N   N4        1.0  0.56554  0.09061  0.34137  1.0000
  N   N5        1.0  0.53075  0.34047  0.76372  1.0000
  N   N6        1.0  0.03075  0.65953  0.73628  1.0000
  N   N7        1.0  0.46925  0.65953  0.23628  1.0000
  N   N8        1.0  0.96925  0.34047  0.26372  1.0000
  O   O1        1.0  0.78505  0.89625  0.45193  1.0000
  O   O2        1.0  0.28505  0.10375  0.04807  1.0000
  O   O3        1.0  0.21495  0.10375  0.54807  1.0000
  O   O4        1.0  0.71495  0.89625  0.95193  1.0000
  O   O5        1.0  0.90631  0.21770  0.47726  1.0000
  O   O6        1.0  0.40631  0.78230  0.02274  1.0000
  O   O7        1.0  0.09369  0.78230  0.52274  1.0000
  O   O8        1.0  0.59369  0.21770  0.97726  1.0000
  O   O9        1.0  0.93054  0.99343  0.66496  1.0000
  O   O10       1.0  0.43054  0.00657  0.83504  1.0000
  O   O11       1.0  0.06946  0.00657  0.33504  1.0000
  O   O12       1.0  0.56946  0.99343  0.16496  1.0000
  O   O13       1.0  0.71820  0.40002  0.47736  1.0000
  O   O14       1.0  0.21820  0.59998  0.02264  1.0000
  O   O15       1.0  0.28180  0.59998  0.52264  1.0000
  O   O16       1.0  0.78180  0.40002  0.97736  1.0000
  O   O17       1.0  0.59473  0.71550  0.45442  1.0000
  O   O18       1.0  0.09473  0.28450  0.04558  1.0000
  O   O19       1.0  0.40527  0.28450  0.54558  1.0000
  O   O20       1.0  0.90527  0.71550  0.95442  1.0000
  O   O21       1.0  0.56096  0.56090  0.66270  1.0000
  O   O22       1.0  0.06096  0.43910  0.83730  1.0000
  O   O23       1.0  0.43905  0.43910  0.33730  1.0000
  O   O24       1.0  0.93905  0.56090  0.16270  1.0000
