data_image0
_chemical_formula_structural       Cu4P4H56C36N8Cl4O4
_chemical_formula_sum              "Cu4 P4 H56 C36 N8 Cl4 O4"
_cell_length_a       8.41499
_cell_length_b       8.69398
_cell_length_c       17.6005
_cell_angle_alpha    88.3686
_cell_angle_beta     87.6114
_cell_angle_gamma    64.277

_space_group_name_H-M_alt    "P 1"
_space_group_IT_number       1

loop_
  _space_group_symop_operation_xyz
  'x, y, z'

loop_
  _atom_site_type_symbol
  _atom_site_label
  _atom_site_symmetry_multiplicity
  _atom_site_fract_x
  _atom_site_fract_y
  _atom_site_fract_z
  _atom_site_occupancy
  Cu  Cu1       1.0  0.37761  0.49248  0.57388  1.0000
  Cu  Cu2       1.0  0.62239  0.50752  0.42612  1.0000
  Cu  Cu3       1.0  0.51472  0.61759  0.92468  1.0000
  Cu  Cu4       1.0  0.48529  0.38241  0.07531  1.0000
  P   P1        1.0  0.32317  0.61809  0.68219  1.0000
  P   P2        1.0  0.67683  0.38191  0.31781  1.0000
  P   P3        1.0  0.38255  0.66644  0.81739  1.0000
  P   P4        1.0  0.61746  0.33356  0.18261  1.0000
  H   H1        1.0  0.87254  0.03216  0.62069  1.0000
  H   H2        1.0  0.12746  0.96784  0.37932  1.0000
  H   H3        1.0  0.98342  0.12392  0.88421  1.0000
  H   H4        1.0  0.01658  0.87608  0.11579  1.0000
  H   H5        1.0  0.73292  0.34783  0.81948  1.0000
  H   H6        1.0  0.26708  0.65217  0.18052  1.0000
  H   H7        1.0  0.45513  0.98088  0.78472  1.0000
  H   H8        1.0  0.54485  0.01913  0.21528  1.0000
  H   H9        1.0  0.65943  0.95106  0.73976  1.0000
  H   H10       1.0  0.34056  0.04896  0.26024  1.0000
  H   H11       1.0  0.65199  0.79771  0.80703  1.0000
  H   H12       1.0  0.34800  0.20230  0.19297  1.0000
  H   H13       1.0  0.07052  0.60706  0.89161  1.0000
  H   H14       1.0  0.92949  0.39295  0.10839  1.0000
  H   H15       1.0  0.97772  0.47146  0.86115  1.0000
  H   H16       1.0  0.02228  0.52855  0.13885  1.0000
  H   H17       1.0  0.96097  0.64910  0.80333  1.0000
  H   H18       1.0  0.03903  0.35091  0.19667  1.0000
  H   H19       1.0  0.03761  0.22069  0.44699  1.0000
  H   H20       1.0  0.96238  0.77930  0.55301  1.0000
  H   H21       1.0  0.97683  0.20534  0.54313  1.0000
  H   H22       1.0  0.02317  0.79465  0.45687  1.0000
  H   H23       1.0  0.18568  0.04959  0.50554  1.0000
  H   H24       1.0  0.81432  0.95040  0.49446  1.0000
  H   H25       1.0  0.10361  0.43583  0.69279  1.0000
  H   H26       1.0  0.89639  0.56417  0.30721  1.0000
  H   H27       1.0  0.13225  0.26096  0.75405  1.0000
  H   H28       1.0  0.86775  0.73905  0.24596  1.0000
  H   H29       1.0  0.31787  0.26671  0.70344  1.0000
  H   H30       1.0  0.68211  0.73329  0.29656  1.0000
  H   H31       1.0  0.47445  0.22514  0.82915  1.0000
  H   H32       1.0  0.52555  0.77486  0.17085  1.0000
  H   H33       1.0  0.28636  0.21932  0.87754  1.0000
  H   H34       1.0  0.71363  0.78068  0.12246  1.0000
  H   H35       1.0  0.36783  0.36579  0.90600  1.0000
  H   H36       1.0  0.63217  0.63422  0.09400  1.0000
  H   H37       1.0  0.67803  0.30189  0.68279  1.0000
  H   H38       1.0  0.32197  0.69811  0.31722  1.0000
  H   H39       1.0  0.78992  0.55657  0.71273  1.0000
  H   H40       1.0  0.21008  0.44343  0.28727  1.0000
  H   H41       1.0  0.81443  0.70373  0.64655  1.0000
  H   H42       1.0  0.18557  0.29628  0.35346  1.0000
  H   H43       1.0  0.70473  0.57856  0.62010  1.0000
  H   H44       1.0  0.29528  0.42144  0.37990  1.0000
  H   H45       1.0  0.77988  0.03742  0.94510  1.0000
  H   H46       1.0  0.22012  0.96258  0.05490  1.0000
  H   H47       1.0  0.94334  0.84297  0.98528  1.0000
  H   H48       1.0  0.05666  0.15703  0.01472  1.0000
  H   H49       1.0  0.76001  0.98901  0.04220  1.0000
  H   H50       1.0  0.24000  0.01098  0.95780  1.0000
  H   H51       1.0  0.43375  0.84498  0.58421  1.0000
  H   H52       1.0  0.56626  0.15502  0.41578  1.0000
  H   H53       1.0  0.53286  0.97894  0.61047  1.0000
  H   H54       1.0  0.46713  0.02106  0.38952  1.0000
  H   H55       1.0  0.32545  0.00945  0.65249  1.0000
  H   H56       1.0  0.67455  0.99055  0.34750  1.0000
  C   C1        1.0  0.89555  0.05378  0.67897  1.0000
  C   C2        1.0  0.10446  0.94622  0.32104  1.0000
  C   C3        1.0  0.95732  0.10485  0.82603  1.0000
  C   C4        1.0  0.04269  0.89515  0.17397  1.0000
  C   C5        1.0  0.81650  0.23126  0.78913  1.0000
  C   C6        1.0  0.18351  0.76874  0.21087  1.0000
  C   C7        1.0  0.17138  0.29209  0.52561  1.0000
  C   C8        1.0  0.82862  0.70790  0.47439  1.0000
  C   C9        1.0  0.58071  0.88511  0.76102  1.0000
  C   C10       1.0  0.41928  0.11490  0.23897  1.0000
  C   C11       1.0  0.04706  0.54793  0.84156  1.0000
  C   C12       1.0  0.95294  0.45208  0.15843  1.0000
  C   C13       1.0  0.08994  0.18511  0.50432  1.0000
  C   C14       1.0  0.91006  0.81487  0.49568  1.0000
  C   C15       1.0  0.03703  0.92343  0.71568  1.0000
  C   C16       1.0  0.96298  0.07656  0.28432  1.0000
  C   C17       1.0  0.06981  0.95016  0.79126  1.0000
  C   C18       1.0  0.93020  0.04984  0.20874  1.0000
  C   C19       1.0  0.19265  0.34436  0.73360  1.0000
  C   C20       1.0  0.80734  0.65564  0.26640  1.0000
  C   C21       1.0  0.34610  0.30325  0.85683  1.0000
  C   C22       1.0  0.65390  0.69676  0.14317  1.0000
  C   C23       1.0  0.22290  0.43475  0.80085  1.0000
  C   C24       1.0  0.77710  0.56525  0.19914  1.0000
  C   C25       1.0  0.54950  0.78869  0.69641  1.0000
  C   C26       1.0  0.45049  0.21132  0.30359  1.0000
  C   C27       1.0  0.78568  0.20575  0.71433  1.0000
  C   C28       1.0  0.21432  0.79425  0.28568  1.0000
  C   C29       1.0  0.72526  0.64821  0.66695  1.0000
  C   C30       1.0  0.27474  0.35180  0.33305  1.0000
  C   C31       1.0  0.69964  0.84288  0.96647  1.0000
  C   C32       1.0  0.30036  0.15712  0.03352  1.0000
  C   C33       1.0  0.80187  0.93205  0.98561  1.0000
  C   C34       1.0  0.19813  0.06795  0.01439  1.0000
  C   C35       1.0  0.45418  0.91276  0.63188  1.0000
  C   C36       1.0  0.54582  0.08724  0.36811  1.0000
  N   N1        1.0  0.23653  0.37937  0.54261  1.0000
  N   N2        1.0  0.76347  0.62062  0.45739  1.0000
  N   N3        1.0  0.43625  0.70896  0.72715  1.0000
  N   N4        1.0  0.56376  0.29103  0.27284  1.0000
  N   N5        1.0  0.31186  0.53922  0.77093  1.0000
  N   N6        1.0  0.68815  0.46078  0.22907  1.0000
  N   N7        1.0  0.61797  0.76919  0.95185  1.0000
  N   N8        1.0  0.38203  0.23081  0.04815  1.0000
  Cl  Cl1       1.0  0.71457  0.35990  0.98074  1.0000
  Cl  Cl2       1.0  0.28544  0.64010  0.01925  1.0000
  Cl  Cl3       1.0  0.65438  0.29800  0.52580  1.0000
  Cl  Cl4       1.0  0.34562  0.70199  0.47420  1.0000
  O   O1        1.0  0.12569  0.78017  0.67104  1.0000
  O   O2        1.0  0.87431  0.21984  0.32896  1.0000
  O   O3        1.0  0.20044  0.84142  0.83843  1.0000
  O   O4        1.0  0.79958  0.15858  0.16157  1.0000
