data_image0
_chemical_formula_structural       MnH12C10Cl2O6
_chemical_formula_sum              "Mn1 H12 C10 Cl2 O6"
_cell_length_a       5.09627
_cell_length_b       7.67396
_cell_length_c       8.75837
_cell_angle_alpha    101.219
_cell_angle_beta     106.984
_cell_angle_gamma    99.0687

_space_group_name_H-M_alt    "P 1"
_space_group_IT_number       1

loop_
  _space_group_symop_operation_xyz
  'x, y, z'

loop_
  _atom_site_type_symbol
  _atom_site_label
  _atom_site_symmetry_multiplicity
  _atom_site_fract_x
  _atom_site_fract_y
  _atom_site_fract_z
  _atom_site_occupancy
  Mn  Mn1       1.0  0.00000  1.00000  0.00000  1.0000
  H   H1        1.0  0.63495  0.96168  0.18264  1.0000
  H   H2        1.0  0.36506  0.03833  0.81737  1.0000
  H   H3        1.0  0.77352  0.29281  0.24992  1.0000
  H   H4        1.0  0.22648  0.70719  0.75008  1.0000
  H   H5        1.0  0.09781  0.26173  0.37715  1.0000
  H   H6        1.0  0.90219  0.73828  0.62285  1.0000
  H   H7        1.0  0.51284  0.13176  0.40480  1.0000
  H   H8        1.0  0.48716  0.86825  0.59520  1.0000
  H   H9        1.0  0.76596  0.33053  0.53407  1.0000
  H   H10       1.0  0.23403  0.66948  0.46592  1.0000
  H   H11       1.0  0.83911  0.11197  0.53981  1.0000
  H   H12       1.0  0.16088  0.88805  0.46019  1.0000
  C   C1        1.0  0.14564  0.68462  0.06028  1.0000
  C   C2        1.0  0.85437  0.31536  0.93972  1.0000
  C   C3        1.0  0.86130  0.63062  0.94263  1.0000
  C   C4        1.0  0.13870  0.36937  0.05737  1.0000
  C   C5        1.0  0.71917  0.44610  0.88084  1.0000
  C   C6        1.0  0.28084  0.55388  0.11916  1.0000
  C   C7        1.0  0.86938  0.20510  0.32462  1.0000
  C   C8        1.0  0.13063  0.79491  0.67538  1.0000
  C   C9        1.0  0.74002  0.19266  0.45841  1.0000
  C   C10       1.0  0.25997  0.80735  0.54158  1.0000
  Cl  Cl1       1.0  0.38616  0.38245  0.73825  1.0000
  Cl  Cl2       1.0  0.61385  0.61754  0.26175  1.0000
  O   O1        1.0  0.25799  0.86198  0.10318  1.0000
  O   O2        1.0  0.74201  0.13802  0.89682  1.0000
  O   O3        1.0  0.75261  0.76613  0.90040  1.0000
  O   O4        1.0  0.24739  0.23386  0.09960  1.0000
  O   O5        1.0  0.83515  0.02703  0.21788  1.0000
  O   O6        1.0  0.16486  0.97298  0.78213  1.0000
