data_image0
_chemical_formula_structural       Zn4H40C60N8O26
_chemical_formula_sum              "Zn4 H40 C60 N8 O26"
_cell_length_a       10.9593
_cell_length_b       11.6992
_cell_length_c       12.2029
_cell_angle_alpha    77.054
_cell_angle_beta     88.101
_cell_angle_gamma    74.7299

_space_group_name_H-M_alt    "P 1"
_space_group_IT_number       1

loop_
  _space_group_symop_operation_xyz
  'x, y, z'

loop_
  _atom_site_type_symbol
  _atom_site_label
  _atom_site_symmetry_multiplicity
  _atom_site_fract_x
  _atom_site_fract_y
  _atom_site_fract_z
  _atom_site_occupancy
  Zn  Zn1       1.0  0.49740  0.24382  0.01878  1.0000
  Zn  Zn2       1.0  0.50260  0.75619  0.98122  1.0000
  Zn  Zn3       1.0  0.54795  0.44720  0.13103  1.0000
  Zn  Zn4       1.0  0.45205  0.55280  0.86896  1.0000
  H   H1        1.0  0.07209  0.73453  0.03092  1.0000
  H   H2        1.0  0.92791  0.26547  0.96908  1.0000
  H   H3        1.0  0.65096  0.36946  0.96454  1.0000
  H   H4        1.0  0.34904  0.63054  0.03546  1.0000
  H   H5        1.0  0.29406  0.27241  0.85514  1.0000
  H   H6        1.0  0.70594  0.72759  0.14486  1.0000
  H   H7        1.0  0.26194  0.17889  0.69660  1.0000
  H   H8        1.0  0.73806  0.82110  0.30340  1.0000
  H   H9        1.0  0.63974  0.94096  0.77337  1.0000
  H   H10       1.0  0.36027  0.05904  0.22664  1.0000
  H   H11       1.0  0.65637  0.04675  0.92449  1.0000
  H   H12       1.0  0.34363  0.95325  0.07551  1.0000
  H   H13       1.0  0.34054  0.02913  0.58362  1.0000
  H   H14       1.0  0.65946  0.97087  0.41638  1.0000
  H   H15       1.0  0.58542  0.83422  0.67784  1.0000
  H   H16       1.0  0.41458  0.16578  0.32216  1.0000
  H   H17       1.0  0.39389  0.85921  0.48738  1.0000
  H   H18       1.0  0.60611  0.14079  0.51263  1.0000
  H   H19       1.0  0.64178  0.67119  0.58519  1.0000
  H   H20       1.0  0.35822  0.32882  0.41481  1.0000
  H   H21       1.0  0.35837  0.74940  0.37706  1.0000
  H   H22       1.0  0.64163  0.25060  0.62294  1.0000
  H   H23       1.0  0.35952  0.63510  0.23059  1.0000
  H   H24       1.0  0.64048  0.36490  0.76941  1.0000
  H   H25       1.0  0.70841  0.39952  0.34147  1.0000
  H   H26       1.0  0.29159  0.60048  0.65853  1.0000
  H   H27       1.0  0.72652  0.50868  0.49136  1.0000
  H   H28       1.0  0.27348  0.49132  0.50864  1.0000
  H   H29       1.0  0.84381  0.97843  0.09815  1.0000
  H   H30       1.0  0.15620  0.02158  0.90185  1.0000
  H   H31       1.0  0.18860  0.91358  0.28911  1.0000
  H   H32       1.0  0.81140  0.08642  0.71089  1.0000
  H   H33       1.0  0.86136  0.19847  0.33322  1.0000
  H   H34       1.0  0.13863  0.80153  0.66678  1.0000
  H   H35       1.0  0.22551  0.48812  0.29035  1.0000
  H   H36       1.0  0.77449  0.51189  0.70964  1.0000
  H   H37       1.0  0.82311  0.55299  0.24637  1.0000
  H   H38       1.0  0.17689  0.44701  0.75363  1.0000
  H   H39       1.0  0.07959  0.32346  0.06028  1.0000
  H   H40       1.0  0.92041  0.67655  0.93972  1.0000
  C   C1        1.0  0.36737  0.19869  0.83294  1.0000
  C   C2        1.0  0.63263  0.80131  0.16706  1.0000
  C   C3        1.0  0.35044  0.14581  0.74580  1.0000
  C   C4        1.0  0.64956  0.85419  0.25420  1.0000
  C   C5        1.0  0.44688  0.04850  0.72238  1.0000
  C   C6        1.0  0.55312  0.95150  0.27762  1.0000
  C   C7        1.0  0.56000  0.01365  0.78764  1.0000
  C   C8        1.0  0.44001  0.98635  0.21236  1.0000
  C   C9        1.0  0.57046  0.07147  0.87255  1.0000
  C   C10       1.0  0.42954  0.92853  0.12745  1.0000
  C   C11       1.0  0.42583  0.98711  0.63698  1.0000
  C   C12       1.0  0.57418  0.01289  0.36302  1.0000
  C   C13       1.0  0.50155  0.87892  0.62342  1.0000
  C   C14       1.0  0.49845  0.12108  0.37658  1.0000
  C   C15       1.0  0.47839  0.81662  0.54154  1.0000
  C   C16       1.0  0.52161  0.18338  0.45846  1.0000
  C   C17       1.0  0.55809  0.70948  0.52943  1.0000
  C   C18       1.0  0.44191  0.29052  0.47057  1.0000
  C   C19       1.0  0.54530  0.64219  0.44646  1.0000
  C   C20       1.0  0.45470  0.35781  0.55354  1.0000
  C   C21       1.0  0.43956  0.67360  0.37253  1.0000
  C   C22       1.0  0.56044  0.32640  0.62747  1.0000
  C   C23       1.0  0.43867  0.60871  0.29065  1.0000
  C   C24       1.0  0.56133  0.39130  0.70934  1.0000
  C   C25       1.0  0.63419  0.47867  0.35226  1.0000
  C   C26       1.0  0.36581  0.52133  0.64774  1.0000
  C   C27       1.0  0.64282  0.53938  0.43596  1.0000
  C   C28       1.0  0.35717  0.46062  0.56404  1.0000
  C   C29       1.0  0.83911  0.09641  0.21141  1.0000
  C   C30       1.0  0.16089  0.90359  0.78859  1.0000
  C   C31       1.0  0.89702  0.00007  0.16083  1.0000
  C   C32       1.0  0.10298  0.99993  0.83917  1.0000
  C   C33       1.0  0.02278  0.93424  0.18831  1.0000
  C   C34       1.0  0.97722  0.06576  0.81169  1.0000
  C   C35       1.0  0.09057  0.96354  0.26825  1.0000
  C   C36       1.0  0.90943  0.03646  0.73175  1.0000
  C   C37       1.0  0.03001  0.05674  0.32033  1.0000
  C   C38       1.0  0.96999  0.94325  0.67967  1.0000
  C   C39       1.0  0.90559  0.12425  0.29305  1.0000
  C   C40       1.0  0.09441  0.87574  0.70695  1.0000
  C   C41       1.0  0.70811  0.17447  0.17474  1.0000
  C   C42       1.0  0.29189  0.82553  0.82526  1.0000
  C   C43       1.0  0.09121  0.83460  0.13256  1.0000
  C   C44       1.0  0.90878  0.16540  0.86743  1.0000
  C   C45       1.0  0.16562  0.39738  0.17470  1.0000
  C   C46       1.0  0.83438  0.60263  0.82530  1.0000
  C   C47       1.0  0.14555  0.47070  0.25304  1.0000
  C   C48       1.0  0.85445  0.52930  0.74696  1.0000
  C   C49       1.0  0.02251  0.52324  0.27932  1.0000
  C   C50       1.0  0.97749  0.47677  0.72068  1.0000
  C   C51       1.0  0.91879  0.50883  0.22656  1.0000
  C   C52       1.0  0.08122  0.49118  0.77344  1.0000
  C   C53       1.0  0.93843  0.43767  0.14620  1.0000
  C   C54       1.0  0.06157  0.56233  0.85380  1.0000
  C   C55       1.0  0.06237  0.37943  0.12245  1.0000
  C   C56       1.0  0.93763  0.62057  0.87755  1.0000
  C   C57       1.0  0.29999  0.35051  0.14277  1.0000
  C   C58       1.0  0.70002  0.64949  0.85723  1.0000
  C   C59       1.0  0.82309  0.43028  0.08618  1.0000
  C   C60       1.0  0.17691  0.56972  0.91382  1.0000
  N   N1        1.0  0.47541  0.16212  0.89611  1.0000
  N   N2        1.0  0.52459  0.83788  0.10389  1.0000
  N   N3        1.0  0.53520  0.51354  0.27886  1.0000
  N   N4        1.0  0.46480  0.48646  0.72113  1.0000
  N   N5        1.0  0.09980  0.08569  0.40679  1.0000
  N   N6        1.0  0.90020  0.91430  0.59321  1.0000
  N   N7        1.0  0.00198  0.59948  0.36275  1.0000
  N   N8        1.0  0.99802  0.40052  0.63725  1.0000
  O   O1        1.0  0.64944  0.13657  0.10685  1.0000
  O   O2        1.0  0.35056  0.86343  0.89315  1.0000
  O   O3        1.0  0.66797  0.26956  0.21176  1.0000
  O   O4        1.0  0.33203  0.73044  0.78824  1.0000
  O   O5        1.0  0.03932  0.15367  0.46564  1.0000
  O   O6        1.0  0.96068  0.84632  0.53436  1.0000
  O   O7        1.0  0.21636  0.03985  0.41627  1.0000
  O   O8        1.0  0.78364  0.96014  0.58373  1.0000
  O   O9        1.0  0.20652  0.79105  0.14499  1.0000
  O   O10       1.0  0.79348  0.20895  0.85501  1.0000
  O   O11       1.0  0.01678  0.79993  0.06950  1.0000
  O   O12       1.0  0.98322  0.20007  0.93050  1.0000
  O   O13       1.0  0.32421  0.27076  0.08245  1.0000
  O   O14       1.0  0.67579  0.72924  0.91756  1.0000
  O   O15       1.0  0.38033  0.39437  0.17821  1.0000
  O   O16       1.0  0.61967  0.60563  0.82179  1.0000
  O   O17       1.0  0.89156  0.63980  0.39023  1.0000
  O   O18       1.0  0.10844  0.36020  0.60977  1.0000
  O   O19       1.0  0.09601  0.61940  0.40107  1.0000
  O   O20       1.0  0.90398  0.38060  0.59893  1.0000
  O   O21       1.0  0.83362  0.35899  0.01987  1.0000
  O   O22       1.0  0.16638  0.64101  0.98013  1.0000
  O   O23       1.0  0.71879  0.50018  0.10692  1.0000
  O   O24       1.0  0.28121  0.49982  0.89308  1.0000
  O   O25       1.0  0.55897  0.39072  0.97565  1.0000
  O   O26       1.0  0.44103  0.60928  0.02435  1.0000
