data_image0
_chemical_formula_structural       Tb2H24C30S6O18
_chemical_formula_sum              "Tb2 H24 C30 S6 O18"
_cell_length_a       8.06219
_cell_length_b       9.18747
_cell_length_c       13.3646
_cell_angle_alpha    81.9207
_cell_angle_beta     74.766
_cell_angle_gamma    74.3495

_space_group_name_H-M_alt    "P 1"
_space_group_IT_number       1

loop_
  _space_group_symop_operation_xyz
  'x, y, z'

loop_
  _atom_site_type_symbol
  _atom_site_label
  _atom_site_symmetry_multiplicity
  _atom_site_fract_x
  _atom_site_fract_y
  _atom_site_fract_z
  _atom_site_occupancy
  Tb  Tb1       1.0  0.77623  0.30219  0.99995  1.0000
  Tb  Tb2       1.0  0.22376  0.69782  0.00005  1.0000
  H   H1        1.0  0.96840  0.01539  0.89854  1.0000
  H   H2        1.0  0.03160  0.98461  0.10146  1.0000
  H   H3        1.0  0.79210  0.98349  0.97661  1.0000
  H   H4        1.0  0.20789  0.01651  0.02338  1.0000
  H   H5        1.0  0.14436  0.32074  0.28011  1.0000
  H   H6        1.0  0.85563  0.67927  0.71989  1.0000
  H   H7        1.0  0.11078  0.59790  0.52523  1.0000
  H   H8        1.0  0.88921  0.40209  0.47477  1.0000
  H   H9        1.0  0.18546  0.18318  0.46238  1.0000
  H   H10       1.0  0.81454  0.81683  0.53761  1.0000
  H   H11       1.0  0.15615  0.70340  0.32765  1.0000
  H   H12       1.0  0.84385  0.29659  0.67235  1.0000
  H   H13       1.0  0.61636  0.16468  0.53824  1.0000
  H   H14       1.0  0.38365  0.83533  0.46177  1.0000
  H   H15       1.0  0.56299  0.06482  0.73608  1.0000
  H   H16       1.0  0.43699  0.93517  0.26393  1.0000
  H   H17       1.0  0.50504  0.20719  0.15185  1.0000
  H   H18       1.0  0.49497  0.79281  0.84815  1.0000
  H   H19       1.0  0.55317  0.06846  0.08356  1.0000
  H   H20       1.0  0.44683  0.93153  0.91644  1.0000
  H   H21       1.0  0.67943  0.64946  0.95976  1.0000
  H   H22       1.0  0.32057  0.35055  0.04024  1.0000
  H   H23       1.0  0.88735  0.59409  0.91380  1.0000
  H   H24       1.0  0.11265  0.40591  0.08621  1.0000
  C   C1        1.0  0.08388  0.22914  0.31966  1.0000
  C   C2        1.0  0.91613  0.77087  0.68034  1.0000
  C   C3        1.0  0.91687  0.21840  0.18150  1.0000
  C   C4        1.0  0.08314  0.78160  0.81849  1.0000
  C   C5        1.0  0.44497  0.53039  0.17921  1.0000
  C   C6        1.0  0.55504  0.46959  0.82079  1.0000
  C   C7        1.0  0.21399  0.54320  0.46205  1.0000
  C   C8        1.0  0.78601  0.45680  0.53794  1.0000
  C   C9        1.0  0.97452  0.17291  0.27879  1.0000
  C   C10       1.0  0.02548  0.82711  0.72121  1.0000
  C   C11       1.0  0.38205  0.51154  0.29277  1.0000
  C   C12       1.0  0.61796  0.48846  0.70723  1.0000
  C   C13       1.0  0.00850  0.04571  0.45135  1.0000
  C   C14       1.0  0.99151  0.95429  0.54864  1.0000
  C   C15       1.0  0.10498  0.15585  0.41712  1.0000
  C   C16       1.0  0.89502  0.84416  0.58287  1.0000
  C   C17       1.0  0.22384  0.20092  0.87261  1.0000
  C   C18       1.0  0.77615  0.79909  0.12740  1.0000
  C   C19       1.0  0.30588  0.22734  0.76157  1.0000
  C   C20       1.0  0.69411  0.77266  0.23844  1.0000
  C   C21       1.0  0.23834  0.60052  0.35725  1.0000
  C   C22       1.0  0.76167  0.39948  0.64275  1.0000
  C   C23       1.0  0.49630  0.20645  0.59703  1.0000
  C   C24       1.0  0.50370  0.79354  0.40297  1.0000
  C   C25       1.0  0.46802  0.15302  0.70272  1.0000
  C   C26       1.0  0.53199  0.84698  0.29728  1.0000
  C   C27       1.0  0.34045  0.41051  0.47820  1.0000
  C   C28       1.0  0.65957  0.58950  0.52180  1.0000
  C   C29       1.0  0.35646  0.32392  0.57544  1.0000
  C   C30       1.0  0.64354  0.67608  0.42456  1.0000
  S   S1        1.0  0.18924  0.36394  0.68661  1.0000
  S   S2        1.0  0.81076  0.63606  0.31339  1.0000
  S   S3        1.0  0.48798  0.35706  0.36199  1.0000
  S   S4        1.0  0.51204  0.64294  0.63801  1.0000
  S   S5        1.0  0.89871  0.02911  0.35988  1.0000
  S   S6        1.0  0.10129  0.97090  0.64012  1.0000
  O   O1        1.0  0.84181  0.13096  0.15087  1.0000
  O   O2        1.0  0.15821  0.86904  0.84912  1.0000
  O   O3        1.0  0.84525  0.06505  0.93163  1.0000
  O   O4        1.0  0.15475  0.93496  0.06837  1.0000
  O   O5        1.0  0.57016  0.42409  0.13614  1.0000
  O   O6        1.0  0.42984  0.57589  0.86387  1.0000
  O   O7        1.0  0.93825  0.34117  0.12830  1.0000
  O   O8        1.0  0.06174  0.65884  0.87170  1.0000
  O   O9        1.0  0.31625  0.11170  0.93027  1.0000
  O   O10       1.0  0.68374  0.88830  0.06972  1.0000
  O   O11       1.0  0.06089  0.27054  0.90439  1.0000
  O   O12       1.0  0.93909  0.72948  0.09561  1.0000
  O   O13       1.0  0.51742  0.18166  0.08132  1.0000
  O   O14       1.0  0.48258  0.81833  0.91868  1.0000
  O   O15       1.0  0.36976  0.64802  0.13068  1.0000
  O   O16       1.0  0.63026  0.35197  0.86932  1.0000
  O   O17       1.0  0.77662  0.55846  0.94495  1.0000
  O   O18       1.0  0.22338  0.44155  0.05505  1.0000
