data_image0
_chemical_formula_structural       Cd2H10C22N2O8
_chemical_formula_sum              "Cd2 H10 C22 N2 O8"
_cell_length_a       5.26705
_cell_length_b       7.96058
_cell_length_c       11.5206
_cell_angle_alpha    103.8
_cell_angle_beta     90.0019
_cell_angle_gamma    89.9995

_space_group_name_H-M_alt    "P 1"
_space_group_IT_number       1

loop_
  _space_group_symop_operation_xyz
  'x, y, z'

loop_
  _atom_site_type_symbol
  _atom_site_label
  _atom_site_symmetry_multiplicity
  _atom_site_fract_x
  _atom_site_fract_y
  _atom_site_fract_z
  _atom_site_occupancy
  Cd  Cd1       1.0  0.29055  0.17620  0.92517  1.0000
  Cd  Cd2       1.0  0.79057  0.82379  0.07483  1.0000
  H   H1        1.0  0.78552  0.71805  0.68060  1.0000
  H   H2        1.0  0.28556  0.28195  0.31940  1.0000
  H   H3        1.0  0.07385  0.50301  0.55216  1.0000
  H   H4        1.0  0.57391  0.49698  0.44784  1.0000
  H   H5        1.0  0.25172  0.20463  0.50158  1.0000
  H   H6        1.0  0.75178  0.79536  0.49842  1.0000
  H   H7        1.0  0.07774  0.98048  0.59549  1.0000
  H   H8        1.0  0.57779  0.01952  0.40450  1.0000
  H   H9        1.0  0.70131  0.04404  0.73036  1.0000
  H   H10       1.0  0.20134  0.95596  0.26964  1.0000
  C   C1        1.0  0.14502  0.53619  0.90419  1.0000
  C   C2        1.0  0.64501  0.46383  0.09580  1.0000
  C   C3        1.0  0.38113  0.50580  0.82682  1.0000
  C   C4        1.0  0.88113  0.49420  0.17318  1.0000
  C   C5        1.0  0.49209  0.64702  0.78954  1.0000
  C   C6        1.0  0.99210  0.35298  0.21046  1.0000
  C   C7        1.0  0.41462  0.83147  0.84029  1.0000
  C   C8        1.0  0.91463  0.16853  0.15971  1.0000
  C   C9        1.0  0.69112  0.61310  0.70964  1.0000
  C   C10       1.0  0.19115  0.38690  0.29036  1.0000
  C   C11       1.0  0.78447  0.44281  0.66963  1.0000
  C   C12       1.0  0.28450  0.55719  0.33037  1.0000
  C   C13       1.0  0.99110  0.40130  0.58907  1.0000
  C   C14       1.0  0.49114  0.59871  0.41093  1.0000
  C   C15       1.0  0.08970  0.23625  0.56146  1.0000
  C   C16       1.0  0.58975  0.76375  0.43854  1.0000
  C   C17       1.0  0.98768  0.10726  0.61359  1.0000
  C   C18       1.0  0.48771  0.89273  0.38641  1.0000
  C   C19       1.0  0.78234  0.14256  0.69004  1.0000
  C   C20       1.0  0.28237  0.85744  0.30996  1.0000
  C   C21       1.0  0.67445  0.31039  0.71915  1.0000
  C   C22       1.0  0.17448  0.68961  0.28085  1.0000
  N   N1        1.0  0.47242  0.34612  0.79523  1.0000
  N   N2        1.0  0.97243  0.65388  0.20477  1.0000
  O   O1        1.0  0.27597  0.90894  0.77957  1.0000
  O   O2        1.0  0.77600  0.09106  0.22043  1.0000
  O   O3        1.0  0.51618  0.91248  0.93918  1.0000
  O   O4        1.0  0.01618  0.08753  0.06082  1.0000
  O   O5        1.0  0.06476  0.69048  0.92925  1.0000
  O   O6        1.0  0.56476  0.30950  0.07075  1.0000
  O   O7        1.0  0.03919  0.40924  0.93337  1.0000
  O   O8        1.0  0.53920  0.59076  0.06664  1.0000
