data_image0
_chemical_formula_structural       U8H32C32O44
_chemical_formula_sum              "U8 H32 C32 O44"
_cell_length_a       6.66314
_cell_length_b       14.7438
_cell_length_c       15.0286
_cell_angle_alpha    101.352
_cell_angle_beta     89.9991
_cell_angle_gamma    89.9998

_space_group_name_H-M_alt    "P 1"
_space_group_IT_number       1

loop_
  _space_group_symop_operation_xyz
  'x, y, z'

loop_
  _atom_site_type_symbol
  _atom_site_label
  _atom_site_symmetry_multiplicity
  _atom_site_fract_x
  _atom_site_fract_y
  _atom_site_fract_z
  _atom_site_occupancy
  U   U1        1.0  0.26509  0.94750  0.61747  1.0000
  U   U2        1.0  0.26510  0.05250  0.88253  1.0000
  U   U3        1.0  0.73491  0.05250  0.38253  1.0000
  U   U4        1.0  0.73491  0.94750  0.11746  1.0000
  U   U5        1.0  0.30729  0.77459  0.83618  1.0000
  U   U6        1.0  0.30728  0.22541  0.66382  1.0000
  U   U7        1.0  0.69271  0.22541  0.16382  1.0000
  U   U8        1.0  0.69272  0.77459  0.33618  1.0000
  H   H1        1.0  0.51008  0.91158  0.76385  1.0000
  H   H2        1.0  0.51007  0.08843  0.73615  1.0000
  H   H3        1.0  0.48992  0.08842  0.23615  1.0000
  H   H4        1.0  0.48993  0.91157  0.26385  1.0000
  H   H5        1.0  0.29279  0.92009  0.99775  1.0000
  H   H6        1.0  0.29279  0.07991  0.50225  1.0000
  H   H7        1.0  0.70721  0.07991  0.00225  1.0000
  H   H8        1.0  0.70722  0.92009  0.49775  1.0000
  H   H9        1.0  0.01560  0.90297  0.45108  1.0000
  H   H10       1.0  0.01558  0.09703  0.04891  1.0000
  H   H11       1.0  0.98441  0.09703  0.54891  1.0000
  H   H12       1.0  0.98442  0.90297  0.95108  1.0000
  H   H13       1.0  0.24035  0.85891  0.42072  1.0000
  H   H14       1.0  0.24034  0.14109  0.07928  1.0000
  H   H15       1.0  0.75966  0.14109  0.57928  1.0000
  H   H16       1.0  0.75966  0.85891  0.92072  1.0000
  H   H17       1.0  0.21725  0.67874  0.42932  1.0000
  H   H18       1.0  0.21724  0.32127  0.07068  1.0000
  H   H19       1.0  0.78275  0.32126  0.57067  1.0000
  H   H20       1.0  0.78276  0.67874  0.92932  1.0000
  H   H21       1.0  0.17355  0.52452  0.32928  1.0000
  H   H22       1.0  0.17354  0.47548  0.17073  1.0000
  H   H23       1.0  0.82646  0.47548  0.67072  1.0000
  H   H24       1.0  0.82646  0.52451  0.82928  1.0000
  H   H25       1.0  0.20327  0.38075  0.39322  1.0000
  H   H26       1.0  0.20327  0.61926  0.10679  1.0000
  H   H27       1.0  0.79671  0.61925  0.60678  1.0000
  H   H28       1.0  0.79672  0.38074  0.89323  1.0000
  H   H29       1.0  0.32774  0.54675  0.65636  1.0000
  H   H30       1.0  0.32774  0.45325  0.84365  1.0000
  H   H31       1.0  0.67226  0.45325  0.34364  1.0000
  H   H32       1.0  0.67227  0.54675  0.15636  1.0000
  C   C1        1.0  0.27722  0.37316  0.57163  1.0000
  C   C2        1.0  0.27723  0.62685  0.92836  1.0000
  C   C3        1.0  0.72277  0.62684  0.42835  1.0000
  C   C4        1.0  0.72276  0.37316  0.07165  1.0000
  C   C5        1.0  0.27682  0.62231  0.54897  1.0000
  C   C6        1.0  0.27683  0.37769  0.95104  1.0000
  C   C7        1.0  0.72318  0.37769  0.45103  1.0000
  C   C8        1.0  0.72320  0.62231  0.04897  1.0000
  C   C9        1.0  0.23085  0.61599  0.45681  1.0000
  C   C10       1.0  0.23085  0.38402  0.04320  1.0000
  C   C11       1.0  0.76914  0.38402  0.54319  1.0000
  C   C12       1.0  0.76916  0.61598  0.95681  1.0000
  C   C13       1.0  0.20662  0.52918  0.40101  1.0000
  C   C14       1.0  0.20661  0.47083  0.09900  1.0000
  C   C15       1.0  0.79337  0.47083  0.59899  1.0000
  C   C16       1.0  0.79338  0.52917  0.90101  1.0000
  C   C17       1.0  0.22268  0.44876  0.43649  1.0000
  C   C18       1.0  0.22268  0.55125  0.06352  1.0000
  C   C19       1.0  0.77731  0.55124  0.56351  1.0000
  C   C20       1.0  0.77732  0.44875  0.93650  1.0000
  C   C21       1.0  0.26418  0.45550  0.52909  1.0000
  C   C22       1.0  0.26418  0.54451  0.97091  1.0000
  C   C23       1.0  0.73581  0.54451  0.47090  1.0000
  C   C24       1.0  0.73582  0.45549  0.02910  1.0000
  C   C25       1.0  0.29364  0.54208  0.58476  1.0000
  C   C26       1.0  0.29364  0.45792  0.91524  1.0000
  C   C27       1.0  0.70636  0.45792  0.41523  1.0000
  C   C28       1.0  0.70637  0.54208  0.08477  1.0000
  C   C29       1.0  0.30956  0.71269  0.61047  1.0000
  C   C30       1.0  0.30957  0.28731  0.88954  1.0000
  C   C31       1.0  0.69043  0.28731  0.38953  1.0000
  C   C32       1.0  0.69044  0.71269  0.11047  1.0000
  O   O1        1.0  0.00659  0.95514  0.65219  1.0000
  O   O2        1.0  0.00659  0.04487  0.84782  1.0000
  O   O3        1.0  0.99341  0.04486  0.34781  1.0000
  O   O4        1.0  0.99340  0.95514  0.15218  1.0000
  O   O5        1.0  0.52874  0.94131  0.58526  1.0000
  O   O6        1.0  0.52874  0.05868  0.91475  1.0000
  O   O7        1.0  0.47127  0.05867  0.41475  1.0000
  O   O8        1.0  0.47126  0.94131  0.08525  1.0000
  O   O9        1.0  0.04533  0.76699  0.80425  1.0000
  O   O10       1.0  0.04532  0.23301  0.69574  1.0000
  O   O11       1.0  0.95467  0.23300  0.19575  1.0000
  O   O12       1.0  0.95468  0.76699  0.30425  1.0000
  O   O13       1.0  0.57295  0.79031  0.86639  1.0000
  O   O14       1.0  0.57295  0.20969  0.63362  1.0000
  O   O15       1.0  0.42705  0.20969  0.13360  1.0000
  O   O16       1.0  0.42706  0.79031  0.36639  1.0000
  O   O17       1.0  0.36323  0.91206  0.76527  1.0000
  O   O18       1.0  0.36323  0.08794  0.73474  1.0000
  O   O19       1.0  0.63677  0.08793  0.23473  1.0000
  O   O20       1.0  0.63678  0.91206  0.26527  1.0000
  O   O21       1.0  0.22131  0.91145  0.93856  1.0000
  O   O22       1.0  0.22131  0.08855  0.56145  1.0000
  O   O23       1.0  0.77869  0.08855  0.06144  1.0000
  O   O24       1.0  0.77870  0.91145  0.43856  1.0000
  O   O25       1.0  0.16440  0.90515  0.46516  1.0000
  O   O26       1.0  0.16438  0.09485  0.03483  1.0000
  O   O27       1.0  0.83561  0.09485  0.53483  1.0000
  O   O28       1.0  0.83562  0.90515  0.96516  1.0000
  O   O29       1.0  0.38927  0.71306  0.68822  1.0000
  O   O30       1.0  0.38927  0.28693  0.81178  1.0000
  O   O31       1.0  0.61071  0.28694  0.31178  1.0000
  O   O32       1.0  0.61073  0.71307  0.18822  1.0000
  O   O33       1.0  0.25816  0.78684  0.58549  1.0000
  O   O34       1.0  0.25816  0.21317  0.91451  1.0000
  O   O35       1.0  0.74183  0.21316  0.41451  1.0000
  O   O36       1.0  0.74184  0.78683  0.08549  1.0000
  O   O37       1.0  0.25164  0.29064  0.52669  1.0000
  O   O38       1.0  0.25163  0.70936  0.97331  1.0000
  O   O39       1.0  0.74836  0.70936  0.47330  1.0000
  O   O40       1.0  0.74836  0.29064  0.02670  1.0000
  O   O41       1.0  0.31453  0.38509  0.65748  1.0000
  O   O42       1.0  0.31456  0.61491  0.84252  1.0000
  O   O43       1.0  0.68546  0.61491  0.34251  1.0000
  O   O44       1.0  0.68544  0.38509  0.15749  1.0000
