data_image0
_chemical_formula_structural       Zn2H30C24N4O10
_chemical_formula_sum              "Zn2 H30 C24 N4 O10"
_cell_length_a       5.21083
_cell_length_b       9.14936
_cell_length_c       16.3202
_cell_angle_alpha    96.8328
_cell_angle_beta     97.2656
_cell_angle_gamma    100.642

_space_group_name_H-M_alt    "P 1"
_space_group_IT_number       1

loop_
  _space_group_symop_operation_xyz
  'x, y, z'

loop_
  _atom_site_type_symbol
  _atom_site_label
  _atom_site_symmetry_multiplicity
  _atom_site_fract_x
  _atom_site_fract_y
  _atom_site_fract_z
  _atom_site_occupancy
  Zn  Zn1       1.0  0.86662  0.89759  0.64056  1.0000
  Zn  Zn2       1.0  0.13338  0.10241  0.35944  1.0000
  H   H1        1.0  0.20686  0.73908  0.73916  1.0000
  H   H2        1.0  0.79314  0.26093  0.26084  1.0000
  H   H3        1.0  0.04714  0.16557  0.77278  1.0000
  H   H4        1.0  0.95287  0.83444  0.22722  1.0000
  H   H5        1.0  0.49024  0.35293  0.71203  1.0000
  H   H6        1.0  0.50976  0.64707  0.28797  1.0000
  H   H7        1.0  0.21051  0.25444  0.64062  1.0000
  H   H8        1.0  0.78949  0.74555  0.35938  1.0000
  H   H9        1.0  0.47589  0.23868  0.52653  1.0000
  H   H10       1.0  0.52411  0.76132  0.47347  1.0000
  H   H11       1.0  0.75332  0.35576  0.58926  1.0000
  H   H12       1.0  0.24668  0.64424  0.41074  1.0000
  H   H13       1.0  0.59854  0.80937  0.85299  1.0000
  H   H14       1.0  0.40145  0.19063  0.14701  1.0000
  H   H15       1.0  0.41822  0.25271  0.89063  1.0000
  H   H16       1.0  0.58177  0.74730  0.10937  1.0000
  H   H17       1.0  0.27249  0.47383  0.55491  1.0000
  H   H18       1.0  0.72752  0.52617  0.44509  1.0000
  H   H19       1.0  0.17637  0.51638  0.65220  1.0000
  H   H20       1.0  0.82364  0.48362  0.34781  1.0000
  H   H21       1.0  0.88210  0.31970  0.94283  1.0000
  H   H22       1.0  0.11790  0.68030  0.05717  1.0000
  H   H23       1.0  0.01987  0.26183  0.03737  1.0000
  H   H24       1.0  0.98012  0.73817  0.96263  1.0000
  H   H25       1.0  0.68071  0.27560  0.01978  1.0000
  H   H26       1.0  0.31928  0.72440  0.98022  1.0000
  H   H27       1.0  0.24977  0.77759  0.58423  1.0000
  H   H28       1.0  0.75023  0.22241  0.41577  1.0000
  H   H29       1.0  0.12572  0.86289  0.51277  1.0000
  H   H30       1.0  0.87428  0.13711  0.48723  1.0000
  C   C1        1.0  0.67075  0.13633  0.62005  1.0000
  C   C2        1.0  0.32925  0.86367  0.37995  1.0000
  C   C3        1.0  0.26622  0.85182  0.77407  1.0000
  C   C4        1.0  0.73378  0.14818  0.22593  1.0000
  C   C5        1.0  0.17473  0.09084  0.79324  1.0000
  C   C6        1.0  0.82527  0.90917  0.20676  1.0000
  C   C7        1.0  0.39725  0.33607  0.64645  1.0000
  C   C8        1.0  0.60276  0.66393  0.35355  1.0000
  C   C9        1.0  0.54223  0.03740  0.88224  1.0000
  C   C10       1.0  0.45776  0.96261  0.11776  1.0000
  C   C11       1.0  0.57572  0.27043  0.59143  1.0000
  C   C12       1.0  0.42428  0.72957  0.40857  1.0000
  C   C13       1.0  0.47828  0.89078  0.83811  1.0000
  C   C14       1.0  0.52172  0.10923  0.16189  1.0000
  C   C15       1.0  0.38206  0.13760  0.85897  1.0000
  C   C16       1.0  0.61794  0.86240  0.14103  1.0000
  C   C17       1.0  0.77089  0.08390  0.94961  1.0000
  C   C18       1.0  0.22910  0.91610  0.05039  1.0000
  C   C19       1.0  0.34046  0.48420  0.62254  1.0000
  C   C20       1.0  0.65955  0.51580  0.37746  1.0000
  C   C21       1.0  0.57551  0.61468  0.64611  1.0000
  C   C22       1.0  0.42449  0.38532  0.35390  1.0000
  C   C23       1.0  0.84501  0.24485  0.98994  1.0000
  C   C24       1.0  0.15498  0.75515  0.01006  1.0000
  N   N1        1.0  0.11817  0.95070  0.75088  1.0000
  N   N2        1.0  0.88183  0.04931  0.24911  1.0000
  N   N3        1.0  0.89282  0.97732  0.96910  1.0000
  N   N4        1.0  0.10717  0.02267  0.03090  1.0000
  O   O1        1.0  0.79862  0.06326  0.57064  1.0000
  O   O2        1.0  0.20137  0.93673  0.42936  1.0000
  O   O3        1.0  0.63643  0.09592  0.68927  1.0000
  O   O4        1.0  0.36357  0.90408  0.31073  1.0000
  O   O5        1.0  0.78789  0.60322  0.68678  1.0000
  O   O6        1.0  0.21212  0.39679  0.31322  1.0000
  O   O7        1.0  0.53705  0.74159  0.62135  1.0000
  O   O8        1.0  0.46295  0.25840  0.37866  1.0000
  O   O9        1.0  0.08253  0.80698  0.56045  1.0000
  O   O10       1.0  0.91747  0.19302  0.43955  1.0000
