data_image0
_chemical_formula_structural       Pr4Ag4H20C36N4O36
_chemical_formula_sum              "Pr4 Ag4 H20 C36 N4 O36"
_cell_length_a       9.65516
_cell_length_b       11.1681
_cell_length_c       13.3379
_cell_angle_alpha    112.636
_cell_angle_beta     89.998
_cell_angle_gamma    115.61

_space_group_name_H-M_alt    "P 1"
_space_group_IT_number       1

loop_
  _space_group_symop_operation_xyz
  'x, y, z'

loop_
  _atom_site_type_symbol
  _atom_site_label
  _atom_site_symmetry_multiplicity
  _atom_site_fract_x
  _atom_site_fract_y
  _atom_site_fract_z
  _atom_site_occupancy
  Pr  Pr1       1.0  0.93179  0.73630  0.81658  1.0000
  Pr  Pr2       1.0  0.19565  0.26387  0.68351  1.0000
  Pr  Pr3       1.0  0.06821  0.26370  0.18342  1.0000
  Pr  Pr4       1.0  0.80435  0.73613  0.31649  1.0000
  Ag  Ag1       1.0  0.71428  0.50743  0.99542  1.0000
  Ag  Ag2       1.0  0.20691  0.49277  0.50461  1.0000
  Ag  Ag3       1.0  0.28572  0.49257  0.00458  1.0000
  Ag  Ag4       1.0  0.79309  0.50723  0.49539  1.0000
  H   H1        1.0  0.06789  0.87730  0.65279  1.0000
  H   H2        1.0  0.19052  0.12283  0.84727  1.0000
  H   H3        1.0  0.93211  0.12270  0.34721  1.0000
  H   H4        1.0  0.80948  0.87717  0.15273  1.0000
  H   H5        1.0  0.89135  0.79973  0.60657  1.0000
  H   H6        1.0  0.09143  0.20029  0.89344  1.0000
  H   H7        1.0  0.10865  0.20027  0.39343  1.0000
  H   H8        1.0  0.90857  0.79971  0.10656  1.0000
  H   H9        1.0  0.52023  0.85721  0.84589  1.0000
  H   H10       1.0  0.66336  0.14301  0.65426  1.0000
  H   H11       1.0  0.47977  0.14279  0.15411  1.0000
  H   H12       1.0  0.33663  0.85698  0.34574  1.0000
  H   H13       1.0  0.88079  0.30637  0.95631  1.0000
  H   H14       1.0  0.57439  0.69365  0.54358  1.0000
  H   H15       1.0  0.11921  0.69363  0.04369  1.0000
  H   H16       1.0  0.42560  0.30635  0.45642  1.0000
  H   H17       1.0  0.41649  0.21845  0.92509  1.0000
  H   H18       1.0  0.19825  0.78189  0.57492  1.0000
  H   H19       1.0  0.58351  0.78155  0.07491  1.0000
  H   H20       1.0  0.80175  0.21811  0.42508  1.0000
  C   C1        1.0  0.27472  0.92221  0.85177  1.0000
  C   C2        1.0  0.35282  0.07814  0.64838  1.0000
  C   C3        1.0  0.72528  0.07779  0.14823  1.0000
  C   C4        1.0  0.64719  0.92187  0.35162  1.0000
  C   C5        1.0  0.44650  0.02384  0.87845  1.0000
  C   C6        1.0  0.42295  0.97646  0.62166  1.0000
  C   C7        1.0  0.55350  0.97615  0.12154  1.0000
  C   C8        1.0  0.57705  0.02354  0.37834  1.0000
  C   C9        1.0  0.55747  0.97363  0.87208  1.0000
  C   C10       1.0  0.58409  0.02657  0.62801  1.0000
  C   C11       1.0  0.44253  0.02637  0.12792  1.0000
  C   C12       1.0  0.41591  0.97343  0.37199  1.0000
  C   C13       1.0  0.71589  0.07605  0.90349  1.0000
  C   C14       1.0  0.64000  0.92406  0.59650  1.0000
  C   C15       1.0  0.28411  0.92394  0.09651  1.0000
  C   C16       1.0  0.35999  0.07593  0.40350  1.0000
  C   C17       1.0  0.75809  0.22399  0.93385  1.0000
  C   C18       1.0  0.53417  0.77612  0.56608  1.0000
  C   C19       1.0  0.24191  0.77600  0.06615  1.0000
  C   C20       1.0  0.46582  0.22388  0.43392  1.0000
  C   C21       1.0  0.49890  0.17415  0.91455  1.0000
  C   C22       1.0  0.32495  0.82615  0.58548  1.0000
  C   C23       1.0  0.50110  0.82585  0.08545  1.0000
  C   C24       1.0  0.67504  0.17385  0.41452  1.0000
  C   C25       1.0  0.84172  0.03390  0.91228  1.0000
  C   C26       1.0  0.80799  0.96615  0.58770  1.0000
  C   C27       1.0  0.15829  0.96612  0.08773  1.0000
  C   C28       1.0  0.19202  0.03387  0.41231  1.0000
  C   C29       1.0  0.55160  0.54085  0.81787  1.0000
  C   C30       1.0  0.01097  0.45938  0.68226  1.0000
  C   C31       1.0  0.44838  0.45914  0.18213  1.0000
  C   C32       1.0  0.98904  0.54060  0.31774  1.0000
  C   C33       1.0  0.54662  0.53077  0.69826  1.0000
  C   C34       1.0  0.01595  0.46943  0.80186  1.0000
  C   C35       1.0  0.45336  0.46922  0.30174  1.0000
  C   C36       1.0  0.98405  0.53056  0.19814  1.0000
  N   N1        1.0  0.65152  0.27204  0.93900  1.0000
  N   N2        1.0  0.37957  0.72816  0.56094  1.0000
  N   N3        1.0  0.34848  0.72796  0.06100  1.0000
  N   N4        1.0  0.62043  0.27184  0.43905  1.0000
  O   O1        1.0  0.22465  0.78672  0.82484  1.0000
  O   O2        1.0  0.43823  0.21362  0.67524  1.0000
  O   O3        1.0  0.77535  0.21327  0.17516  1.0000
  O   O4        1.0  0.56177  0.78637  0.32476  1.0000
  O   O5        1.0  0.18013  0.97710  0.85941  1.0000
  O   O6        1.0  0.20337  0.02326  0.64081  1.0000
  O   O7        1.0  0.81987  0.02289  0.14059  1.0000
  O   O8        1.0  0.79663  0.97674  0.35919  1.0000
  O   O9        1.0  0.81275  0.90304  0.85543  1.0000
  O   O10       1.0  0.90992  0.09697  0.64456  1.0000
  O   O11       1.0  0.18726  0.09695  0.14457  1.0000
  O   O12       1.0  0.09006  0.90303  0.35544  1.0000
  O   O13       1.0  0.97176  0.13715  0.97889  1.0000
  O   O14       1.0  0.83467  0.86282  0.52106  1.0000
  O   O15       1.0  0.02824  0.86285  0.02111  1.0000
  O   O16       1.0  0.16533  0.13718  0.47894  1.0000
  O   O17       1.0  0.68580  0.61409  0.88235  1.0000
  O   O18       1.0  0.07192  0.38613  0.61781  1.0000
  O   O19       1.0  0.31421  0.38592  0.11766  1.0000
  O   O20       1.0  0.92807  0.61387  0.38220  1.0000
  O   O21       1.0  0.67731  0.59502  0.67382  1.0000
  O   O22       1.0  0.08232  0.40517  0.82632  1.0000
  O   O23       1.0  0.32271  0.40498  0.32618  1.0000
  O   O24       1.0  0.91767  0.59484  0.17368  1.0000
  O   O25       1.0  0.42307  0.47213  0.84144  1.0000
  O   O26       1.0  0.95119  0.52814  0.65866  1.0000
  O   O27       1.0  0.57695  0.52788  0.15856  1.0000
  O   O28       1.0  0.04880  0.47187  0.34134  1.0000
  O   O29       1.0  0.41262  0.45644  0.63560  1.0000
  O   O30       1.0  0.95619  0.54375  0.86448  1.0000
  O   O31       1.0  0.58740  0.54357  0.36441  1.0000
  O   O32       1.0  0.04380  0.45626  0.13552  1.0000
  O   O33       1.0  0.96800  0.79423  0.65164  1.0000
  O   O34       1.0  0.17359  0.20584  0.84837  1.0000
  O   O35       1.0  0.03200  0.20577  0.34836  1.0000
  O   O36       1.0  0.82641  0.79416  0.15163  1.0000
