data_image0
_chemical_formula_structural       Sm4Ag4H24C48N16O32
_chemical_formula_sum              "Sm4 Ag4 H24 C48 N16 O32"
_cell_length_a       8.07362
_cell_length_b       10.1203
_cell_length_c       18.6661
_cell_angle_alpha    89.9997
_cell_angle_beta     90
_cell_angle_gamma    95.6987

_space_group_name_H-M_alt    "P 1"
_space_group_IT_number       1

loop_
  _space_group_symop_operation_xyz
  'x, y, z'

loop_
  _atom_site_type_symbol
  _atom_site_label
  _atom_site_symmetry_multiplicity
  _atom_site_fract_x
  _atom_site_fract_y
  _atom_site_fract_z
  _atom_site_occupancy
  Sm  Sm1       1.0  0.25953  0.64698  0.10559  1.0000
  Sm  Sm2       1.0  0.24046  0.35302  0.60560  1.0000
  Sm  Sm3       1.0  0.74047  0.35302  0.89441  1.0000
  Sm  Sm4       1.0  0.75953  0.64698  0.39440  1.0000
  Ag  Ag1       1.0  0.60487  0.15322  0.07623  1.0000
  Ag  Ag2       1.0  0.89513  0.84677  0.57622  1.0000
  Ag  Ag3       1.0  0.39514  0.84677  0.92377  1.0000
  Ag  Ag4       1.0  0.10486  0.15322  0.42377  1.0000
  H   H1        1.0  0.01686  0.14916  0.08417  1.0000
  H   H2        1.0  0.48314  0.85084  0.58417  1.0000
  H   H3        1.0  0.98314  0.85084  0.91583  1.0000
  H   H4        1.0  0.51686  0.14916  0.41583  1.0000
  H   H5        1.0  0.61743  0.85555  0.08048  1.0000
  H   H6        1.0  0.88257  0.14445  0.58048  1.0000
  H   H7        1.0  0.38257  0.14445  0.91952  1.0000
  H   H8        1.0  0.11743  0.85556  0.41952  1.0000
  H   H9        1.0  0.81697  0.67952  0.09059  1.0000
  H   H10       1.0  0.68303  0.32048  0.59059  1.0000
  H   H11       1.0  0.18303  0.32048  0.90941  1.0000
  H   H12       1.0  0.31697  0.67952  0.40941  1.0000
  H   H13       1.0  0.11952  0.45118  0.38062  1.0000
  H   H14       1.0  0.38049  0.54882  0.88062  1.0000
  H   H15       1.0  0.88050  0.54882  0.61938  1.0000
  H   H16       1.0  0.61952  0.45119  0.11938  1.0000
  H   H17       1.0  0.30024  0.29800  0.14977  1.0000
  H   H18       1.0  0.19976  0.70200  0.64977  1.0000
  H   H19       1.0  0.69976  0.70199  0.85023  1.0000
  H   H20       1.0  0.80024  0.29800  0.35023  1.0000
  H   H21       1.0  0.26399  0.14261  0.25589  1.0000
  H   H22       1.0  0.23601  0.85739  0.75588  1.0000
  H   H23       1.0  0.73601  0.85739  0.74412  1.0000
  H   H24       1.0  0.76399  0.14261  0.24411  1.0000
  C   C1        1.0  0.10495  0.63503  0.27217  1.0000
  C   C2        1.0  0.39506  0.36497  0.77217  1.0000
  C   C3        1.0  0.89506  0.36496  0.72783  1.0000
  C   C4        1.0  0.60495  0.63504  0.22783  1.0000
  C   C5        1.0  0.97141  0.04404  0.08619  1.0000
  C   C6        1.0  0.52859  0.95597  0.58619  1.0000
  C   C7        1.0  0.02860  0.95597  0.91381  1.0000
  C   C8        1.0  0.47141  0.04404  0.41381  1.0000
  C   C9        1.0  0.16595  0.49855  0.26948  1.0000
  C   C10       1.0  0.33405  0.50145  0.76948  1.0000
  C   C11       1.0  0.83406  0.50145  0.73052  1.0000
  C   C12       1.0  0.66595  0.49856  0.23052  1.0000
  C   C13       1.0  0.08137  0.94620  0.09122  1.0000
  C   C14       1.0  0.41862  0.05380  0.59122  1.0000
  C   C15       1.0  0.91862  0.05380  0.90878  1.0000
  C   C16       1.0  0.58137  0.94620  0.40878  1.0000
  C   C17       1.0  0.26778  0.97861  0.09181  1.0000
  C   C18       1.0  0.23222  0.02138  0.59181  1.0000
  C   C19       1.0  0.73222  0.02139  0.90819  1.0000
  C   C20       1.0  0.76778  0.97861  0.40819  1.0000
  C   C21       1.0  0.75113  0.88141  0.08364  1.0000
  C   C22       1.0  0.74887  0.11859  0.58364  1.0000
  C   C23       1.0  0.24888  0.11859  0.91636  1.0000
  C   C24       1.0  0.25113  0.88141  0.41636  1.0000
  C   C25       1.0  0.86173  0.78447  0.08912  1.0000
  C   C26       1.0  0.63827  0.21553  0.58911  1.0000
  C   C27       1.0  0.13827  0.21553  0.91088  1.0000
  C   C28       1.0  0.36173  0.78447  0.41088  1.0000
  C   C29       1.0  0.15708  0.41509  0.32899  1.0000
  C   C30       1.0  0.34293  0.58491  0.82899  1.0000
  C   C31       1.0  0.84294  0.58491  0.67101  1.0000
  C   C32       1.0  0.65707  0.41509  0.17101  1.0000
  C   C33       1.0  0.25902  0.33182  0.20164  1.0000
  C   C34       1.0  0.24097  0.66818  0.70164  1.0000
  C   C35       1.0  0.74098  0.66818  0.79837  1.0000
  C   C36       1.0  0.75903  0.33182  0.29836  1.0000
  C   C37       1.0  0.23965  0.24645  0.26053  1.0000
  C   C38       1.0  0.26035  0.75355  0.76053  1.0000
  C   C39       1.0  0.76035  0.75355  0.73947  1.0000
  C   C40       1.0  0.73965  0.24645  0.23947  1.0000
  C   C41       1.0  0.45592  0.43192  0.01232  1.0000
  C   C42       1.0  0.04406  0.56807  0.51232  1.0000
  C   C43       1.0  0.54406  0.56807  0.98768  1.0000
  C   C44       1.0  0.95592  0.43192  0.48768  1.0000
  C   C45       1.0  0.95691  0.46173  0.03232  1.0000
  C   C46       1.0  0.54309  0.53828  0.53232  1.0000
  C   C47       1.0  0.04310  0.53829  0.96768  1.0000
  C   C48       1.0  0.45691  0.46172  0.46768  1.0000
  N   N1        1.0  0.22349  0.45823  0.20648  1.0000
  N   N2        1.0  0.27652  0.54177  0.70648  1.0000
  N   N3        1.0  0.77652  0.54177  0.79352  1.0000
  N   N4        1.0  0.72349  0.45823  0.29352  1.0000
  N   N5        1.0  0.02599  0.81629  0.09219  1.0000
  N   N6        1.0  0.47401  0.18371  0.59218  1.0000
  N   N7        1.0  0.97401  0.18371  0.90782  1.0000
  N   N8        1.0  0.52599  0.81629  0.40781  1.0000
  N   N9        1.0  0.80614  0.01107  0.08165  1.0000
  N   N10       1.0  0.69386  0.98893  0.58165  1.0000
  N   N11       1.0  0.19387  0.98893  0.91835  1.0000
  N   N12       1.0  0.30614  0.01107  0.41835  1.0000
  N   N13       1.0  0.19204  0.28885  0.32473  1.0000
  N   N14       1.0  0.30797  0.71115  0.82473  1.0000
  N   N15       1.0  0.80797  0.71115  0.67527  1.0000
  N   N16       1.0  0.69204  0.28885  0.17527  1.0000
  O   O1        1.0  0.14583  0.71189  0.22029  1.0000
  O   O2        1.0  0.35417  0.28811  0.72029  1.0000
  O   O3        1.0  0.85417  0.28811  0.77971  1.0000
  O   O4        1.0  0.64583  0.71189  0.27971  1.0000
  O   O5        1.0  0.35403  0.87967  0.09078  1.0000
  O   O6        1.0  0.14597  0.12033  0.59079  1.0000
  O   O7        1.0  0.64597  0.12033  0.90921  1.0000
  O   O8        1.0  0.85403  0.87967  0.40921  1.0000
  O   O9        1.0  0.01564  0.65989  0.32543  1.0000
  O   O10       1.0  0.48437  0.34012  0.82543  1.0000
  O   O11       1.0  0.98436  0.34011  0.67458  1.0000
  O   O12       1.0  0.51564  0.65989  0.17457  1.0000
  O   O13       1.0  0.32253  0.09972  0.09134  1.0000
  O   O14       1.0  0.17748  0.90028  0.59134  1.0000
  O   O15       1.0  0.67748  0.90028  0.90867  1.0000
  O   O16       1.0  0.82252  0.09972  0.40867  1.0000
  O   O17       1.0  0.99776  0.50388  0.09442  1.0000
  O   O18       1.0  0.50224  0.49613  0.59442  1.0000
  O   O19       1.0  0.00224  0.49614  0.90558  1.0000
  O   O20       1.0  0.49776  0.50387  0.40559  1.0000
  O   O21       1.0  0.33862  0.43517  0.05700  1.0000
  O   O22       1.0  0.16135  0.56482  0.55700  1.0000
  O   O23       1.0  0.66135  0.56482  0.94300  1.0000
  O   O24       1.0  0.83863  0.43517  0.44300  1.0000
  O   O25       1.0  0.51039  0.32904  0.98603  1.0000
  O   O26       1.0  0.98959  0.67095  0.48603  1.0000
  O   O27       1.0  0.48959  0.67095  0.01397  1.0000
  O   O28       1.0  0.01039  0.32904  0.51397  1.0000
  O   O29       1.0  0.85166  0.36448  0.01733  1.0000
  O   O30       1.0  0.64835  0.63553  0.51733  1.0000
  O   O31       1.0  0.14835  0.63554  0.98267  1.0000
  O   O32       1.0  0.35166  0.36447  0.48267  1.0000
