data_image0
_chemical_formula_structural       Zn2H36C34N8O10
_chemical_formula_sum              "Zn2 H36 C34 N8 O10"
_cell_length_a       7.70276
_cell_length_b       10.6966
_cell_length_c       11.9656
_cell_angle_alpha    91.8241
_cell_angle_beta     90.9213
_cell_angle_gamma    111.496

_space_group_name_H-M_alt    "P 1"
_space_group_IT_number       1

loop_
  _space_group_symop_operation_xyz
  'x, y, z'

loop_
  _atom_site_type_symbol
  _atom_site_label
  _atom_site_symmetry_multiplicity
  _atom_site_fract_x
  _atom_site_fract_y
  _atom_site_fract_z
  _atom_site_occupancy
  Zn  Zn1       1.0  0.67895  0.62343  0.84576  1.0000
  Zn  Zn2       1.0  0.32104  0.37656  0.15422  1.0000
  H   H1        1.0  0.17678  0.93121  0.68491  1.0000
  H   H2        1.0  0.82321  0.06877  0.31508  1.0000
  H   H3        1.0  0.25483  0.79816  0.69946  1.0000
  H   H4        1.0  0.74517  0.20183  0.30053  1.0000
  H   H5        1.0  0.44773  0.00320  0.81865  1.0000
  H   H6        1.0  0.55228  0.99680  0.18133  1.0000
  H   H7        1.0  0.24566  0.99173  0.89331  1.0000
  H   H8        1.0  0.75435  0.00827  0.10667  1.0000
  H   H9        1.0  0.41391  0.88677  0.00690  1.0000
  H   H10       1.0  0.58611  0.11324  0.99309  1.0000
  H   H11       1.0  0.21583  0.75886  0.94973  1.0000
  H   H12       1.0  0.78419  0.24115  0.05027  1.0000
  H   H13       1.0  0.48689  0.31922  0.85017  1.0000
  H   H14       1.0  0.51311  0.68077  0.14982  1.0000
  H   H15       1.0  0.27299  0.13300  0.72609  1.0000
  H   H16       1.0  0.72702  0.86700  0.27390  1.0000
  H   H17       1.0  0.24665  0.43201  0.49990  1.0000
  H   H18       1.0  0.75331  0.56798  0.50010  1.0000
  H   H19       1.0  0.46547  0.60854  0.63420  1.0000
  H   H20       1.0  0.53450  0.39146  0.36580  1.0000
  H   H21       1.0  0.07980  0.20313  0.44499  1.0000
  H   H22       1.0  0.92019  0.79686  0.55500  1.0000
  H   H23       1.0  0.68410  0.43752  0.98920  1.0000
  H   H24       1.0  0.31589  0.56248  0.01079  1.0000
  H   H25       1.0  0.86840  0.47489  0.91393  1.0000
  H   H26       1.0  0.13161  0.52511  0.08608  1.0000
  H   H27       1.0  0.25842  0.69678  0.43381  1.0000
  H   H28       1.0  0.74158  0.30323  0.56621  1.0000
  H   H29       1.0  0.07742  0.50049  0.30458  1.0000
  H   H30       1.0  0.92257  0.49951  0.69544  1.0000
  H   H31       1.0  0.99269  0.75047  0.07004  1.0000
  H   H32       1.0  0.00735  0.24954  0.92997  1.0000
  H   H33       1.0  0.17353  0.95782  0.18890  1.0000
  H   H34       1.0  0.82649  0.04218  0.81111  1.0000
  H   H35       1.0  0.37652  0.06015  0.35838  1.0000
  H   H36       1.0  0.62349  0.93986  0.64162  1.0000
  C   C1        1.0  0.99482  0.77157  0.77379  1.0000
  C   C2        1.0  0.00517  0.22843  0.22620  1.0000
  C   C3        1.0  0.19127  0.86003  0.74579  1.0000
  C   C4        1.0  0.80873  0.13996  0.25420  1.0000
  C   C5        1.0  0.31377  0.93252  0.84726  1.0000
  C   C6        1.0  0.68625  0.06749  0.15272  1.0000
  C   C7        1.0  0.34938  0.83551  0.92713  1.0000
  C   C8        1.0  0.65064  0.16450  0.07286  1.0000
  C   C9        1.0  0.47103  0.76275  0.88341  1.0000
  C   C10       1.0  0.52897  0.23725  0.11659  1.0000
  C   C11       1.0  0.43237  0.33998  0.77115  1.0000
  C   C12       1.0  0.56763  0.66002  0.22886  1.0000
  C   C13       1.0  0.31235  0.23673  0.70233  1.0000
  C   C14       1.0  0.68764  0.76325  0.29767  1.0000
  C   C15       1.0  0.24336  0.26751  0.60176  1.0000
  C   C16       1.0  0.75663  0.73249  0.39824  1.0000
  C   C17       1.0  0.29823  0.40389  0.57680  1.0000
  C   C18       1.0  0.70175  0.59611  0.42321  1.0000
  C   C19       1.0  0.41938  0.50159  0.65004  1.0000
  C   C20       1.0  0.58059  0.49840  0.34997  1.0000
  C   C21       1.0  0.11867  0.16634  0.52265  1.0000
  C   C22       1.0  0.88134  0.83367  0.47735  1.0000
  C   C23       1.0  0.20114  0.71141  0.35361  1.0000
  C   C24       1.0  0.79885  0.28859  0.64642  1.0000
  C   C25       1.0  0.10024  0.60355  0.28254  1.0000
  C   C26       1.0  0.89976  0.39645  0.71748  1.0000
  C   C27       1.0  0.05434  0.74282  0.15121  1.0000
  C   C28       1.0  0.94568  0.25718  0.84881  1.0000
  C   C29       1.0  0.15424  0.85768  0.21717  1.0000
  C   C30       1.0  0.84578  0.14232  0.78285  1.0000
  C   C31       1.0  0.35710  0.95893  0.38569  1.0000
  C   C32       1.0  0.64292  0.04108  0.61432  1.0000
  C   C33       1.0  0.23583  0.84243  0.31905  1.0000
  C   C34       1.0  0.76418  0.15758  0.68097  1.0000
  N   N1        1.0  0.48691  0.47050  0.74539  1.0000
  N   N2        1.0  0.51305  0.52949  0.25461  1.0000
  N   N3        1.0  0.05811  0.03947  0.54311  1.0000
  N   N4        1.0  0.94190  0.96053  0.45689  1.0000
  N   N5        1.0  0.03316  0.61779  0.18075  1.0000
  N   N6        1.0  0.96685  0.38221  0.81927  1.0000
  N   N7        1.0  0.44423  0.94018  0.47333  1.0000
  N   N8        1.0  0.55578  0.05984  0.52668  1.0000
  O   O1        1.0  0.89375  0.68413  0.70110  1.0000
  O   O2        1.0  0.10623  0.31587  0.29889  1.0000
  O   O3        1.0  0.93111  0.78489  0.86996  1.0000
  O   O4        1.0  0.06889  0.21512  0.13004  1.0000
  O   O5        1.0  0.77863  0.51138  0.94845  1.0000
  O   O6        1.0  0.22137  0.48862  0.05155  1.0000
  O   O7        1.0  0.49498  0.67361  0.94772  1.0000
  O   O8        1.0  0.50501  0.32639  0.05228  1.0000
  O   O9        1.0  0.54817  0.78597  0.79067  1.0000
  O   O10       1.0  0.45183  0.21402  0.20933  1.0000
