data_image0
_chemical_formula_structural       Sm2Ag2H22C30N4O24
_chemical_formula_sum              "Sm2 Ag2 H22 C30 N4 O24"
_cell_length_a       7.59751
_cell_length_b       8.23454
_cell_length_c       14.2115
_cell_angle_alpha    97.7872
_cell_angle_beta     100.806
_cell_angle_gamma    94.1298

_space_group_name_H-M_alt    "P 1"
_space_group_IT_number       1

loop_
  _space_group_symop_operation_xyz
  'x, y, z'

loop_
  _atom_site_type_symbol
  _atom_site_label
  _atom_site_symmetry_multiplicity
  _atom_site_fract_x
  _atom_site_fract_y
  _atom_site_fract_z
  _atom_site_occupancy
  Sm  Sm1       1.0  0.81216  0.29757  0.08197  1.0000
  Sm  Sm2       1.0  0.18784  0.70243  0.91803  1.0000
  Ag  Ag1       1.0  0.17192  0.40993  0.53225  1.0000
  Ag  Ag2       1.0  0.82808  0.59007  0.46775  1.0000
  H   H1        1.0  0.20789  0.18885  0.12909  1.0000
  H   H2        1.0  0.79211  0.81115  0.87091  1.0000
  H   H3        1.0  0.13133  0.11421  0.01970  1.0000
  H   H4        1.0  0.86867  0.88579  0.98030  1.0000
  H   H5        1.0  0.78416  0.55208  0.95670  1.0000
  H   H6        1.0  0.21584  0.44792  0.04330  1.0000
  H   H7        1.0  0.63937  0.62502  0.01682  1.0000
  H   H8        1.0  0.36063  0.37498  0.98318  1.0000
  H   H9        1.0  0.97465  0.00756  0.82644  1.0000
  H   H10       1.0  0.02535  0.99244  0.17356  1.0000
  H   H11       1.0  0.03593  0.46504  0.71498  1.0000
  H   H12       1.0  0.96407  0.53496  0.28502  1.0000
  H   H13       1.0  0.52393  0.70426  0.24091  1.0000
  H   H14       1.0  0.47607  0.29575  0.75909  1.0000
  H   H15       1.0  0.32951  0.29403  0.36469  1.0000
  H   H16       1.0  0.67049  0.70597  0.63531  1.0000
  H   H17       1.0  0.16579  0.03817  0.56154  1.0000
  H   H18       1.0  0.83420  0.96183  0.43846  1.0000
  H   H19       1.0  0.27960  0.76777  0.49345  1.0000
  H   H20       1.0  0.72040  0.23224  0.50655  1.0000
  H   H21       1.0  0.45785  0.08897  0.26840  1.0000
  H   H22       1.0  0.54216  0.91103  0.73160  1.0000
  C   C1        1.0  0.92697  0.33360  0.86398  1.0000
  C   C2        1.0  0.07303  0.66640  0.13602  1.0000
  C   C3        1.0  0.49864  0.36991  0.21885  1.0000
  C   C4        1.0  0.50136  0.63009  0.78115  1.0000
  C   C5        1.0  0.56572  0.93882  0.01890  1.0000
  C   C6        1.0  0.43428  0.06118  0.98110  1.0000
  C   C7        1.0  0.99573  0.24618  0.78096  1.0000
  C   C8        1.0  0.00427  0.75381  0.21904  1.0000
  C   C9        1.0  0.43792  0.48558  0.29436  1.0000
  C   C10       1.0  0.56207  0.51442  0.70564  1.0000
  C   C11       1.0  0.01197  0.07737  0.77224  1.0000
  C   C12       1.0  0.98802  0.92263  0.22776  1.0000
  C   C13       1.0  0.04492  0.33276  0.71064  1.0000
  C   C14       1.0  0.95508  0.66724  0.28936  1.0000
  C   C15       1.0  0.46289  0.65528  0.29594  1.0000
  C   C16       1.0  0.53711  0.34471  0.70406  1.0000
  C   C17       1.0  0.35358  0.42593  0.36361  1.0000
  C   C18       1.0  0.64642  0.57407  0.63639  1.0000
  C   C19       1.0  0.07545  0.99942  0.69361  1.0000
  C   C20       1.0  0.92455  0.00058  0.30639  1.0000
  C   C21       1.0  0.40316  0.76013  0.36655  1.0000
  C   C22       1.0  0.59684  0.23987  0.63345  1.0000
  C   C23       1.0  0.11753  0.09404  0.62478  1.0000
  C   C24       1.0  0.88247  0.90596  0.37522  1.0000
  C   C25       1.0  0.09692  0.81716  0.68375  1.0000
  C   C26       1.0  0.90308  0.18284  0.31625  1.0000
  C   C27       1.0  0.32694  0.69164  0.43621  1.0000
  C   C28       1.0  0.67306  0.30836  0.56379  1.0000
  C   C29       1.0  0.40551  0.94068  0.36179  1.0000
  C   C30       1.0  0.59449  0.05932  0.63821  1.0000
  N   N1        1.0  0.10310  0.25782  0.63348  1.0000
  N   N2        1.0  0.89690  0.74219  0.36652  1.0000
  N   N3        1.0  0.30207  0.52730  0.43417  1.0000
  N   N4        1.0  0.69793  0.47270  0.56583  1.0000
  O   O1        1.0  0.86271  0.24732  0.91896  1.0000
  O   O2        1.0  0.13729  0.75268  0.08104  1.0000
  O   O3        1.0  0.61592  0.42828  0.17686  1.0000
  O   O4        1.0  0.38408  0.57172  0.82315  1.0000
  O   O5        1.0  0.72770  0.99749  0.05368  1.0000
  O   O6        1.0  0.27230  0.00251  0.94632  1.0000
  O   O7        1.0  0.09600  0.16834  0.07859  1.0000
  O   O8        1.0  0.90400  0.83166  0.92141  1.0000
  O   O9        1.0  0.71893  0.53591  0.00927  1.0000
  O   O10       1.0  0.28106  0.46409  0.99073  1.0000
  O   O11       1.0  0.49785  0.20957  0.98889  1.0000
  O   O12       1.0  0.50215  0.79043  0.01111  1.0000
  O   O13       1.0  0.06439  0.50853  0.12557  1.0000
  O   O14       1.0  0.93561  0.49147  0.87443  1.0000
  O   O15       1.0  0.91452  0.25137  0.24139  1.0000
  O   O16       1.0  0.08548  0.74863  0.75861  1.0000
  O   O17       1.0  0.42709  0.22070  0.20067  1.0000
  O   O18       1.0  0.57291  0.77930  0.79933  1.0000
  O   O19       1.0  0.12184  0.74435  0.60429  1.0000
  O   O20       1.0  0.87815  0.25565  0.39571  1.0000
  O   O21       1.0  0.48132  0.97750  0.28925  1.0000
  O   O22       1.0  0.51868  0.02250  0.71075  1.0000
  O   O23       1.0  0.33891  0.03800  0.41548  1.0000
  O   O24       1.0  0.66109  0.96200  0.58452  1.0000
