data_image0
_chemical_formula_structural       Zn4H44C60N8O16
_chemical_formula_sum              "Zn4 H44 C60 N8 O16"
_cell_length_a       9.22551
_cell_length_b       10.33
_cell_length_c       14.2219
_cell_angle_alpha    98.6096
_cell_angle_beta     90.0001
_cell_angle_gamma    90

_space_group_name_H-M_alt    "P 1"
_space_group_IT_number       1

loop_
  _space_group_symop_operation_xyz
  'x, y, z'

loop_
  _atom_site_type_symbol
  _atom_site_label
  _atom_site_symmetry_multiplicity
  _atom_site_fract_x
  _atom_site_fract_y
  _atom_site_fract_z
  _atom_site_occupancy
  Zn  Zn1       1.0  0.85364  0.93232  0.91688  1.0000
  Zn  Zn2       1.0  0.35365  0.06768  0.58312  1.0000
  Zn  Zn3       1.0  0.14636  0.06768  0.08312  1.0000
  Zn  Zn4       1.0  0.64636  0.93232  0.41688  1.0000
  H   H1        1.0  0.76350  0.03461  0.13386  1.0000
  H   H2        1.0  0.26350  0.96539  0.36614  1.0000
  H   H3        1.0  0.23650  0.96539  0.86614  1.0000
  H   H4        1.0  0.73650  0.03461  0.63386  1.0000
  H   H5        1.0  0.35591  0.41296  0.59020  1.0000
  H   H6        1.0  0.85591  0.58704  0.90980  1.0000
  H   H7        1.0  0.64409  0.58704  0.40980  1.0000
  H   H8        1.0  0.14409  0.41296  0.09020  1.0000
  H   H9        1.0  0.72684  0.48406  0.09205  1.0000
  H   H10       1.0  0.22684  0.51595  0.40795  1.0000
  H   H11       1.0  0.27316  0.51595  0.90795  1.0000
  H   H12       1.0  0.77316  0.48405  0.59205  1.0000
  H   H13       1.0  0.66135  0.55722  0.81027  1.0000
  H   H14       1.0  0.16135  0.44278  0.68973  1.0000
  H   H15       1.0  0.33865  0.44278  0.18973  1.0000
  H   H16       1.0  0.83865  0.55722  0.31027  1.0000
  H   H17       1.0  0.37036  0.62702  0.52939  1.0000
  H   H18       1.0  0.87036  0.37297  0.97061  1.0000
  H   H19       1.0  0.62964  0.37297  0.47061  1.0000
  H   H20       1.0  0.12964  0.62703  0.02939  1.0000
  H   H21       1.0  0.49868  0.37877  0.73211  1.0000
  H   H22       1.0  0.99868  0.62123  0.76789  1.0000
  H   H23       1.0  0.50132  0.62123  0.26789  1.0000
  H   H24       1.0  0.00132  0.37877  0.23211  1.0000
  H   H25       1.0  0.51460  0.13247  0.82719  1.0000
  H   H26       1.0  0.01460  0.86753  0.67281  1.0000
  H   H27       1.0  0.48540  0.86753  0.17281  1.0000
  H   H28       1.0  0.98540  0.13246  0.32719  1.0000
  H   H29       1.0  0.69940  0.08920  0.80583  1.0000
  H   H30       1.0  0.19941  0.91080  0.69417  1.0000
  H   H31       1.0  0.30059  0.91080  0.19417  1.0000
  H   H32       1.0  0.80059  0.08920  0.30583  1.0000
  H   H33       1.0  0.64839  0.25724  0.82955  1.0000
  H   H34       1.0  0.14839  0.74276  0.67045  1.0000
  H   H35       1.0  0.35161  0.74276  0.17045  1.0000
  H   H36       1.0  0.85161  0.25724  0.32955  1.0000
  H   H37       1.0  0.63254  0.27957  0.17588  1.0000
  H   H38       1.0  0.13254  0.72043  0.32412  1.0000
  H   H39       1.0  0.36746  0.72043  0.82412  1.0000
  H   H40       1.0  0.86746  0.27958  0.67588  1.0000
  H   H41       1.0  0.63137  0.70310  0.07035  1.0000
  H   H42       1.0  0.13137  0.29690  0.42965  1.0000
  H   H43       1.0  0.36863  0.29690  0.92965  1.0000
  H   H44       1.0  0.86863  0.70310  0.57035  1.0000
  C   C1        1.0  0.71555  0.79140  0.75607  1.0000
  C   C2        1.0  0.21555  0.20860  0.74393  1.0000
  C   C3        1.0  0.28445  0.20859  0.24393  1.0000
  C   C4        1.0  0.78445  0.79140  0.25607  1.0000
  C   C5        1.0  0.72014  0.09888  0.08718  1.0000
  C   C6        1.0  0.22014  0.90112  0.41282  1.0000
  C   C7        1.0  0.27986  0.90112  0.91282  1.0000
  C   C8        1.0  0.77986  0.09888  0.58718  1.0000
  C   C9        1.0  0.42380  0.49177  0.62583  1.0000
  C   C10       1.0  0.92380  0.50823  0.87417  1.0000
  C   C11       1.0  0.57620  0.50823  0.37417  1.0000
  C   C12       1.0  0.07620  0.49177  0.12583  1.0000
  C   C13       1.0  0.62697  0.49175  0.05231  1.0000
  C   C14       1.0  0.12697  0.50825  0.44769  1.0000
  C   C15       1.0  0.37303  0.50825  0.94769  1.0000
  C   C16       1.0  0.87303  0.49175  0.55231  1.0000
  C   C17       1.0  0.52360  0.83651  0.59252  1.0000
  C   C18       1.0  0.02360  0.16349  0.90748  1.0000
  C   C19       1.0  0.47640  0.16349  0.40748  1.0000
  C   C20       1.0  0.97640  0.83651  0.09252  1.0000
  C   C21       1.0  0.60784  0.69054  0.71354  1.0000
  C   C22       1.0  0.10784  0.30946  0.78646  1.0000
  C   C23       1.0  0.39216  0.30946  0.28646  1.0000
  C   C24       1.0  0.89216  0.69054  0.21354  1.0000
  C   C25       1.0  0.52353  0.71133  0.63488  1.0000
  C   C26       1.0  0.02353  0.28867  0.86512  1.0000
  C   C27       1.0  0.47647  0.28867  0.36512  1.0000
  C   C28       1.0  0.97647  0.71133  0.13488  1.0000
  C   C29       1.0  0.59629  0.57108  0.74871  1.0000
  C   C30       1.0  0.09629  0.42892  0.75129  1.0000
  C   C31       1.0  0.40371  0.42892  0.25129  1.0000
  C   C32       1.0  0.90371  0.57108  0.24871  1.0000
  C   C33       1.0  0.43256  0.61118  0.59168  1.0000
  C   C34       1.0  0.93256  0.38881  0.90832  1.0000
  C   C35       1.0  0.56744  0.38881  0.40832  1.0000
  C   C36       1.0  0.06744  0.61119  0.09168  1.0000
  C   C37       1.0  0.65192  0.15768  0.95082  1.0000
  C   C38       1.0  0.15193  0.84232  0.54918  1.0000
  C   C39       1.0  0.34807  0.84232  0.04918  1.0000
  C   C40       1.0  0.84808  0.15768  0.45082  1.0000
  C   C41       1.0  0.55368  0.37854  0.01160  1.0000
  C   C42       1.0  0.05368  0.62146  0.48840  1.0000
  C   C43       1.0  0.44632  0.62146  0.98840  1.0000
  C   C44       1.0  0.94632  0.37855  0.51160  1.0000
  C   C45       1.0  0.50561  0.47193  0.70512  1.0000
  C   C46       1.0  0.00561  0.52807  0.79488  1.0000
  C   C47       1.0  0.49439  0.52807  0.29488  1.0000
  C   C48       1.0  0.99439  0.47193  0.20512  1.0000
  C   C49       1.0  0.62692  0.15943  0.84795  1.0000
  C   C50       1.0  0.12692  0.84057  0.65205  1.0000
  C   C51       1.0  0.37308  0.84057  0.15205  1.0000
  C   C52       1.0  0.87308  0.15943  0.34795  1.0000
  C   C53       1.0  0.65612  0.21871  0.10891  1.0000
  C   C54       1.0  0.15612  0.78129  0.39109  1.0000
  C   C55       1.0  0.34388  0.78129  0.89109  1.0000
  C   C56       1.0  0.84388  0.21871  0.60891  1.0000
  C   C57       1.0  0.57358  0.61427  0.04051  1.0000
  C   C58       1.0  0.07358  0.38573  0.45949  1.0000
  C   C59       1.0  0.42642  0.38573  0.95949  1.0000
  C   C60       1.0  0.92642  0.61427  0.54051  1.0000
  N   N1        1.0  0.61291  0.25481  0.02281  1.0000
  N   N2        1.0  0.11291  0.74519  0.47719  1.0000
  N   N3        1.0  0.38709  0.74519  0.97719  1.0000
  N   N4        1.0  0.88709  0.25481  0.52281  1.0000
  N   N5        1.0  0.71811  0.06285  0.98925  1.0000
  N   N6        1.0  0.21812  0.93715  0.51075  1.0000
  N   N7        1.0  0.28188  0.93715  0.01075  1.0000
  N   N8        1.0  0.78189  0.06285  0.48925  1.0000
  O   O1        1.0  0.56001  0.82308  0.50532  1.0000
  O   O2        1.0  0.06002  0.17693  0.99468  1.0000
  O   O3        1.0  0.43999  0.17692  0.49468  1.0000
  O   O4        1.0  0.93999  0.82308  0.00532  1.0000
  O   O5        1.0  0.76871  0.86895  0.70583  1.0000
  O   O6        1.0  0.26871  0.13105  0.79417  1.0000
  O   O7        1.0  0.23129  0.13105  0.29417  1.0000
  O   O8        1.0  0.73129  0.86895  0.20583  1.0000
  O   O9        1.0  0.74820  0.78763  0.84434  1.0000
  O   O10       1.0  0.24820  0.21238  0.65566  1.0000
  O   O11       1.0  0.25180  0.21237  0.15566  1.0000
  O   O12       1.0  0.75180  0.78762  0.34434  1.0000
  O   O13       1.0  0.47587  0.94083  0.64225  1.0000
  O   O14       1.0  0.97587  0.05917  0.85775  1.0000
  O   O15       1.0  0.52413  0.05917  0.35775  1.0000
  O   O16       1.0  0.02413  0.94083  0.14225  1.0000
