data_image0
_chemical_formula_structural       Dy2Ag2H22C30N4O24
_chemical_formula_sum              "Dy2 Ag2 H22 C30 N4 O24"
_cell_length_a       7.51419
_cell_length_b       8.19894
_cell_length_c       14.1885
_cell_angle_alpha    98.3576
_cell_angle_beta     100.459
_cell_angle_gamma    94.7443

_space_group_name_H-M_alt    "P 1"
_space_group_IT_number       1

loop_
  _space_group_symop_operation_xyz
  'x, y, z'

loop_
  _atom_site_type_symbol
  _atom_site_label
  _atom_site_symmetry_multiplicity
  _atom_site_fract_x
  _atom_site_fract_y
  _atom_site_fract_z
  _atom_site_occupancy
  Dy  Dy1       1.0  0.81115  0.79725  0.58027  1.0000
  Dy  Dy2       1.0  0.18885  0.20275  0.41973  1.0000
  Ag  Ag1       1.0  0.17026  0.90254  0.03183  1.0000
  Ag  Ag2       1.0  0.82974  0.09746  0.96817  1.0000
  H   H1        1.0  0.45426  0.58456  0.76701  1.0000
  H   H2        1.0  0.54574  0.41545  0.23299  1.0000
  H   H3        1.0  0.20257  0.68832  0.62647  1.0000
  H   H4        1.0  0.79743  0.31168  0.37353  1.0000
  H   H5        1.0  0.12666  0.61410  0.51639  1.0000
  H   H6        1.0  0.87334  0.38591  0.48361  1.0000
  H   H7        1.0  0.78475  0.05125  0.45939  1.0000
  H   H8        1.0  0.21524  0.94874  0.54061  1.0000
  H   H9        1.0  0.63700  0.12041  0.51974  1.0000
  H   H10       1.0  0.36300  0.87959  0.48026  1.0000
  H   H11       1.0  0.32941  0.78711  0.86334  1.0000
  H   H12       1.0  0.67059  0.21289  0.13666  1.0000
  H   H13       1.0  0.02513  0.49259  0.66964  1.0000
  H   H14       1.0  0.97487  0.50742  0.33036  1.0000
  H   H15       1.0  0.27982  0.26333  0.99450  1.0000
  H   H16       1.0  0.72018  0.73667  0.00550  1.0000
  H   H17       1.0  0.52430  0.20034  0.73972  1.0000
  H   H18       1.0  0.47570  0.79967  0.26028  1.0000
  H   H19       1.0  0.83489  0.47053  0.93695  1.0000
  H   H20       1.0  0.16510  0.52947  0.06305  1.0000
  H   H21       1.0  0.96555  0.03794  0.78497  1.0000
  H   H22       1.0  0.03445  0.96206  0.21503  1.0000
  C   C1        1.0  0.00547  0.25521  0.71736  1.0000
  C   C2        1.0  0.99452  0.74479  0.28264  1.0000
  C   C3        1.0  0.35356  0.91985  0.86250  1.0000
  C   C4        1.0  0.64643  0.08015  0.13750  1.0000
  C   C5        1.0  0.40353  0.25606  0.86657  1.0000
  C   C6        1.0  0.59647  0.74394  0.13343  1.0000
  C   C7        1.0  0.98875  0.42449  0.72489  1.0000
  C   C8        1.0  0.01125  0.57551  0.27511  1.0000
  C   C9        1.0  0.92443  0.50517  0.80337  1.0000
  C   C10       1.0  0.07557  0.49483  0.19663  1.0000
  C   C11       1.0  0.32706  0.18701  0.93650  1.0000
  C   C12       1.0  0.67294  0.81299  0.06350  1.0000
  C   C13       1.0  0.07243  0.16489  0.63379  1.0000
  C   C14       1.0  0.92757  0.83511  0.36621  1.0000
  C   C15       1.0  0.43447  0.56016  0.48037  1.0000
  C   C16       1.0  0.56553  0.43985  0.51963  1.0000
  C   C17       1.0  0.46355  0.15089  0.79515  1.0000
  C   C18       1.0  0.53645  0.84911  0.20485  1.0000
  C   C19       1.0  0.40492  0.43722  0.86208  1.0000
  C   C20       1.0  0.59507  0.56279  0.13794  1.0000
  C   C21       1.0  0.49954  0.86369  0.71679  1.0000
  C   C22       1.0  0.50046  0.13631  0.28320  1.0000
  C   C23       1.0  0.43872  0.98012  0.79306  1.0000
  C   C24       1.0  0.56128  0.01988  0.20694  1.0000
  C   C25       1.0  0.88346  0.41285  0.87360  1.0000
  C   C26       1.0  0.11654  0.58715  0.12639  1.0000
  C   C27       1.0  0.95694  0.17081  0.78892  1.0000
  C   C28       1.0  0.04306  0.82919  0.21108  1.0000
  C   C29       1.0  0.90103  0.68776  0.81101  1.0000
  C   C30       1.0  0.09897  0.31224  0.18899  1.0000
  N   N1        1.0  0.30175  0.02159  0.93380  1.0000
  N   N2        1.0  0.69825  0.97841  0.06620  1.0000
  N   N3        1.0  0.89917  0.24858  0.86629  1.0000
  N   N4        1.0  0.10083  0.75142  0.13371  1.0000
  O   O1        1.0  0.47850  0.47347  0.78818  1.0000
  O   O2        1.0  0.52150  0.52652  0.21182  1.0000
  O   O3        1.0  0.09089  0.67034  0.57519  1.0000
  O   O4        1.0  0.90911  0.32966  0.42481  1.0000
  O   O5        1.0  0.05967  0.00596  0.62275  1.0000
  O   O6        1.0  0.94033  0.99404  0.37725  1.0000
  O   O7        1.0  0.71669  0.03138  0.51083  1.0000
  O   O8        1.0  0.28331  0.96862  0.48917  1.0000
  O   O9        1.0  0.42549  0.71344  0.69789  1.0000
  O   O10       1.0  0.57451  0.28656  0.30211  1.0000
  O   O11       1.0  0.49943  0.70960  0.48773  1.0000
  O   O12       1.0  0.50057  0.29040  0.51228  1.0000
  O   O13       1.0  0.33934  0.53513  0.91698  1.0000
  O   O14       1.0  0.66068  0.46485  0.08301  1.0000
  O   O15       1.0  0.61915  0.92235  0.67495  1.0000
  O   O16       1.0  0.38085  0.07765  0.32505  1.0000
  O   O17       1.0  0.13916  0.25023  0.57861  1.0000
  O   O18       1.0  0.86084  0.74978  0.42139  1.0000
  O   O19       1.0  0.27110  0.49829  0.44489  1.0000
  O   O20       1.0  0.72890  0.50171  0.55511  1.0000
  O   O21       1.0  0.87257  0.76399  0.88958  1.0000
  O   O22       1.0  0.12742  0.23600  0.11042  1.0000
  O   O23       1.0  0.91493  0.75301  0.73540  1.0000
  O   O24       1.0  0.08506  0.24699  0.26460  1.0000
