data_image0
_chemical_formula_structural       Pr4Ag4H24C48N16O32
_chemical_formula_sum              "Pr4 Ag4 H24 C48 N16 O32"
_cell_length_a       8.07926
_cell_length_b       10.162
_cell_length_c       18.9723
_cell_angle_alpha    90.0001
_cell_angle_beta     90
_cell_angle_gamma    95.6102

_space_group_name_H-M_alt    "P 1"
_space_group_IT_number       1

loop_
  _space_group_symop_operation_xyz
  'x, y, z'

loop_
  _atom_site_type_symbol
  _atom_site_label
  _atom_site_symmetry_multiplicity
  _atom_site_fract_x
  _atom_site_fract_y
  _atom_site_fract_z
  _atom_site_occupancy
  Pr  Pr1       1.0  0.25978  0.65294  0.10548  1.0000
  Pr  Pr2       1.0  0.24022  0.34706  0.60548  1.0000
  Pr  Pr3       1.0  0.74022  0.34706  0.89452  1.0000
  Pr  Pr4       1.0  0.75978  0.65294  0.39452  1.0000
  Ag  Ag1       1.0  0.39643  0.83977  0.92223  1.0000
  Ag  Ag2       1.0  0.10357  0.16023  0.42223  1.0000
  Ag  Ag3       1.0  0.60357  0.16023  0.07777  1.0000
  Ag  Ag4       1.0  0.89643  0.83977  0.57777  1.0000
  H   H1        1.0  0.29956  0.30248  0.15220  1.0000
  H   H2        1.0  0.20044  0.69752  0.65221  1.0000
  H   H3        1.0  0.70043  0.69752  0.84779  1.0000
  H   H4        1.0  0.79956  0.30248  0.34779  1.0000
  H   H5        1.0  0.81746  0.68857  0.08781  1.0000
  H   H6        1.0  0.68254  0.31143  0.58781  1.0000
  H   H7        1.0  0.18254  0.31143  0.91219  1.0000
  H   H8        1.0  0.31746  0.68857  0.41219  1.0000
  H   H9        1.0  0.12166  0.45747  0.37938  1.0000
  H   H10       1.0  0.37834  0.54253  0.87938  1.0000
  H   H11       1.0  0.87834  0.54253  0.62062  1.0000
  H   H12       1.0  0.62166  0.45747  0.12062  1.0000
  H   H13       1.0  0.26241  0.14836  0.25686  1.0000
  H   H14       1.0  0.23759  0.85164  0.75686  1.0000
  H   H15       1.0  0.73759  0.85164  0.74314  1.0000
  H   H16       1.0  0.76241  0.14836  0.24314  1.0000
  H   H17       1.0  0.01399  0.15683  0.08417  1.0000
  H   H18       1.0  0.48601  0.84317  0.58417  1.0000
  H   H19       1.0  0.98601  0.84317  0.91583  1.0000
  H   H20       1.0  0.51399  0.15683  0.41583  1.0000
  H   H21       1.0  0.61684  0.86328  0.07745  1.0000
  H   H22       1.0  0.88316  0.13672  0.57745  1.0000
  H   H23       1.0  0.38316  0.13672  0.92255  1.0000
  H   H24       1.0  0.11684  0.86328  0.42255  1.0000
  C   C1        1.0  0.16753  0.50392  0.26991  1.0000
  C   C2        1.0  0.33247  0.49608  0.76991  1.0000
  C   C3        1.0  0.83247  0.49608  0.73009  1.0000
  C   C4        1.0  0.66753  0.50392  0.23009  1.0000
  C   C5        1.0  0.25863  0.33672  0.20320  1.0000
  C   C6        1.0  0.24137  0.66328  0.70320  1.0000
  C   C7        1.0  0.74137  0.66328  0.79680  1.0000
  C   C8        1.0  0.75863  0.33672  0.29680  1.0000
  C   C9        1.0  0.07995  0.95505  0.09055  1.0000
  C   C10       1.0  0.42005  0.04495  0.59055  1.0000
  C   C11       1.0  0.92005  0.04495  0.90945  1.0000
  C   C12       1.0  0.57995  0.95505  0.40945  1.0000
  C   C13       1.0  0.86131  0.79326  0.08694  1.0000
  C   C14       1.0  0.63869  0.20674  0.58694  1.0000
  C   C15       1.0  0.13869  0.20674  0.91306  1.0000
  C   C16       1.0  0.36131  0.79326  0.41306  1.0000
  C   C17       1.0  0.10766  0.64050  0.27295  1.0000
  C   C18       1.0  0.39234  0.35950  0.77296  1.0000
  C   C19       1.0  0.89234  0.35950  0.72704  1.0000
  C   C20       1.0  0.60766  0.64050  0.22704  1.0000
  C   C21       1.0  0.26631  0.98805  0.09190  1.0000
  C   C22       1.0  0.23369  0.01195  0.59190  1.0000
  C   C23       1.0  0.73369  0.01195  0.90810  1.0000
  C   C24       1.0  0.76631  0.98805  0.40810  1.0000
  C   C25       1.0  0.95687  0.46227  0.03206  1.0000
  C   C26       1.0  0.54313  0.53774  0.53206  1.0000
  C   C27       1.0  0.04313  0.53774  0.96795  1.0000
  C   C28       1.0  0.45687  0.46227  0.46794  1.0000
  C   C29       1.0  0.45653  0.43244  0.01315  1.0000
  C   C30       1.0  0.04347  0.56756  0.51315  1.0000
  C   C31       1.0  0.54347  0.56756  0.98685  1.0000
  C   C32       1.0  0.95653  0.43244  0.48685  1.0000
  C   C33       1.0  0.15848  0.42097  0.32859  1.0000
  C   C34       1.0  0.34152  0.57903  0.82859  1.0000
  C   C35       1.0  0.84152  0.57903  0.67141  1.0000
  C   C36       1.0  0.65848  0.42097  0.17141  1.0000
  C   C37       1.0  0.23896  0.25204  0.26127  1.0000
  C   C38       1.0  0.26104  0.74796  0.76127  1.0000
  C   C39       1.0  0.76104  0.74796  0.73873  1.0000
  C   C40       1.0  0.73896  0.25204  0.23873  1.0000
  C   C41       1.0  0.96924  0.05207  0.08554  1.0000
  C   C42       1.0  0.53076  0.94794  0.58554  1.0000
  C   C43       1.0  0.03076  0.94794  0.91446  1.0000
  C   C44       1.0  0.46924  0.05206  0.41446  1.0000
  C   C45       1.0  0.75020  0.88940  0.08132  1.0000
  C   C46       1.0  0.74980  0.11060  0.58132  1.0000
  C   C47       1.0  0.24980  0.11060  0.91868  1.0000
  C   C48       1.0  0.25020  0.88940  0.41868  1.0000
  N   N1        1.0  0.22352  0.46282  0.20782  1.0000
  N   N2        1.0  0.27648  0.53717  0.70782  1.0000
  N   N3        1.0  0.77648  0.53717  0.79218  1.0000
  N   N4        1.0  0.72352  0.46282  0.29218  1.0000
  N   N5        1.0  0.02518  0.82564  0.09100  1.0000
  N   N6        1.0  0.47482  0.17436  0.59100  1.0000
  N   N7        1.0  0.97482  0.17436  0.90900  1.0000
  N   N8        1.0  0.52518  0.82564  0.40900  1.0000
  N   N9        1.0  0.19184  0.29480  0.32440  1.0000
  N   N10       1.0  0.30816  0.70520  0.82440  1.0000
  N   N11       1.0  0.80816  0.70520  0.67560  1.0000
  N   N12       1.0  0.69184  0.29480  0.17560  1.0000
  N   N13       1.0  0.80435  0.01870  0.08031  1.0000
  N   N14       1.0  0.69565  0.98130  0.58031  1.0000
  N   N15       1.0  0.19565  0.98130  0.91969  1.0000
  N   N16       1.0  0.30435  0.01870  0.41969  1.0000
  O   O1        1.0  0.14434  0.71651  0.22131  1.0000
  O   O2        1.0  0.35566  0.28349  0.72131  1.0000
  O   O3        1.0  0.85566  0.28349  0.77869  1.0000
  O   O4        1.0  0.64434  0.71651  0.27869  1.0000
  O   O5        1.0  0.35363  0.89021  0.08945  1.0000
  O   O6        1.0  0.14637  0.10979  0.58945  1.0000
  O   O7        1.0  0.64637  0.10979  0.91055  1.0000
  O   O8        1.0  0.85363  0.89021  0.41055  1.0000
  O   O9        1.0  0.99394  0.50710  0.09298  1.0000
  O   O10       1.0  0.50605  0.49290  0.59299  1.0000
  O   O11       1.0  0.00605  0.49290  0.90701  1.0000
  O   O12       1.0  0.49394  0.50710  0.40702  1.0000
  O   O13       1.0  0.34154  0.43690  0.05798  1.0000
  O   O14       1.0  0.15847  0.56310  0.55798  1.0000
  O   O15       1.0  0.65847  0.56310  0.94202  1.0000
  O   O16       1.0  0.84154  0.43690  0.44202  1.0000
  O   O17       1.0  0.50985  0.32887  0.98782  1.0000
  O   O18       1.0  0.99015  0.67113  0.48783  1.0000
  O   O19       1.0  0.49015  0.67113  0.01217  1.0000
  O   O20       1.0  0.00986  0.32887  0.51217  1.0000
  O   O21       1.0  0.85543  0.36287  0.01781  1.0000
  O   O22       1.0  0.64456  0.63712  0.51781  1.0000
  O   O23       1.0  0.14455  0.63712  0.98219  1.0000
  O   O24       1.0  0.35543  0.36288  0.48220  1.0000
  O   O25       1.0  0.02280  0.66616  0.32658  1.0000
  O   O26       1.0  0.47720  0.33384  0.82658  1.0000
  O   O27       1.0  0.97720  0.33384  0.67342  1.0000
  O   O28       1.0  0.52280  0.66616  0.17342  1.0000
  O   O29       1.0  0.32010  0.10873  0.09346  1.0000
  O   O30       1.0  0.17990  0.89127  0.59346  1.0000
  O   O31       1.0  0.67990  0.89127  0.90654  1.0000
  O   O32       1.0  0.82010  0.10873  0.40654  1.0000
