data_image0
_chemical_formula_structural       Ho2Ag2H22C30N4O24
_chemical_formula_sum              "Ho2 Ag2 H22 C30 N4 O24"
_cell_length_a       7.49598
_cell_length_b       8.18902
_cell_length_c       14.1973
_cell_angle_alpha    98.5737
_cell_angle_beta     100.264
_cell_angle_gamma    95.0476

_space_group_name_H-M_alt    "P 1"
_space_group_IT_number       1

loop_
  _space_group_symop_operation_xyz
  'x, y, z'

loop_
  _atom_site_type_symbol
  _atom_site_label
  _atom_site_symmetry_multiplicity
  _atom_site_fract_x
  _atom_site_fract_y
  _atom_site_fract_z
  _atom_site_occupancy
  Ho  Ho1       1.0  0.18884  0.70184  0.42002  1.0000
  Ho  Ho2       1.0  0.81117  0.29817  0.57999  1.0000
  Ag  Ag1       1.0  0.82975  0.60059  0.96785  1.0000
  Ag  Ag2       1.0  0.17024  0.39941  0.03214  1.0000
  H   H1        1.0  0.54685  0.91642  0.23302  1.0000
  H   H2        1.0  0.45315  0.08358  0.76698  1.0000
  H   H3        1.0  0.79807  0.81094  0.37392  1.0000
  H   H4        1.0  0.20193  0.18905  0.62608  1.0000
  H   H5        1.0  0.87433  0.88524  0.48409  1.0000
  H   H6        1.0  0.12567  0.11476  0.51591  1.0000
  H   H7        1.0  0.36343  0.38061  0.48002  1.0000
  H   H8        1.0  0.63657  0.61939  0.51998  1.0000
  H   H9        1.0  0.21518  0.44900  0.54036  1.0000
  H   H10       1.0  0.78483  0.55100  0.45964  1.0000
  H   H11       1.0  0.02424  0.99531  0.66887  1.0000
  H   H12       1.0  0.97576  0.00469  0.33113  1.0000
  H   H13       1.0  0.83453  0.97513  0.93676  1.0000
  H   H14       1.0  0.16547  0.02487  0.06324  1.0000
  H   H15       1.0  0.96577  0.54134  0.78487  1.0000
  H   H16       1.0  0.03422  0.45866  0.21513  1.0000
  H   H17       1.0  0.47606  0.30017  0.26023  1.0000
  H   H18       1.0  0.52394  0.69983  0.73977  1.0000
  H   H19       1.0  0.72057  0.23800  0.00495  1.0000
  H   H20       1.0  0.27943  0.76200  0.99505  1.0000
  H   H21       1.0  0.67036  0.71471  0.13665  1.0000
  H   H22       1.0  0.32963  0.28529  0.86335  1.0000
  C   C1        1.0  0.07213  0.66690  0.63330  1.0000
  C   C2        1.0  0.92787  0.33310  0.36670  1.0000
  C   C3        1.0  0.00520  0.75817  0.71688  1.0000
  C   C4        1.0  0.99480  0.24183  0.28311  1.0000
  C   C5        1.0  0.98794  0.92749  0.72423  1.0000
  C   C6        1.0  0.01206  0.07251  0.27577  1.0000
  C   C7        1.0  0.92372  0.00876  0.80277  1.0000
  C   C8        1.0  0.07628  0.99124  0.19723  1.0000
  C   C9        1.0  0.88295  0.91697  0.87329  1.0000
  C   C10       1.0  0.11704  0.08303  0.12670  1.0000
  C   C11       1.0  0.95698  0.67432  0.78872  1.0000
  C   C12       1.0  0.04302  0.32568  0.21127  1.0000
  C   C13       1.0  0.90014  0.19133  0.81001  1.0000
  C   C14       1.0  0.09985  0.80867  0.18998  1.0000
  C   C15       1.0  0.50049  0.63766  0.28355  1.0000
  C   C16       1.0  0.49951  0.36233  0.71645  1.0000
  C   C17       1.0  0.56138  0.52105  0.20709  1.0000
  C   C18       1.0  0.43862  0.47894  0.79291  1.0000
  C   C19       1.0  0.53661  0.34988  0.20472  1.0000
  C   C20       1.0  0.46339  0.65011  0.79528  1.0000
  C   C21       1.0  0.59698  0.24480  0.13311  1.0000
  C   C22       1.0  0.40302  0.75520  0.86689  1.0000
  C   C23       1.0  0.67347  0.31432  0.06319  1.0000
  C   C24       1.0  0.32653  0.68568  0.93681  1.0000
  C   C25       1.0  0.64636  0.58172  0.13756  1.0000
  C   C26       1.0  0.35363  0.41827  0.86244  1.0000
  C   C27       1.0  0.59618  0.06343  0.13759  1.0000
  C   C28       1.0  0.40383  0.93657  0.86241  1.0000
  C   C29       1.0  0.43445  0.05974  0.48034  1.0000
  C   C30       1.0  0.56557  0.94028  0.51968  1.0000
  N   N1        1.0  0.89915  0.75263  0.86616  1.0000
  N   N2        1.0  0.10085  0.24737  0.13384  1.0000
  N   N3        1.0  0.69830  0.48012  0.06602  1.0000
  N   N4        1.0  0.30169  0.51987  0.93398  1.0000
  O   O1        1.0  0.13979  0.75180  0.57808  1.0000
  O   O2        1.0  0.86021  0.24820  0.42192  1.0000
  O   O3        1.0  0.05854  0.50763  0.62239  1.0000
  O   O4        1.0  0.94147  0.49237  0.37761  1.0000
  O   O5        1.0  0.87155  0.26841  0.88854  1.0000
  O   O6        1.0  0.12845  0.73159  0.11147  1.0000
  O   O7        1.0  0.91433  0.25606  0.73438  1.0000
  O   O8        1.0  0.08567  0.74394  0.26563  1.0000
  O   O9        1.0  0.38072  0.57859  0.32559  1.0000
  O   O10       1.0  0.61928  0.42141  0.67441  1.0000
  O   O11       1.0  0.57498  0.78849  0.30248  1.0000
  O   O12       1.0  0.42502  0.21151  0.69751  1.0000
  O   O13       1.0  0.52224  0.02701  0.21143  1.0000
  O   O14       1.0  0.47776  0.97299  0.78857  1.0000
  O   O15       1.0  0.66242  0.96561  0.08265  1.0000
  O   O16       1.0  0.33758  0.03439  0.91735  1.0000
  O   O17       1.0  0.27082  0.99665  0.44475  1.0000
  O   O18       1.0  0.72919  0.00337  0.55527  1.0000
  O   O19       1.0  0.49957  0.20975  0.48786  1.0000
  O   O20       1.0  0.50044  0.79026  0.51215  1.0000
  O   O21       1.0  0.90939  0.82738  0.42536  1.0000
  O   O22       1.0  0.09061  0.17262  0.57463  1.0000
  O   O23       1.0  0.28350  0.46937  0.48900  1.0000
  O   O24       1.0  0.71649  0.53063  0.51100  1.0000
