data_image0
_chemical_formula_structural       Co4H40C32N16Cl8
_chemical_formula_sum              "Co4 H40 C32 N16 Cl8"
_cell_length_a       8.74298
_cell_length_b       9.58034
_cell_length_c       14.1686
_cell_angle_alpha    90
_cell_angle_beta     90.0001
_cell_angle_gamma    105.127

_space_group_name_H-M_alt    "P 1"
_space_group_IT_number       1

loop_
  _space_group_symop_operation_xyz
  'x, y, z'

loop_
  _atom_site_type_symbol
  _atom_site_label
  _atom_site_symmetry_multiplicity
  _atom_site_fract_x
  _atom_site_fract_y
  _atom_site_fract_z
  _atom_site_occupancy
  Co  Co1       1.0  0.74291  0.88329  0.78467  1.0000
  Co  Co2       1.0  0.75709  0.61670  0.28467  1.0000
  Co  Co3       1.0  0.25709  0.11671  0.21533  1.0000
  Co  Co4       1.0  0.24291  0.38329  0.71533  1.0000
  H   H1        1.0  0.61022  0.58401  0.65459  1.0000
  H   H2        1.0  0.88978  0.91599  0.15459  1.0000
  H   H3        1.0  0.38978  0.41599  0.34541  1.0000
  H   H4        1.0  0.11022  0.08401  0.84541  1.0000
  H   H5        1.0  0.80958  0.68147  0.62413  1.0000
  H   H6        1.0  0.69042  0.81853  0.12413  1.0000
  H   H7        1.0  0.19042  0.31853  0.37587  1.0000
  H   H8        1.0  0.30958  0.18147  0.87587  1.0000
  H   H9        1.0  0.67165  0.59732  0.53395  1.0000
  H   H10       1.0  0.82835  0.90268  0.03395  1.0000
  H   H11       1.0  0.32835  0.40268  0.46605  1.0000
  H   H12       1.0  0.17165  0.09732  0.96605  1.0000
  H   H13       1.0  0.54257  0.75659  0.44955  1.0000
  H   H14       1.0  0.95743  0.74341  0.94954  1.0000
  H   H15       1.0  0.45743  0.24341  0.55046  1.0000
  H   H16       1.0  0.04257  0.25659  0.05046  1.0000
  H   H17       1.0  0.59084  0.08486  0.66752  1.0000
  H   H18       1.0  0.90917  0.41514  0.16752  1.0000
  H   H19       1.0  0.40917  0.91514  0.33249  1.0000
  H   H20       1.0  0.09083  0.58486  0.83248  1.0000
  H   H21       1.0  0.32602  0.85451  0.82618  1.0000
  H   H22       1.0  0.17398  0.64549  0.32619  1.0000
  H   H23       1.0  0.67398  0.14549  0.17381  1.0000
  H   H24       1.0  0.82602  0.35451  0.67381  1.0000
  H   H25       1.0  0.48738  0.98596  0.88017  1.0000
  H   H26       1.0  0.01262  0.51405  0.38017  1.0000
  H   H27       1.0  0.51262  0.01405  0.11983  1.0000
  H   H28       1.0  0.98738  0.48595  0.61983  1.0000
  H   H29       1.0  0.31750  0.89675  0.94926  1.0000
  H   H30       1.0  0.18250  0.60325  0.44926  1.0000
  H   H31       1.0  0.68250  0.10325  0.05074  1.0000
  H   H32       1.0  0.81750  0.39675  0.55074  1.0000
  H   H33       1.0  0.32398  0.67277  0.03122  1.0000
  H   H34       1.0  0.17602  0.82723  0.53122  1.0000
  H   H35       1.0  0.67602  0.32723  0.96878  1.0000
  H   H36       1.0  0.82397  0.17277  0.46878  1.0000
  H   H37       1.0  0.70166  0.57428  0.86645  1.0000
  H   H38       1.0  0.79834  0.92572  0.36645  1.0000
  H   H39       1.0  0.29834  0.42572  0.13354  1.0000
  H   H40       1.0  0.20166  0.07428  0.63354  1.0000
  C   C1        1.0  0.68516  0.65386  0.60191  1.0000
  C   C2        1.0  0.81484  0.84614  0.10191  1.0000
  C   C3        1.0  0.31484  0.34614  0.39809  1.0000
  C   C4        1.0  0.18516  0.15386  0.89809  1.0000
  C   C5        1.0  0.56450  0.82380  0.51248  1.0000
  C   C6        1.0  0.93550  0.67620  0.01248  1.0000
  C   C7        1.0  0.43550  0.17620  0.48752  1.0000
  C   C8        1.0  0.06450  0.32380  0.98752  1.0000
  C   C9        1.0  0.53459  0.95738  0.53149  1.0000
  C   C10       1.0  0.96541  0.54262  0.03149  1.0000
  C   C11       1.0  0.46541  0.04262  0.46851  1.0000
  C   C12       1.0  0.03459  0.45738  0.96851  1.0000
  C   C13       1.0  0.59062  0.99137  0.62406  1.0000
  C   C14       1.0  0.90938  0.50863  0.12405  1.0000
  C   C15       1.0  0.40938  0.00864  0.37595  1.0000
  C   C16       1.0  0.09062  0.49136  0.87595  1.0000
  C   C17       1.0  0.39567  0.88467  0.89111  1.0000
  C   C18       1.0  0.10433  0.61533  0.39111  1.0000
  C   C19       1.0  0.60433  0.11533  0.10888  1.0000
  C   C20       1.0  0.89567  0.38467  0.60889  1.0000
  C   C21       1.0  0.41793  0.66656  0.98268  1.0000
  C   C22       1.0  0.08207  0.83344  0.48268  1.0000
  C   C23       1.0  0.58207  0.33344  0.01732  1.0000
  C   C24       1.0  0.91793  0.16656  0.51732  1.0000
  C   C25       1.0  0.50628  0.56500  0.97268  1.0000
  C   C26       1.0  0.99372  0.93500  0.47268  1.0000
  C   C27       1.0  0.49372  0.43500  0.02732  1.0000
  C   C28       1.0  0.00628  0.06500  0.52732  1.0000
  C   C29       1.0  0.61095  0.61808  0.89774  1.0000
  C   C30       1.0  0.88905  0.88192  0.39774  1.0000
  C   C31       1.0  0.38905  0.38193  0.10226  1.0000
  C   C32       1.0  0.11095  0.11808  0.60226  1.0000
  N   N1        1.0  0.65192  0.88650  0.65805  1.0000
  N   N2        1.0  0.84808  0.61350  0.15805  1.0000
  N   N3        1.0  0.34808  0.11350  0.34194  1.0000
  N   N4        1.0  0.15192  0.38650  0.84194  1.0000
  N   N5        1.0  0.63530  0.78541  0.58904  1.0000
  N   N6        1.0  0.86470  0.71459  0.08904  1.0000
  N   N7        1.0  0.36470  0.21459  0.41096  1.0000
  N   N8        1.0  0.13530  0.28541  0.91096  1.0000
  N   N9        1.0  0.58927  0.74329  0.86501  1.0000
  N   N10       1.0  0.91073  0.75671  0.36501  1.0000
  N   N11       1.0  0.41073  0.25671  0.13499  1.0000
  N   N12       1.0  0.08927  0.24329  0.63499  1.0000
  N   N13       1.0  0.46970  0.77094  0.91718  1.0000
  N   N14       1.0  0.03030  0.72907  0.41718  1.0000
  N   N15       1.0  0.53030  0.22907  0.08282  1.0000
  N   N16       1.0  0.96970  0.27093  0.58282  1.0000
  Cl  Cl1       1.0  0.96771  0.81498  0.77808  1.0000
  Cl  Cl2       1.0  0.53229  0.68502  0.27808  1.0000
  Cl  Cl3       1.0  0.03229  0.18502  0.22192  1.0000
  Cl  Cl4       1.0  0.46771  0.31497  0.72192  1.0000
  Cl  Cl5       1.0  0.77772  0.10255  0.84698  1.0000
  Cl  Cl6       1.0  0.72228  0.39745  0.34698  1.0000
  Cl  Cl7       1.0  0.22228  0.89745  0.15302  1.0000
  Cl  Cl8       1.0  0.27772  0.60255  0.65302  1.0000
