data_image0
_chemical_formula_structural       Na2P2H32C22N4O16
_chemical_formula_sum              "Na2 P2 H32 C22 N4 O16"
_cell_length_a       8.34081
_cell_length_b       8.78946
_cell_length_c       10.4416
_cell_angle_alpha    103.335
_cell_angle_beta     90.0001
_cell_angle_gamma    89.9999

_space_group_name_H-M_alt    "P 1"
_space_group_IT_number       1

loop_
  _space_group_symop_operation_xyz
  'x, y, z'

loop_
  _atom_site_type_symbol
  _atom_site_label
  _atom_site_symmetry_multiplicity
  _atom_site_fract_x
  _atom_site_fract_y
  _atom_site_fract_z
  _atom_site_occupancy
  Na  Na1       1.0  0.89751  0.14495  0.97448  1.0000
  Na  Na2       1.0  0.39751  0.85505  0.02552  1.0000
  P   P1        1.0  0.52673  0.19495  0.15569  1.0000
  P   P2        1.0  0.02673  0.80505  0.84431  1.0000
  H   H1        1.0  0.17135  0.14817  0.15098  1.0000
  H   H2        1.0  0.67135  0.85183  0.84902  1.0000
  H   H3        1.0  0.29618  0.42842  0.28839  1.0000
  H   H4        1.0  0.79617  0.57158  0.71161  1.0000
  H   H5        1.0  0.21447  0.43124  0.07171  1.0000
  H   H6        1.0  0.71447  0.56876  0.92830  1.0000
  H   H7        1.0  0.12467  0.59797  0.02877  1.0000
  H   H8        1.0  0.62467  0.40203  0.97123  1.0000
  H   H9        1.0  0.10711  0.57294  0.19342  1.0000
  H   H10       1.0  0.60711  0.42706  0.80658  1.0000
  H   H11       1.0  0.44056  0.94128  0.41008  1.0000
  H   H12       1.0  0.94056  0.05872  0.58992  1.0000
  H   H13       1.0  0.23933  0.93397  0.46777  1.0000
  H   H14       1.0  0.73933  0.06603  0.53223  1.0000
  H   H15       1.0  0.27784  0.92570  0.29680  1.0000
  H   H16       1.0  0.77784  0.07430  0.70320  1.0000
  H   H17       1.0  0.79336  0.92947  0.11490  1.0000
  H   H18       1.0  0.29336  0.07053  0.88510  1.0000
  H   H19       1.0  0.00481  0.83920  0.25366  1.0000
  H   H20       1.0  0.50481  0.16080  0.74634  1.0000
  H   H21       1.0  0.44571  0.52998  0.48443  1.0000
  H   H22       1.0  0.94571  0.47002  0.51557  1.0000
  H   H23       1.0  0.61922  0.29970  0.49397  1.0000
  H   H24       1.0  0.11922  0.70030  0.50603  1.0000
  H   H25       1.0  0.42493  0.24904  0.42589  1.0000
  H   H26       1.0  0.92493  0.75096  0.57411  1.0000
  H   H27       1.0  0.05971  0.36374  0.32331  1.0000
  H   H28       1.0  0.55971  0.63626  0.67669  1.0000
  H   H29       1.0  0.08220  0.17578  0.35991  1.0000
  H   H30       1.0  0.58220  0.82422  0.64009  1.0000
  H   H31       1.0  0.89180  0.23548  0.30947  1.0000
  H   H32       1.0  0.39180  0.76452  0.69053  1.0000
  C   C1        1.0  0.41750  0.47156  0.27493  1.0000
  C   C2        1.0  0.91750  0.52844  0.72507  1.0000
  C   C3        1.0  0.40753  0.63851  0.25366  1.0000
  C   C4        1.0  0.90753  0.36149  0.74634  1.0000
  C   C5        1.0  0.18525  0.55576  0.10665  1.0000
  C   C6        1.0  0.68525  0.44424  0.89335  1.0000
  C   C7        1.0  0.32085  0.89035  0.38506  1.0000
  C   C8        1.0  0.82085  0.10965  0.61494  1.0000
  C   C9        1.0  0.57774  0.69711  0.24923  1.0000
  C   C10       1.0  0.07774  0.30289  0.75077  1.0000
  C   C11       1.0  0.76578  0.84779  0.17576  1.0000
  C   C12       1.0  0.26578  0.15221  0.82423  1.0000
  C   C13       1.0  0.88146  0.79758  0.25291  1.0000
  C   C14       1.0  0.38146  0.20242  0.74709  1.0000
  C   C15       1.0  0.69735  0.64476  0.32494  1.0000
  C   C16       1.0  0.19735  0.35524  0.67506  1.0000
  C   C17       1.0  0.51355  0.46766  0.39799  1.0000
  C   C18       1.0  0.01354  0.53234  0.60201  1.0000
  C   C19       1.0  0.54113  0.30068  0.40989  1.0000
  C   C20       1.0  0.04113  0.69932  0.59011  1.0000
  C   C21       1.0  0.02159  0.24011  0.29461  1.0000
  C   C22       1.0  0.52159  0.75989  0.70539  1.0000
  N   N1        1.0  0.61421  0.79604  0.17408  1.0000
  N   N2        1.0  0.11421  0.20396  0.82592  1.0000
  N   N3        1.0  0.84835  0.69475  0.32616  1.0000
  N   N4        1.0  0.34835  0.30525  0.67384  1.0000
  O   O1        1.0  0.64263  0.13686  0.04715  1.0000
  O   O2        1.0  0.14262  0.86314  0.95285  1.0000
  O   O3        1.0  0.36920  0.11076  0.15760  1.0000
  O   O4        1.0  0.86920  0.88924  0.84240  1.0000
  O   O5        1.0  0.49141  0.37868  0.15902  1.0000
  O   O6        1.0  0.99141  0.62132  0.84098  1.0000
  O   O7        1.0  0.33048  0.64731  0.13569  1.0000
  O   O8        1.0  0.83048  0.35269  0.86431  1.0000
  O   O9        1.0  0.32300  0.72332  0.36739  1.0000
  O   O10       1.0  0.82300  0.27668  0.63261  1.0000
  O   O11       1.0  0.67096  0.54047  0.39996  1.0000
  O   O12       1.0  0.17096  0.45953  0.60004  1.0000
  O   O13       1.0  0.61915  0.20808  0.29467  1.0000
  O   O14       1.0  0.11915  0.79192  0.70533  1.0000
  O   O15       1.0  0.05470  0.17277  0.15970  1.0000
  O   O16       1.0  0.55470  0.82723  0.84030  1.0000
