data_image0
_chemical_formula_structural       Zn3H24C18N2O18
_chemical_formula_sum              "Zn3 H24 C18 N2 O18"
_cell_length_a       6.78939
_cell_length_b       10.3189
_cell_length_c       10.6536
_cell_angle_alpha    100.039
_cell_angle_beta     107.885
_cell_angle_gamma    106.412

_space_group_name_H-M_alt    "P 1"
_space_group_IT_number       1

loop_
  _space_group_symop_operation_xyz
  'x, y, z'

loop_
  _atom_site_type_symbol
  _atom_site_label
  _atom_site_symmetry_multiplicity
  _atom_site_fract_x
  _atom_site_fract_y
  _atom_site_fract_z
  _atom_site_occupancy
  Zn  Zn1       1.0  0.49999  0.50000  1.00000  1.0000
  Zn  Zn2       1.0  0.86427  0.00325  0.74674  1.0000
  Zn  Zn3       1.0  0.13573  0.99675  0.25326  1.0000
  H   H1        1.0  0.60396  0.29557  0.84339  1.0000
  H   H2        1.0  0.39601  0.70442  0.15661  1.0000
  H   H3        1.0  0.38870  0.33038  0.77860  1.0000
  H   H4        1.0  0.61128  0.66961  0.22139  1.0000
  H   H5        1.0  0.94316  0.63757  0.06782  1.0000
  H   H6        1.0  0.05684  0.36243  0.93218  1.0000
  H   H7        1.0  0.81558  0.64704  0.91819  1.0000
  H   H8        1.0  0.18443  0.35297  0.08180  1.0000
  H   H9        1.0  0.50361  0.87427  0.80841  1.0000
  H   H10       1.0  0.49641  0.12573  0.19159  1.0000
  H   H11       1.0  0.53207  0.03699  0.79921  1.0000
  H   H12       1.0  0.46793  0.96300  0.20080  1.0000
  H   H13       1.0  0.27575  0.15382  0.89921  1.0000
  H   H14       1.0  0.72425  0.84617  0.10079  1.0000
  H   H15       1.0  0.20410  0.00103  0.93617  1.0000
  H   H16       1.0  0.79589  0.99896  0.06383  1.0000
  H   H17       1.0  0.13570  0.12934  0.99988  1.0000
  H   H18       1.0  0.86431  0.87066  0.00013  1.0000
  H   H19       1.0  0.84550  0.49762  0.79105  1.0000
  H   H20       1.0  0.15450  0.50239  0.20895  1.0000
  H   H21       1.0  0.72152  0.21094  0.40856  1.0000
  H   H22       1.0  0.27850  0.78906  0.59144  1.0000
  H   H23       1.0  0.73875  0.63499  0.42609  1.0000
  H   H24       1.0  0.26126  0.36502  0.57391  1.0000
  C   C1        1.0  0.77995  0.34274  0.60578  1.0000
  C   C2        1.0  0.22005  0.65727  0.39422  1.0000
  C   C3        1.0  0.66220  0.38647  0.24536  1.0000
  C   C4        1.0  0.33781  0.61353  0.75464  1.0000
  C   C5        1.0  0.83003  0.72616  0.69753  1.0000
  C   C6        1.0  0.16998  0.27384  0.30247  1.0000
  C   C7        1.0  0.79535  0.58212  0.61662  1.0000
  C   C8        1.0  0.20465  0.41788  0.38337  1.0000
  C   C9        1.0  0.80816  0.47644  0.68111  1.0000
  C   C10       1.0  0.19184  0.52357  0.31890  1.0000
  C   C11       1.0  0.71620  0.41784  0.39800  1.0000
  C   C12       1.0  0.28380  0.58217  0.60199  1.0000
  C   C13       1.0  0.80338  0.23470  0.67977  1.0000
  C   C14       1.0  0.19661  0.76530  0.32023  1.0000
  C   C15       1.0  0.73652  0.31414  0.46482  1.0000
  C   C16       1.0  0.26350  0.68587  0.53519  1.0000
  C   C17       1.0  0.74879  0.55190  0.47518  1.0000
  C   C18       1.0  0.25120  0.44810  0.52482  1.0000
  N   N1        1.0  0.15022  0.08009  0.91235  1.0000
  N   N2        1.0  0.84978  0.91991  0.08766  1.0000
  O   O1        1.0  0.66345  0.49149  0.19582  1.0000
  O   O2        1.0  0.33656  0.50851  0.80418  1.0000
  O   O3        1.0  0.62017  0.26333  0.17412  1.0000
  O   O4        1.0  0.37984  0.73667  0.82588  1.0000
  O   O5        1.0  0.80667  0.25690  0.80263  1.0000
  O   O6        1.0  0.19333  0.74311  0.19737  1.0000
  O   O7        1.0  0.46205  0.29578  0.85339  1.0000
  O   O8        1.0  0.53792  0.70420  0.14661  1.0000
  O   O9        1.0  0.85492  0.75119  0.82333  1.0000
  O   O10       1.0  0.14509  0.24882  0.17666  1.0000
  O   O11       1.0  0.80265  0.59163  0.98608  1.0000
  O   O12       1.0  0.19735  0.40838  0.01392  1.0000
  O   O13       1.0  0.61028  0.97233  0.81622  1.0000
  O   O14       1.0  0.38973  0.02767  0.18379  1.0000
  O   O15       1.0  0.82174  0.12276  0.61875  1.0000
  O   O16       1.0  0.17824  0.87724  0.38126  1.0000
  O   O17       1.0  0.83085  0.81999  0.63206  1.0000
  O   O18       1.0  0.16914  0.18002  0.36794  1.0000
