data_image0
_chemical_formula_structural       H32Pb2C50N4O12
_chemical_formula_sum              "H32 Pb2 C50 N4 O12"
_cell_length_a       8.32322
_cell_length_b       10.4817
_cell_length_c       12.4747
_cell_angle_alpha    84.6717
_cell_angle_beta     76.871
_cell_angle_gamma    86.408

_space_group_name_H-M_alt    "P 1"
_space_group_IT_number       1

loop_
  _space_group_symop_operation_xyz
  'x, y, z'

loop_
  _atom_site_type_symbol
  _atom_site_label
  _atom_site_symmetry_multiplicity
  _atom_site_fract_x
  _atom_site_fract_y
  _atom_site_fract_z
  _atom_site_occupancy
  H   H1        1.0  0.43306  0.59760  0.98943  1.0000
  H   H2        1.0  0.56695  0.40240  0.01057  1.0000
  H   H3        1.0  0.43442  0.10072  0.57238  1.0000
  H   H4        1.0  0.56558  0.89928  0.42762  1.0000
  H   H5        1.0  0.49632  0.11029  0.90345  1.0000
  H   H6        1.0  0.50369  0.88971  0.09654  1.0000
  H   H7        1.0  0.24667  0.98048  0.97319  1.0000
  H   H8        1.0  0.75333  0.01953  0.02681  1.0000
  H   H9        1.0  0.20266  0.74221  0.93990  1.0000
  H   H10       1.0  0.79735  0.25779  0.06010  1.0000
  H   H11       1.0  0.97281  0.59553  0.00868  1.0000
  H   H12       1.0  0.02720  0.40447  0.99132  1.0000
  H   H13       1.0  0.65064  0.85884  0.86085  1.0000
  H   H14       1.0  0.34936  0.14115  0.13915  1.0000
  H   H15       1.0  0.87989  0.00432  0.79014  1.0000
  H   H16       1.0  0.12011  0.99568  0.20986  1.0000
  H   H17       1.0  0.33198  0.55148  0.49731  1.0000
  H   H18       1.0  0.66803  0.44853  0.50269  1.0000
  H   H19       1.0  0.40616  0.35326  0.60993  1.0000
  H   H20       1.0  0.59385  0.64675  0.39007  1.0000
  H   H21       1.0  0.18818  0.26796  0.77172  1.0000
  H   H22       1.0  0.81182  0.73205  0.22828  1.0000
  H   H23       1.0  0.90736  0.37347  0.80621  1.0000
  H   H24       1.0  0.09264  0.62653  0.19379  1.0000
  H   H25       1.0  0.67579  0.41506  0.77484  1.0000
  H   H26       1.0  0.32421  0.58495  0.22515  1.0000
  H   H27       1.0  0.39744  0.52511  0.78910  1.0000
  H   H28       1.0  0.60256  0.47489  0.21090  1.0000
  H   H29       1.0  0.37538  0.74490  0.69394  1.0000
  H   H30       1.0  0.62462  0.25510  0.30605  1.0000
  H   H31       1.0  0.63891  0.84909  0.59266  1.0000
  H   H32       1.0  0.36108  0.15091  0.40734  1.0000
  Pb  Pb1       1.0  0.04359  0.78009  0.47678  1.0000
  Pb  Pb2       1.0  0.95641  0.21991  0.52322  1.0000
  C   C1        1.0  0.18387  0.94396  0.61229  1.0000
  C   C2        1.0  0.81612  0.05604  0.38772  1.0000
  C   C3        1.0  0.25621  0.99747  0.69766  1.0000
  C   C4        1.0  0.74379  0.00253  0.30234  1.0000
  C   C5        1.0  0.39236  0.07441  0.66039  1.0000
  C   C6        1.0  0.60764  0.92559  0.33961  1.0000
  C   C7        1.0  0.48044  0.11413  0.73350  1.0000
  C   C8        1.0  0.51956  0.88587  0.26650  1.0000
  C   C9        1.0  0.63296  0.18975  0.69062  1.0000
  C   C10       1.0  0.36704  0.81025  0.30938  1.0000
  C   C11       1.0  0.42785  0.07868  0.84655  1.0000
  C   C12       1.0  0.57215  0.92132  0.15345  1.0000
  C   C13       1.0  0.28959  0.00514  0.88490  1.0000
  C   C14       1.0  0.71042  0.99486  0.11510  1.0000
  C   C15       1.0  0.20217  0.96256  0.81203  1.0000
  C   C16       1.0  0.79783  0.03744  0.18797  1.0000
  C   C17       1.0  0.05923  0.88112  0.85735  1.0000
  C   C18       1.0  0.94077  0.11888  0.14266  1.0000
  C   C19       1.0  0.08158  0.76759  0.92262  1.0000
  C   C20       1.0  0.91842  0.23241  0.07738  1.0000
  C   C21       1.0  0.95305  0.68503  0.96089  1.0000
  C   C22       1.0  0.04695  0.31497  0.03912  1.0000
  C   C23       1.0  0.79739  0.71646  0.93778  1.0000
  C   C24       1.0  0.20261  0.28353  0.06222  1.0000
  C   C25       1.0  0.66599  0.62345  0.97302  1.0000
  C   C26       1.0  0.33401  0.37654  0.02698  1.0000
  C   C27       1.0  0.77204  0.83306  0.87739  1.0000
  C   C28       1.0  0.22797  0.16693  0.12261  1.0000
  C   C29       1.0  0.90198  0.91409  0.83687  1.0000
  C   C30       1.0  0.09802  0.08591  0.16314  1.0000
  C   C31       1.0  0.24181  0.50681  0.56571  1.0000
  C   C32       1.0  0.75819  0.49320  0.43429  1.0000
  C   C33       1.0  0.28243  0.39852  0.62955  1.0000
  C   C34       1.0  0.71756  0.60148  0.37045  1.0000
  C   C35       1.0  0.16113  0.35103  0.71836  1.0000
  C   C36       1.0  0.83887  0.64898  0.28164  1.0000
  C   C37       1.0  0.00365  0.41006  0.73797  1.0000
  C   C38       1.0  0.99635  0.58994  0.26203  1.0000
  C   C39       1.0  0.97042  0.51567  0.66747  1.0000
  C   C40       1.0  0.02958  0.48433  0.33253  1.0000
  C   C41       1.0  0.80278  0.57685  0.67953  1.0000
  C   C42       1.0  0.19722  0.42315  0.32046  1.0000
  C   C43       1.0  0.66292  0.51238  0.73793  1.0000
  C   C44       1.0  0.33708  0.48762  0.26207  1.0000
  C   C45       1.0  0.50787  0.57319  0.74411  1.0000
  C   C46       1.0  0.49213  0.42681  0.25588  1.0000
  C   C47       1.0  0.49510  0.69588  0.69230  1.0000
  C   C48       1.0  0.50489  0.30412  0.30770  1.0000
  C   C49       1.0  0.63998  0.75328  0.63525  1.0000
  C   C50       1.0  0.36001  0.24672  0.36475  1.0000
  N   N1        1.0  0.09031  0.56351  0.58376  1.0000
  N   N2        1.0  0.90969  0.43649  0.41623  1.0000
  N   N3        1.0  0.78967  0.69503  0.62844  1.0000
  N   N4        1.0  0.21033  0.30498  0.37156  1.0000
  O   O1        1.0  0.13415  0.82903  0.63420  1.0000
  O   O2        1.0  0.86584  0.17098  0.36581  1.0000
  O   O3        1.0  0.17987  0.00996  0.52226  1.0000
  O   O4        1.0  0.82013  0.99004  0.47774  1.0000
  O   O5        1.0  0.64941  0.24670  0.59268  1.0000
  O   O6        1.0  0.35059  0.75330  0.40732  1.0000
  O   O7        1.0  0.73701  0.19107  0.75004  1.0000
  O   O8        1.0  0.26299  0.80893  0.24995  1.0000
  O   O9        1.0  0.51379  0.67096  0.97617  1.0000
  O   O10       1.0  0.48621  0.32903  0.02384  1.0000
  O   O11       1.0  0.69791  0.50716  0.99657  1.0000
  O   O12       1.0  0.30209  0.49284  0.00343  1.0000
