data_image0
_chemical_formula_structural       K2Dy2H8C40O16F48
_chemical_formula_sum              "K2 Dy2 H8 C40 O16 F48"
_cell_length_a       11.873
_cell_length_b       12.1799
_cell_length_c       13.3357
_cell_angle_alpha    73.8274
_cell_angle_beta     65.0288
_cell_angle_gamma    63.8419

_space_group_name_H-M_alt    "P 1"
_space_group_IT_number       1

loop_
  _space_group_symop_operation_xyz
  'x, y, z'

loop_
  _atom_site_type_symbol
  _atom_site_label
  _atom_site_symmetry_multiplicity
  _atom_site_fract_x
  _atom_site_fract_y
  _atom_site_fract_z
  _atom_site_occupancy
  K   K1        1.0  0.00000  0.50001  0.50000  1.0000
  K   K2        1.0  1.00000  0.00000  1.00000  1.0000
  Dy  Dy1       1.0  0.91793  0.72475  0.23459  1.0000
  Dy  Dy2       1.0  0.08207  0.27525  0.76541  1.0000
  H   H1        1.0  0.47738  0.70170  0.45126  1.0000
  H   H2        1.0  0.52262  0.29830  0.54874  1.0000
  H   H3        1.0  0.75067  0.69583  0.97292  1.0000
  H   H4        1.0  0.24933  0.30417  0.02707  1.0000
  H   H5        1.0  0.84277  0.02872  0.45254  1.0000
  H   H6        1.0  0.15723  0.97128  0.54746  1.0000
  H   H7        1.0  0.40643  0.52427  0.12695  1.0000
  H   H8        1.0  0.59357  0.47573  0.87306  1.0000
  C   C1        1.0  0.65840  0.51731  0.52760  1.0000
  C   C2        1.0  0.34160  0.48270  0.47241  1.0000
  C   C3        1.0  0.68365  0.62542  0.43898  1.0000
  C   C4        1.0  0.31635  0.37458  0.56102  1.0000
  C   C5        1.0  0.57401  0.71089  0.40843  1.0000
  C   C6        1.0  0.42600  0.28911  0.59157  1.0000
  C   C7        1.0  0.58604  0.81015  0.32631  1.0000
  C   C8        1.0  0.41396  0.18985  0.67369  1.0000
  C   C9        1.0  0.45944  0.90887  0.30327  1.0000
  C   C10       1.0  0.54056  0.09113  0.69673  1.0000
  C   C11       1.0  0.76151  0.50207  0.12808  1.0000
  C   C12       1.0  0.23848  0.49793  0.87192  1.0000
  C   C13       1.0  0.81411  0.60322  0.11382  1.0000
  C   C14       1.0  0.18589  0.39678  0.88618  1.0000
  C   C15       1.0  0.79921  0.69657  0.02577  1.0000
  C   C16       1.0  0.20079  0.30343  0.97422  1.0000
  C   C17       1.0  0.85750  0.78385  0.99752  1.0000
  C   C18       1.0  0.14250  0.21616  0.00247  1.0000
  C   C19       1.0  0.86520  0.85847  0.88169  1.0000
  C   C20       1.0  0.13480  0.14154  0.11831  1.0000
  C   C21       1.0  0.99581  0.81095  0.52215  1.0000
  C   C22       1.0  0.00420  0.18905  0.47784  1.0000
  C   C23       1.0  0.93943  0.83702  0.42879  1.0000
  C   C24       1.0  0.06058  0.16298  0.57120  1.0000
  C   C25       1.0  0.86807  0.96083  0.40073  1.0000
  C   C26       1.0  0.13193  0.03917  0.59927  1.0000
  C   C27       1.0  0.83603  0.00018  0.30392  1.0000
  C   C28       1.0  0.16397  0.99981  0.69608  1.0000
  C   C29       1.0  0.75256  0.13771  0.28248  1.0000
  C   C30       1.0  0.24743  0.86229  0.71753  1.0000
  C   C31       1.0  0.29167  0.36282  0.25300  1.0000
  C   C32       1.0  0.70833  0.63718  0.74700  1.0000
  C   C33       1.0  0.21914  0.50002  0.21698  1.0000
  C   C34       1.0  0.78086  0.49998  0.78302  1.0000
  C   C35       1.0  0.29861  0.56805  0.14863  1.0000
  C   C36       1.0  0.70139  0.43195  0.85138  1.0000
  C   C37       1.0  0.24270  0.69265  0.11075  1.0000
  C   C38       1.0  0.75730  0.30735  0.88926  1.0000
  C   C39       1.0  0.34044  0.76151  0.04851  1.0000
  C   C40       1.0  0.65956  0.23849  0.95150  1.0000
  O   O1        1.0  0.80194  0.62378  0.40112  1.0000
  O   O2        1.0  0.19806  0.37621  0.59888  1.0000
  O   O3        1.0  0.69165  0.83134  0.26756  1.0000
  O   O4        1.0  0.30835  0.16866  0.73244  1.0000
  O   O5        1.0  0.87128  0.58890  0.18038  1.0000
  O   O6        1.0  0.12872  0.41110  0.81962  1.0000
  O   O7        1.0  0.91120  0.80354  0.05181  1.0000
  O   O8        1.0  0.08880  0.19646  0.94819  1.0000
  O   O9        1.0  0.86650  0.93562  0.22977  1.0000
  O   O10       1.0  0.13350  0.06438  0.77022  1.0000
  O   O11       1.0  0.96807  0.74476  0.38363  1.0000
  O   O12       1.0  0.03193  0.25524  0.61636  1.0000
  O   O13       1.0  0.12064  0.75734  0.12538  1.0000
  O   O14       1.0  0.87936  0.24266  0.87462  1.0000
  O   O15       1.0  0.09226  0.53672  0.25453  1.0000
  O   O16       1.0  0.90774  0.46327  0.74547  1.0000
  F   F1        1.0  0.75094  0.46383  0.57953  1.0000
  F   F2        1.0  0.24906  0.53616  0.42047  1.0000
  F   F3        1.0  0.53591  0.55210  0.60808  1.0000
  F   F4        1.0  0.46410  0.44790  0.39193  1.0000
  F   F5        1.0  0.66822  0.42797  0.47818  1.0000
  F   F6        1.0  0.33177  0.57204  0.52182  1.0000
  F   F7        1.0  0.35403  0.87135  0.34677  1.0000
  F   F8        1.0  0.64597  0.12864  0.65323  1.0000
  F   F9        1.0  0.42035  0.01287  0.34926  1.0000
  F   F10       1.0  0.57965  0.98712  0.65074  1.0000
  F   F11       1.0  0.48473  0.93993  0.19237  1.0000
  F   F12       1.0  0.51528  0.06006  0.80763  1.0000
  F   F13       1.0  0.74453  0.43885  0.23016  1.0000
  F   F14       1.0  0.25546  0.56115  0.76984  1.0000
  F   F15       1.0  0.84986  0.42016  0.05135  1.0000
  F   F16       1.0  0.15013  0.57985  0.94865  1.0000
  F   F17       1.0  0.64206  0.55030  0.11123  1.0000
  F   F18       1.0  0.35794  0.44971  0.88878  1.0000
  F   F19       1.0  0.89772  0.95782  0.86761  1.0000
  F   F20       1.0  0.10227  0.04219  0.13239  1.0000
  F   F21       1.0  0.96234  0.78569  0.80101  1.0000
  F   F22       1.0  0.03766  0.21432  0.19899  1.0000
  F   F23       1.0  0.74822  0.90104  0.86374  1.0000
  F   F24       1.0  0.25178  0.09897  0.13626  1.0000
  F   F25       1.0  0.01078  0.69627  0.57786  1.0000
  F   F26       1.0  0.98922  0.30373  0.42214  1.0000
  F   F27       1.0  0.91705  0.89331  0.59779  1.0000
  F   F28       1.0  0.08296  0.10670  0.40220  1.0000
  F   F29       1.0  0.11930  0.81876  0.47627  1.0000
  F   F30       1.0  0.88071  0.18124  0.52373  1.0000
  F   F31       1.0  0.62545  0.15103  0.30158  1.0000
  F   F32       1.0  0.37454  0.84897  0.69842  1.0000
  F   F33       1.0  0.74584  0.20890  0.34845  1.0000
  F   F34       1.0  0.25416  0.79109  0.65155  1.0000
  F   F35       1.0  0.80373  0.18289  0.17416  1.0000
  F   F36       1.0  0.19626  0.81711  0.82584  1.0000
  F   F37       1.0  0.23184  0.33206  0.36433  1.0000
  F   F38       1.0  0.76816  0.66794  0.63567  1.0000
  F   F39       1.0  0.28508  0.28911  0.19717  1.0000
  F   F40       1.0  0.71491  0.71089  0.80284  1.0000
  F   F41       1.0  0.42159  0.33401  0.23581  1.0000
  F   F42       1.0  0.57841  0.66598  0.76419  1.0000
  F   F43       1.0  0.46411  0.68672  0.98983  1.0000
  F   F44       1.0  0.53589  0.31328  0.01017  1.0000
  F   F45       1.0  0.35448  0.80701  0.12321  1.0000
  F   F46       1.0  0.64552  0.19299  0.87680  1.0000
  F   F47       1.0  0.29505  0.85791  0.97613  1.0000
  F   F48       1.0  0.70495  0.14209  0.02388  1.0000
