data_image0
_chemical_formula_structural       Cd4H24C24S12N8O20
_chemical_formula_sum              "Cd4 H24 C24 S12 N8 O20"
_cell_length_a       5.12398
_cell_length_b       10.2764
_cell_length_c       20.9321
_cell_angle_alpha    90
_cell_angle_beta     90
_cell_angle_gamma    90

_space_group_name_H-M_alt    "P 1"
_space_group_IT_number       1

loop_
  _space_group_symop_operation_xyz
  'x, y, z'

loop_
  _atom_site_type_symbol
  _atom_site_label
  _atom_site_symmetry_multiplicity
  _atom_site_fract_x
  _atom_site_fract_y
  _atom_site_fract_z
  _atom_site_occupancy
  Cd  Cd1       1.0  0.80370  0.09780  0.96335  1.0000
  Cd  Cd2       1.0  0.69630  0.90220  0.46335  1.0000
  Cd  Cd3       1.0  0.30370  0.40220  0.03665  1.0000
  Cd  Cd4       1.0  0.19630  0.59780  0.53665  1.0000
  H   H1        1.0  0.28721  0.23081  0.93046  1.0000
  H   H2        1.0  0.21279  0.76919  0.43046  1.0000
  H   H3        1.0  0.78721  0.26919  0.06954  1.0000
  H   H4        1.0  0.71279  0.73081  0.56954  1.0000
  H   H5        1.0  0.03789  0.31936  0.91936  1.0000
  H   H6        1.0  0.46211  0.68064  0.41936  1.0000
  H   H7        1.0  0.53789  0.18064  0.08064  1.0000
  H   H8        1.0  0.96211  0.81936  0.58064  1.0000
  H   H9        1.0  0.28780  0.39344  0.82762  1.0000
  H   H10       1.0  0.21220  0.60656  0.32762  1.0000
  H   H11       1.0  0.78780  0.10656  0.17238  1.0000
  H   H12       1.0  0.71220  0.89344  0.67238  1.0000
  H   H13       1.0  0.44431  0.29130  0.77288  1.0000
  H   H14       1.0  0.05569  0.70870  0.27288  1.0000
  H   H15       1.0  0.94431  0.20870  0.22712  1.0000
  H   H16       1.0  0.55569  0.79130  0.72712  1.0000
  H   H17       1.0  0.97985  0.08965  0.59650  1.0000
  H   H18       1.0  0.52015  0.91036  0.09650  1.0000
  H   H19       1.0  0.47985  0.41035  0.40350  1.0000
  H   H20       1.0  0.02015  0.58964  0.90350  1.0000
  H   H21       1.0  0.95059  0.20072  0.53098  1.0000
  H   H22       1.0  0.54941  0.79928  0.03098  1.0000
  H   H23       1.0  0.45059  0.29928  0.46902  1.0000
  H   H24       1.0  0.04941  0.70072  0.96902  1.0000
  C   C1        1.0  0.66964  0.32815  0.85782  1.0000
  C   C2        1.0  0.83036  0.67185  0.35781  1.0000
  C   C3        1.0  0.16964  0.17185  0.14219  1.0000
  C   C4        1.0  0.33036  0.82815  0.64219  1.0000
  C   C5        1.0  0.47894  0.37250  0.80607  1.0000
  C   C6        1.0  0.02106  0.62750  0.30607  1.0000
  C   C7        1.0  0.97894  0.12750  0.19393  1.0000
  C   C8        1.0  0.52106  0.87250  0.69393  1.0000
  C   C9        1.0  0.80005  0.46171  0.71007  1.0000
  C   C10       1.0  0.69995  0.53829  0.21007  1.0000
  C   C11       1.0  0.30005  0.03829  0.28993  1.0000
  C   C12       1.0  0.19995  0.96171  0.78993  1.0000
  C   C13       1.0  0.10249  0.35412  0.63971  1.0000
  C   C14       1.0  0.39751  0.64588  0.13971  1.0000
  C   C15       1.0  0.60249  0.14588  0.36029  1.0000
  C   C16       1.0  0.89751  0.85412  0.86029  1.0000
  C   C17       1.0  0.23935  0.05032  0.51887  1.0000
  C   C18       1.0  0.26065  0.94968  0.01887  1.0000
  C   C19       1.0  0.73935  0.44968  0.48113  1.0000
  C   C20       1.0  0.76065  0.55032  0.98113  1.0000
  C   C21       1.0  0.08804  0.14530  0.56046  1.0000
  C   C22       1.0  0.41196  0.85470  0.06046  1.0000
  C   C23       1.0  0.58805  0.35470  0.43954  1.0000
  C   C24       1.0  0.91196  0.64530  0.93954  1.0000
  S   S1        1.0  0.56266  0.51712  0.76209  1.0000
  S   S2        1.0  0.93734  0.48288  0.26209  1.0000
  S   S3        1.0  0.06266  0.98288  0.23791  1.0000
  S   S4        1.0  0.43734  0.01712  0.73791  1.0000
  S   S5        1.0  0.91191  0.30242  0.70362  1.0000
  S   S6        1.0  0.58809  0.69758  0.20362  1.0000
  S   S7        1.0  0.41191  0.19758  0.29638  1.0000
  S   S8        1.0  0.08809  0.80242  0.79638  1.0000
  S   S9        1.0  0.31998  0.25484  0.59887  1.0000
  S   S10       1.0  0.18002  0.74516  0.09887  1.0000
  S   S11       1.0  0.81998  0.24516  0.40113  1.0000
  S   S12       1.0  0.68002  0.75484  0.90113  1.0000
  N   N1        1.0  0.90896  0.54235  0.66870  1.0000
  N   N2        1.0  0.59105  0.45765  0.16870  1.0000
  N   N3        1.0  0.40895  0.95765  0.33130  1.0000
  N   N4        1.0  0.09105  0.04235  0.83130  1.0000
  N   N5        1.0  0.07502  0.48008  0.62877  1.0000
  N   N6        1.0  0.42498  0.51992  0.12877  1.0000
  N   N7        1.0  0.57502  0.01992  0.37123  1.0000
  N   N8        1.0  0.92497  0.98008  0.87123  1.0000
  O   O1        1.0  0.58556  0.23405  0.89188  1.0000
  O   O2        1.0  0.91444  0.76595  0.39188  1.0000
  O   O3        1.0  0.08556  0.26595  0.10812  1.0000
  O   O4        1.0  0.41444  0.73405  0.60812  1.0000
  O   O5        1.0  0.13216  0.26564  0.95365  1.0000
  O   O6        1.0  0.36783  0.73436  0.45365  1.0000
  O   O7        1.0  0.63216  0.23436  0.04635  1.0000
  O   O8        1.0  0.86784  0.76564  0.54635  1.0000
  O   O9        1.0  0.88867  0.38302  0.86304  1.0000
  O   O10       1.0  0.61133  0.61697  0.36304  1.0000
  O   O11       1.0  0.38867  0.11697  0.13696  1.0000
  O   O12       1.0  0.11133  0.88302  0.63696  1.0000
  O   O13       1.0  0.11768  0.98404  0.47786  1.0000
  O   O14       1.0  0.38232  0.01596  0.97786  1.0000
  O   O15       1.0  0.61768  0.51596  0.52214  1.0000
  O   O16       1.0  0.88232  0.48404  0.02214  1.0000
  O   O17       1.0  0.48600  0.04452  0.52818  1.0000
  O   O18       1.0  0.01400  0.95548  0.02818  1.0000
  O   O19       1.0  0.98600  0.45548  0.47182  1.0000
  O   O20       1.0  0.51400  0.54452  0.97182  1.0000
