data_image0
_chemical_formula_structural       Cd4H16C24S12N8O16
_chemical_formula_sum              "Cd4 H16 C24 S12 N8 O16"
_cell_length_a       4.73743
_cell_length_b       8.18486
_cell_length_c       25.896
_cell_angle_alpha    90.0002
_cell_angle_beta     89.9997
_cell_angle_gamma    90

_space_group_name_H-M_alt    "P 1"
_space_group_IT_number       1

loop_
  _space_group_symop_operation_xyz
  'x, y, z'

loop_
  _atom_site_type_symbol
  _atom_site_label
  _atom_site_symmetry_multiplicity
  _atom_site_fract_x
  _atom_site_fract_y
  _atom_site_fract_z
  _atom_site_occupancy
  Cd  Cd1       1.0  0.82027  0.84827  0.06368  1.0000
  Cd  Cd2       1.0  0.67974  0.15173  0.56369  1.0000
  Cd  Cd3       1.0  0.17973  0.34827  0.43631  1.0000
  Cd  Cd4       1.0  0.32026  0.65174  0.93631  1.0000
  H   H1        1.0  0.02350  0.65004  0.17616  1.0000
  H   H2        1.0  0.47649  0.34996  0.67616  1.0000
  H   H3        1.0  0.97649  0.15004  0.32384  1.0000
  H   H4        1.0  0.52351  0.84996  0.82384  1.0000
  H   H5        1.0  0.19967  0.82705  0.20012  1.0000
  H   H6        1.0  0.30032  0.17295  0.70012  1.0000
  H   H7        1.0  0.80033  0.32705  0.29988  1.0000
  H   H8        1.0  0.69967  0.67295  0.79988  1.0000
  H   H9        1.0  0.22291  0.82066  0.45686  1.0000
  H   H10       1.0  0.27709  0.17934  0.95686  1.0000
  H   H11       1.0  0.77709  0.32066  0.04314  1.0000
  H   H12       1.0  0.72291  0.67934  0.54314  1.0000
  H   H13       1.0  0.15399  0.96712  0.40711  1.0000
  H   H14       1.0  0.34602  0.03288  0.90711  1.0000
  H   H15       1.0  0.84602  0.46711  0.09289  1.0000
  H   H16       1.0  0.65398  0.53289  0.59289  1.0000
  C   C1        1.0  0.39010  0.73278  0.13274  1.0000
  C   C2        1.0  0.10990  0.26723  0.63274  1.0000
  C   C3        1.0  0.60990  0.23278  0.36726  1.0000
  C   C4        1.0  0.89010  0.76723  0.86726  1.0000
  C   C5        1.0  0.23113  0.70558  0.18298  1.0000
  C   C6        1.0  0.26888  0.29442  0.68298  1.0000
  C   C7        1.0  0.76887  0.20558  0.31702  1.0000
  C   C8        1.0  0.73113  0.79442  0.81702  1.0000
  C   C9        1.0  0.27236  0.60585  0.28367  1.0000
  C   C10       1.0  0.22764  0.39415  0.78367  1.0000
  C   C11       1.0  0.72764  0.10585  0.21633  1.0000
  C   C12       1.0  0.77236  0.89415  0.71633  1.0000
  C   C13       1.0  0.01600  0.67238  0.36119  1.0000
  C   C14       1.0  0.48400  0.32761  0.86119  1.0000
  C   C15       1.0  0.98401  0.17238  0.13881  1.0000
  C   C16       1.0  0.51600  0.82762  0.63881  1.0000
  C   C17       1.0  0.05758  0.89232  0.43741  1.0000
  C   C18       1.0  0.44242  0.10768  0.93741  1.0000
  C   C19       1.0  0.94242  0.39232  0.06259  1.0000
  C   C20       1.0  0.55757  0.60768  0.56259  1.0000
  C   C21       1.0  0.92099  0.99787  0.47814  1.0000
  C   C22       1.0  0.57901  0.00213  0.97814  1.0000
  C   C23       1.0  0.07901  0.49786  0.02186  1.0000
  C   C24       1.0  0.42099  0.50213  0.52186  1.0000
  S   S1        1.0  0.44736  0.58226  0.22540  1.0000
  S   S2        1.0  0.05263  0.41775  0.72541  1.0000
  S   S3        1.0  0.55263  0.08226  0.27460  1.0000
  S   S4        1.0  0.94737  0.91774  0.77460  1.0000
  S   S5        1.0  0.01771  0.74998  0.29877  1.0000
  S   S6        1.0  0.48229  0.25002  0.79877  1.0000
  S   S7        1.0  0.98229  0.24998  0.20123  1.0000
  S   S8        1.0  0.51771  0.75002  0.70123  1.0000
  S   S9        1.0  0.79988  0.75036  0.40976  1.0000
  S   S10       1.0  0.70013  0.24964  0.90976  1.0000
  S   S11       1.0  0.20012  0.25036  0.09024  1.0000
  S   S12       1.0  0.29987  0.74963  0.59024  1.0000
  N   N1        1.0  0.34022  0.51112  0.32330  1.0000
  N   N2        1.0  0.15978  0.48888  0.82330  1.0000
  N   N3        1.0  0.65978  0.01112  0.17670  1.0000
  N   N4        1.0  0.84022  0.98887  0.67670  1.0000
  N   N5        1.0  0.19417  0.54934  0.36658  1.0000
  N   N6        1.0  0.30584  0.45066  0.86658  1.0000
  N   N7        1.0  0.80583  0.04934  0.13342  1.0000
  N   N8        1.0  0.69418  0.95066  0.63342  1.0000
  O   O1        1.0  0.63868  0.67487  0.12884  1.0000
  O   O2        1.0  0.86132  0.32514  0.62884  1.0000
  O   O3        1.0  0.36131  0.17486  0.37116  1.0000
  O   O4        1.0  0.13868  0.82514  0.87116  1.0000
  O   O5        1.0  0.27634  0.81850  0.09779  1.0000
  O   O6        1.0  0.22367  0.18151  0.59779  1.0000
  O   O7        1.0  0.72366  0.31849  0.40221  1.0000
  O   O8        1.0  0.77634  0.68151  0.90221  1.0000
  O   O9        1.0  0.71070  0.94294  0.50326  1.0000
  O   O10       1.0  0.78930  0.05705  0.00326  1.0000
  O   O11       1.0  0.28930  0.44294  0.99674  1.0000
  O   O12       1.0  0.21070  0.55705  0.49674  1.0000
  O   O13       1.0  0.03019  0.13652  0.48840  1.0000
  O   O14       1.0  0.46981  0.86348  0.98840  1.0000
  O   O15       1.0  0.96981  0.63652  0.01160  1.0000
  O   O16       1.0  0.53019  0.36348  0.51160  1.0000
