data_image0
_chemical_formula_structural       Ag6H4C4N18O6
_chemical_formula_sum              "Ag6 H4 C4 N18 O6"
_cell_length_a       6.78938
_cell_length_b       6.78933
_cell_length_c       10.9509
_cell_angle_alpha    83.0218
_cell_angle_beta     83.0214
_cell_angle_gamma    71.1382

_space_group_name_H-M_alt    "P 1"
_space_group_IT_number       1

loop_
  _space_group_symop_operation_xyz
  'x, y, z'

loop_
  _atom_site_type_symbol
  _atom_site_label
  _atom_site_symmetry_multiplicity
  _atom_site_fract_x
  _atom_site_fract_y
  _atom_site_fract_z
  _atom_site_occupancy
  Ag  Ag1       1.0  0.12592  0.87409  0.25000  1.0000
  Ag  Ag2       1.0  0.87408  0.12592  0.75000  1.0000
  Ag  Ag3       1.0  0.46173  0.00330  0.68989  1.0000
  Ag  Ag4       1.0  0.99670  0.53827  0.81011  1.0000
  Ag  Ag5       1.0  0.53828  0.99670  0.31011  1.0000
  Ag  Ag6       1.0  0.00330  0.46173  0.18989  1.0000
  H   H1        1.0  0.39503  0.75697  0.96839  1.0000
  H   H2        1.0  0.24301  0.60497  0.53161  1.0000
  H   H3        1.0  0.60497  0.24302  0.03161  1.0000
  H   H4        1.0  0.75699  0.39502  0.46839  1.0000
  C   C1        1.0  0.31028  0.92217  0.97171  1.0000
  C   C2        1.0  0.07786  0.68971  0.52829  1.0000
  C   C3        1.0  0.68972  0.07784  0.02828  1.0000
  C   C4        1.0  0.92214  0.31029  0.47171  1.0000
  N   N1        1.0  0.19905  0.01212  0.07139  1.0000
  N   N2        1.0  0.98788  0.80095  0.42861  1.0000
  N   N3        1.0  0.80095  0.98788  0.92861  1.0000
  N   N4        1.0  0.01212  0.19905  0.57139  1.0000
  N   N5        1.0  0.12098  0.21723  0.03644  1.0000
  N   N6        1.0  0.78277  0.87902  0.46356  1.0000
  N   N7        1.0  0.87902  0.78277  0.96356  1.0000
  N   N8        1.0  0.21723  0.12098  0.53644  1.0000
  N   N9        1.0  0.18257  0.25023  0.91920  1.0000
  N   N10       1.0  0.74977  0.81743  0.58080  1.0000
  N   N11       1.0  0.81743  0.74977  0.08080  1.0000
  N   N12       1.0  0.25023  0.18257  0.41921  1.0000
  N   N13       1.0  0.30241  0.06680  0.87630  1.0000
  N   N14       1.0  0.93319  0.69759  0.62370  1.0000
  N   N15       1.0  0.69759  0.93320  0.12370  1.0000
  N   N16       1.0  0.06681  0.30241  0.37630  1.0000
  N   N17       1.0  0.48346  0.51654  0.75000  1.0000
  N   N18       1.0  0.51654  0.48346  0.25000  1.0000
  O   O1        1.0  0.32326  0.67674  0.75000  1.0000
  O   O2        1.0  0.67673  0.32327  0.25000  1.0000
  O   O3        1.0  0.52079  0.39392  0.66476  1.0000
  O   O4        1.0  0.60608  0.47922  0.83524  1.0000
  O   O5        1.0  0.47921  0.60609  0.33524  1.0000
  O   O6        1.0  0.39392  0.52079  0.16476  1.0000
