data_image0
_chemical_formula_structural       Ag14H24C16N38O18
_chemical_formula_sum              "Ag14 H24 C16 N38 O18"
_cell_length_a       9.35595
_cell_length_b       9.35595
_cell_length_c       14.5599
_cell_angle_alpha    90
_cell_angle_beta     90
_cell_angle_gamma    94.7921

_space_group_name_H-M_alt    "P 1"
_space_group_IT_number       1

loop_
  _space_group_symop_operation_xyz
  'x, y, z'

loop_
  _atom_site_type_symbol
  _atom_site_label
  _atom_site_symmetry_multiplicity
  _atom_site_fract_x
  _atom_site_fract_y
  _atom_site_fract_z
  _atom_site_occupancy
  Ag  Ag1       1.0  0.11505  0.12603  0.11904  1.0000
  Ag  Ag2       1.0  0.88495  0.87397  0.61904  1.0000
  Ag  Ag3       1.0  0.87397  0.88495  0.38096  1.0000
  Ag  Ag4       1.0  0.12603  0.11505  0.88096  1.0000
  Ag  Ag5       1.0  0.64643  0.59489  0.12004  1.0000
  Ag  Ag6       1.0  0.35357  0.40511  0.62004  1.0000
  Ag  Ag7       1.0  0.40511  0.35357  0.37996  1.0000
  Ag  Ag8       1.0  0.59489  0.64643  0.87996  1.0000
  Ag  Ag9       1.0  0.75719  0.24281  0.25000  1.0000
  Ag  Ag10      1.0  0.24281  0.75719  0.75000  1.0000
  Ag  Ag11      1.0  0.48146  0.94226  0.17063  1.0000
  Ag  Ag12      1.0  0.51854  0.05773  0.67063  1.0000
  Ag  Ag13      1.0  0.05773  0.51853  0.32937  1.0000
  Ag  Ag14      1.0  0.94227  0.48146  0.82937  1.0000
  H   H1        1.0  0.01944  0.65741  0.11599  1.0000
  H   H2        1.0  0.98056  0.34259  0.61599  1.0000
  H   H3        1.0  0.34259  0.98056  0.38401  1.0000
  H   H4        1.0  0.65741  0.01944  0.88401  1.0000
  H   H5        1.0  0.11383  0.81135  0.06283  1.0000
  H   H6        1.0  0.88617  0.18865  0.56283  1.0000
  H   H7        1.0  0.18865  0.88617  0.43717  1.0000
  H   H8        1.0  0.81135  0.11383  0.93717  1.0000
  H   H9        1.0  0.97368  0.70671  0.00388  1.0000
  H   H10       1.0  0.02632  0.29329  0.50388  1.0000
  H   H11       1.0  0.29329  0.02632  0.49612  1.0000
  H   H12       1.0  0.70671  0.97368  0.99612  1.0000
  H   H13       1.0  0.18563  0.51267  0.14083  1.0000
  H   H14       1.0  0.81437  0.48733  0.64083  1.0000
  H   H15       1.0  0.48732  0.81437  0.35917  1.0000
  H   H16       1.0  0.51267  0.18563  0.85917  1.0000
  H   H17       1.0  0.19597  0.45373  0.02593  1.0000
  H   H18       1.0  0.80403  0.54627  0.52593  1.0000
  H   H19       1.0  0.54627  0.80403  0.47407  1.0000
  H   H20       1.0  0.45373  0.19597  0.97407  1.0000
  H   H21       1.0  0.32086  0.59587  0.06743  1.0000
  H   H22       1.0  0.67914  0.40413  0.56743  1.0000
  H   H23       1.0  0.40413  0.67914  0.43257  1.0000
  H   H24       1.0  0.59587  0.32086  0.93257  1.0000
  C   C1        1.0  0.90370  0.84061  0.11042  1.0000
  C   C2        1.0  0.09630  0.15939  0.61042  1.0000
  C   C3        1.0  0.15939  0.09630  0.38958  1.0000
  C   C4        1.0  0.84061  0.90370  0.88958  1.0000
  C   C5        1.0  0.00976  0.74966  0.07076  1.0000
  C   C6        1.0  0.99024  0.25034  0.57076  1.0000
  C   C7        1.0  0.25034  0.99024  0.42924  1.0000
  C   C8        1.0  0.74966  0.00976  0.92924  1.0000
  C   C9        1.0  0.35778  0.38666  0.11463  1.0000
  C   C10       1.0  0.64222  0.61334  0.61462  1.0000
  C   C11       1.0  0.61334  0.64222  0.38538  1.0000
  C   C12       1.0  0.38666  0.35778  0.88537  1.0000
  C   C13       1.0  0.26035  0.49413  0.08478  1.0000
  C   C14       1.0  0.73965  0.50587  0.58478  1.0000
  C   C15       1.0  0.50587  0.73965  0.41522  1.0000
  C   C16       1.0  0.49413  0.26035  0.91522  1.0000
  N   N1        1.0  0.76716  0.79613  0.13154  1.0000
  N   N2        1.0  0.23284  0.20387  0.63154  1.0000
  N   N3        1.0  0.20387  0.23284  0.36846  1.0000
  N   N4        1.0  0.79614  0.76716  0.86846  1.0000
  N   N5        1.0  0.70826  0.91119  0.16686  1.0000
  N   N6        1.0  0.29174  0.08881  0.66686  1.0000
  N   N7        1.0  0.08881  0.29174  0.33314  1.0000
  N   N8        1.0  0.91119  0.70826  0.83314  1.0000
  N   N9        1.0  0.80422  0.02197  0.16699  1.0000
  N   N10       1.0  0.19578  0.97803  0.66699  1.0000
  N   N11       1.0  0.97803  0.19578  0.33301  1.0000
  N   N12       1.0  0.02197  0.80422  0.83301  1.0000
  N   N13       1.0  0.92729  0.98060  0.13217  1.0000
  N   N14       1.0  0.07271  0.01940  0.63217  1.0000
  N   N15       1.0  0.01940  0.07271  0.36783  1.0000
  N   N16       1.0  0.98060  0.92729  0.86783  1.0000
  N   N17       1.0  0.49909  0.41089  0.13219  1.0000
  N   N18       1.0  0.50091  0.58911  0.63219  1.0000
  N   N19       1.0  0.58911  0.50091  0.36781  1.0000
  N   N20       1.0  0.41089  0.49909  0.86781  1.0000
  N   N21       1.0  0.54552  0.28396  0.15788  1.0000
  N   N22       1.0  0.45448  0.71604  0.65788  1.0000
  N   N23       1.0  0.71604  0.45448  0.34212  1.0000
  N   N24       1.0  0.28396  0.54552  0.84212  1.0000
  N   N25       1.0  0.43708  0.18611  0.15618  1.0000
  N   N26       1.0  0.56292  0.81389  0.65618  1.0000
  N   N27       1.0  0.81388  0.56292  0.34382  1.0000
  N   N28       1.0  0.18611  0.43708  0.84382  1.0000
  N   N29       1.0  0.31808  0.24686  0.12932  1.0000
  N   N30       1.0  0.68192  0.75314  0.62932  1.0000
  N   N31       1.0  0.75314  0.68192  0.37068  1.0000
  N   N32       1.0  0.24686  0.31808  0.87068  1.0000
  N   N33       1.0  0.61071  0.11137  0.45479  1.0000
  N   N34       1.0  0.38929  0.88863  0.95479  1.0000
  N   N35       1.0  0.88863  0.38929  0.04521  1.0000
  N   N36       1.0  0.11137  0.61071  0.54521  1.0000
  N   N37       1.0  0.21995  0.78004  0.25000  1.0000
  N   N38       1.0  0.78004  0.21996  0.75000  1.0000
  O   O1        1.0  0.54085  0.18808  0.50877  1.0000
  O   O2        1.0  0.45914  0.81192  0.00877  1.0000
  O   O3        1.0  0.81192  0.45915  0.99123  1.0000
  O   O4        1.0  0.18808  0.54085  0.49123  1.0000
  O   O5        1.0  0.70373  0.03504  0.48784  1.0000
  O   O6        1.0  0.29627  0.96496  0.98784  1.0000
  O   O7        1.0  0.96496  0.29627  0.01216  1.0000
  O   O8        1.0  0.03504  0.70373  0.51216  1.0000
  O   O9        1.0  0.58441  0.11171  0.36929  1.0000
  O   O10       1.0  0.41559  0.88829  0.86929  1.0000
  O   O11       1.0  0.88829  0.41559  0.13071  1.0000
  O   O12       1.0  0.11171  0.58441  0.63071  1.0000
  O   O13       1.0  0.25275  0.90913  0.22400  1.0000
  O   O14       1.0  0.74725  0.09087  0.72400  1.0000
  O   O15       1.0  0.09087  0.74725  0.27600  1.0000
  O   O16       1.0  0.90913  0.25275  0.77600  1.0000
  O   O17       1.0  0.31079  0.68921  0.25000  1.0000
  O   O18       1.0  0.68921  0.31079  0.75000  1.0000
