data_image0
_chemical_formula_structural       Ba2H48C40N4O4F8
_chemical_formula_sum              "Ba2 H48 C40 N4 O4 F8"
_cell_length_a       8.35516
_cell_length_b       10.992
_cell_length_c       11.9758
_cell_angle_alpha    103.65
_cell_angle_beta     93.7238
_cell_angle_gamma    95.084

_space_group_name_H-M_alt    "P 1"
_space_group_IT_number       1

loop_
  _space_group_symop_operation_xyz
  'x, y, z'

loop_
  _atom_site_type_symbol
  _atom_site_label
  _atom_site_symmetry_multiplicity
  _atom_site_fract_x
  _atom_site_fract_y
  _atom_site_fract_z
  _atom_site_occupancy
  Ba  Ba1       1.0  0.25680  0.56643  0.51194  1.0000
  Ba  Ba2       1.0  0.74320  0.43357  0.48806  1.0000
  H   H1        1.0  0.10517  0.52616  0.92954  1.0000
  H   H2        1.0  0.89484  0.47384  0.07046  1.0000
  H   H3        1.0  0.96056  0.69367  0.05420  1.0000
  H   H4        1.0  0.03944  0.30633  0.94580  1.0000
  H   H5        1.0  0.82404  0.84488  0.96063  1.0000
  H   H6        1.0  0.17596  0.15512  0.03938  1.0000
  H   H7        1.0  0.80168  0.84398  0.20601  1.0000
  H   H8        1.0  0.19832  0.15602  0.79399  1.0000
  H   H9        1.0  0.62438  0.70042  0.03974  1.0000
  H   H10       1.0  0.37562  0.29958  0.96027  1.0000
  H   H11       1.0  0.41750  0.53875  0.08272  1.0000
  H   H12       1.0  0.58250  0.46125  0.91728  1.0000
  H   H13       1.0  0.40732  0.86217  0.48627  1.0000
  H   H14       1.0  0.59269  0.13783  0.51373  1.0000
  H   H15       1.0  0.22111  0.93285  0.49412  1.0000
  H   H16       1.0  0.77889  0.06715  0.50588  1.0000
  H   H17       1.0  0.34606  0.02842  0.35297  1.0000
  H   H18       1.0  0.65394  0.97158  0.64703  1.0000
  H   H19       1.0  0.43417  0.88781  0.29220  1.0000
  H   H20       1.0  0.56583  0.11219  0.70780  1.0000
  H   H21       1.0  0.18860  0.86739  0.16104  1.0000
  H   H22       1.0  0.81140  0.13261  0.83896  1.0000
  H   H23       1.0  0.07517  0.92830  0.27851  1.0000
  H   H24       1.0  0.92483  0.07170  0.72149  1.0000
  H   H25       1.0  0.01201  0.70770  0.26871  1.0000
  H   H26       1.0  0.98799  0.29230  0.73130  1.0000
  H   H27       1.0  0.20083  0.66997  0.21444  1.0000
  H   H28       1.0  0.79917  0.33003  0.78556  1.0000
  H   H29       1.0  0.55157  0.70444  0.79436  1.0000
  H   H30       1.0  0.44843  0.29556  0.20564  1.0000
  H   H31       1.0  0.36078  0.65927  0.84123  1.0000
  H   H32       1.0  0.63923  0.34073  0.15877  1.0000
  H   H33       1.0  0.44392  0.84559  0.99332  1.0000
  H   H34       1.0  0.55609  0.15441  0.00668  1.0000
  H   H35       1.0  0.55323  0.91911  0.89950  1.0000
  H   H36       1.0  0.44677  0.08089  0.10050  1.0000
  H   H37       1.0  0.30283  0.01890  0.90190  1.0000
  H   H38       1.0  0.69717  0.98110  0.09810  1.0000
  H   H39       1.0  0.18450  0.87456  0.89897  1.0000
  H   H40       1.0  0.81549  0.12543  0.10102  1.0000
  H   H41       1.0  0.16705  0.86629  0.69386  1.0000
  H   H42       1.0  0.83295  0.13370  0.30614  1.0000
  H   H43       1.0  0.36691  0.94497  0.70532  1.0000
  H   H44       1.0  0.63309  0.05503  0.29468  1.0000
  H   H45       1.0  0.64542  0.71822  0.52773  1.0000
  H   H46       1.0  0.35458  0.28178  0.47227  1.0000
  H   H47       1.0  0.91566  0.72050  0.57599  1.0000
  H   H48       1.0  0.08435  0.27950  0.42401  1.0000
  C   C1        1.0  0.96256  0.66402  0.71650  1.0000
  C   C2        1.0  0.03744  0.33598  0.28350  1.0000
  C   C3        1.0  0.03889  0.58496  0.77665  1.0000
  C   C4        1.0  0.96111  0.41504  0.22335  1.0000
  C   C5        1.0  0.04124  0.59232  0.89342  1.0000
  C   C6        1.0  0.95877  0.40768  0.10658  1.0000
  C   C7        1.0  0.96246  0.68611  0.96216  1.0000
  C   C8        1.0  0.03754  0.31389  0.03784  1.0000
  C   C9        1.0  0.88507  0.76948  0.91036  1.0000
  C   C10       1.0  0.11494  0.23052  0.08965  1.0000
  C   C11       1.0  0.88696  0.75665  0.79274  1.0000
  C   C12       1.0  0.11304  0.24335  0.20726  1.0000
  C   C13       1.0  0.58873  0.66719  0.36147  1.0000
  C   C14       1.0  0.41127  0.33281  0.63853  1.0000
  C   C15       1.0  0.69793  0.75806  0.33070  1.0000
  C   C16       1.0  0.30207  0.24194  0.66930  1.0000
  C   C17       1.0  0.71196  0.77200  0.21980  1.0000
  C   C18       1.0  0.28804  0.22800  0.78020  1.0000
  C   C19       1.0  0.61248  0.69265  0.12774  1.0000
  C   C20       1.0  0.38752  0.30736  0.87226  1.0000
  C   C21       1.0  0.49957  0.60164  0.15072  1.0000
  C   C22       1.0  0.50043  0.39836  0.84928  1.0000
  C   C23       1.0  0.49154  0.59263  0.26330  1.0000
  C   C24       1.0  0.50846  0.40737  0.73670  1.0000
  C   C25       1.0  0.29689  0.87392  0.43654  1.0000
  C   C26       1.0  0.70311  0.12608  0.56346  1.0000
  C   C27       1.0  0.32784  0.92526  0.33170  1.0000
  C   C28       1.0  0.67216  0.07474  0.66830  1.0000
  C   C29       1.0  0.17404  0.87116  0.25215  1.0000
  C   C30       1.0  0.82596  0.12884  0.74785  1.0000
  C   C31       1.0  0.14074  0.74032  0.27372  1.0000
  C   C32       1.0  0.85926  0.25968  0.72627  1.0000
  C   C33       1.0  0.43333  0.73487  0.81519  1.0000
  C   C34       1.0  0.56667  0.26513  0.18481  1.0000
  C   C35       1.0  0.44304  0.85924  0.90544  1.0000
  C   C36       1.0  0.55696  0.14076  0.09456  1.0000
  C   C37       1.0  0.29313  0.91633  0.86919  1.0000
  C   C38       1.0  0.70686  0.08367  0.13081  1.0000
  C   C39       1.0  0.28865  0.87785  0.73830  1.0000
  C   C40       1.0  0.71135  0.12215  0.26170  1.0000
  N   N1        1.0  0.96658  0.64848  0.60067  1.0000
  N   N2        1.0  0.03342  0.35152  0.39934  1.0000
  N   N3        1.0  0.57362  0.64886  0.46886  1.0000
  N   N4        1.0  0.42638  0.35114  0.53114  1.0000
  O   O1        1.0  0.20996  0.74959  0.39072  1.0000
  O   O2        1.0  0.79004  0.25041  0.60928  1.0000
  O   O3        1.0  0.35170  0.75621  0.71126  1.0000
  O   O4        1.0  0.64830  0.24379  0.28874  1.0000
  F   F1        1.0  0.12105  0.49354  0.70922  1.0000
  F   F2        1.0  0.87895  0.50645  0.29078  1.0000
  F   F3        1.0  0.81003  0.83941  0.74269  1.0000
  F   F4        1.0  0.18997  0.16059  0.25731  1.0000
  F   F5        1.0  0.79822  0.83613  0.42037  1.0000
  F   F6        1.0  0.20178  0.16387  0.57963  1.0000
  F   F7        1.0  0.37623  0.50353  0.28532  1.0000
  F   F8        1.0  0.62377  0.49647  0.71468  1.0000
