data_image0
_chemical_formula_structural       Fe2Ni2H32C44N16
_chemical_formula_sum              "Fe2 Ni2 H32 C44 N16"
_cell_length_a       8.92735
_cell_length_b       9.48251
_cell_length_c       11.8227
_cell_angle_alpha    90.0003
_cell_angle_beta     89.9999
_cell_angle_gamma    100.126

_space_group_name_H-M_alt    "P 1"
_space_group_IT_number       1

loop_
  _space_group_symop_operation_xyz
  'x, y, z'

loop_
  _atom_site_type_symbol
  _atom_site_label
  _atom_site_symmetry_multiplicity
  _atom_site_fract_x
  _atom_site_fract_y
  _atom_site_fract_z
  _atom_site_occupancy
  Fe  Fe1       1.0  1.00000  0.50000  0.00000  1.0000
  Fe  Fe2       1.0  0.00000  1.00000  0.50000  1.0000
  Ni  Ni1       1.0  1.00000  1.00000  1.00000  1.0000
  Ni  Ni2       1.0  0.00000  0.50000  0.50000  1.0000
  H   H1        1.0  0.47390  0.50075  0.70392  1.0000
  H   H2        1.0  0.52609  0.99926  0.20392  1.0000
  H   H3        1.0  0.52610  0.49925  0.29608  1.0000
  H   H4        1.0  0.47391  0.00074  0.79608  1.0000
  H   H5        1.0  0.94943  0.65077  0.77285  1.0000
  H   H6        1.0  0.05057  0.84922  0.27285  1.0000
  H   H7        1.0  0.05057  0.34922  0.22715  1.0000
  H   H8        1.0  0.94943  0.15077  0.72715  1.0000
  H   H9        1.0  0.72485  0.65146  0.65154  1.0000
  H   H10       1.0  0.27515  0.84854  0.15154  1.0000
  H   H11       1.0  0.27515  0.34854  0.34846  1.0000
  H   H12       1.0  0.72485  0.15146  0.84846  1.0000
  H   H13       1.0  0.33057  0.17989  0.02149  1.0000
  H   H14       1.0  0.66943  0.32012  0.52148  1.0000
  H   H15       1.0  0.66943  0.82011  0.97851  1.0000
  H   H16       1.0  0.33057  0.67988  0.47852  1.0000
  H   H17       1.0  0.55952  0.22169  0.14691  1.0000
  H   H18       1.0  0.44048  0.27831  0.64691  1.0000
  H   H19       1.0  0.44048  0.77831  0.85309  1.0000
  H   H20       1.0  0.55952  0.72169  0.35309  1.0000
  H   H21       1.0  0.33019  0.31329  0.84101  1.0000
  H   H22       1.0  0.66981  0.18672  0.34100  1.0000
  H   H23       1.0  0.66981  0.68670  0.15899  1.0000
  H   H24       1.0  0.33019  0.81328  0.65900  1.0000
  H   H25       1.0  0.85125  0.30727  0.13519  1.0000
  H   H26       1.0  0.14875  0.19273  0.63519  1.0000
  H   H27       1.0  0.14875  0.69273  0.86481  1.0000
  H   H28       1.0  0.85125  0.80727  0.36481  1.0000
  H   H29       1.0  0.81147  0.46750  0.16503  1.0000
  H   H30       1.0  0.18853  0.03250  0.66503  1.0000
  H   H31       1.0  0.18853  0.53250  0.83497  1.0000
  H   H32       1.0  0.81147  0.96750  0.33497  1.0000
  C   C1        1.0  0.88366  0.04062  0.11999  1.0000
  C   C2        1.0  0.11633  0.45937  0.61999  1.0000
  C   C3        1.0  0.11633  0.95938  0.88001  1.0000
  C   C4        1.0  0.88367  0.54063  0.38001  1.0000
  C   C5        1.0  0.69868  0.43147  0.92440  1.0000
  C   C6        1.0  0.30132  0.06854  0.42440  1.0000
  C   C7        1.0  0.30132  0.56854  0.07560  1.0000
  C   C8        1.0  0.69868  0.93146  0.57560  1.0000
  C   C9        1.0  0.56555  0.41808  0.85584  1.0000
  C   C10       1.0  0.43445  0.08192  0.35584  1.0000
  C   C11       1.0  0.43444  0.58192  0.14416  1.0000
  C   C12       1.0  0.56556  0.91808  0.64416  1.0000
  C   C13       1.0  0.57515  0.50175  0.75575  1.0000
  C   C14       1.0  0.42485  0.99825  0.25575  1.0000
  C   C15       1.0  0.42485  0.49825  0.24425  1.0000
  C   C16       1.0  0.57516  0.00175  0.74425  1.0000
  C   C17       1.0  0.84090  0.58658  0.79701  1.0000
  C   C18       1.0  0.15910  0.91341  0.29701  1.0000
  C   C19       1.0  0.15910  0.41341  0.20299  1.0000
  C   C20       1.0  0.84090  0.08659  0.70299  1.0000
  C   C21       1.0  0.71234  0.58571  0.72756  1.0000
  C   C22       1.0  0.28766  0.91429  0.22756  1.0000
  C   C23       1.0  0.28766  0.41429  0.27244  1.0000
  C   C24       1.0  0.71234  0.08571  0.77244  1.0000
  C   C25       1.0  0.69312  0.36410  0.03086  1.0000
  C   C26       1.0  0.30689  0.13590  0.53086  1.0000
  C   C27       1.0  0.30688  0.63590  0.96914  1.0000
  C   C28       1.0  0.69311  0.86410  0.46914  1.0000
  C   C29       1.0  0.43311  0.25177  0.99396  1.0000
  C   C30       1.0  0.56690  0.24824  0.49396  1.0000
  C   C31       1.0  0.56689  0.74823  0.00604  1.0000
  C   C32       1.0  0.43311  0.75176  0.50604  1.0000
  C   C33       1.0  0.56270  0.27351  0.06471  1.0000
  C   C34       1.0  0.43730  0.22650  0.56471  1.0000
  C   C35       1.0  0.43730  0.72649  0.93529  1.0000
  C   C36       1.0  0.56270  0.77350  0.43529  1.0000
  C   C37       1.0  0.43259  0.32469  0.89285  1.0000
  C   C38       1.0  0.56741  0.17532  0.39284  1.0000
  C   C39       1.0  0.56741  0.67531  0.10715  1.0000
  C   C40       1.0  0.43259  0.82468  0.60716  1.0000
  C   C41       1.0  0.98294  0.81027  0.03823  1.0000
  C   C42       1.0  0.01706  0.68973  0.53824  1.0000
  C   C43       1.0  0.01706  0.18973  0.96177  1.0000
  C   C44       1.0  0.98294  0.31027  0.46176  1.0000
  N   N1        1.0  0.81136  0.07211  0.19625  1.0000
  N   N2        1.0  0.18863  0.42789  0.69625  1.0000
  N   N3        1.0  0.18863  0.92789  0.80375  1.0000
  N   N4        1.0  0.81137  0.57212  0.30375  1.0000
  N   N5        1.0  0.83629  0.51124  0.89252  1.0000
  N   N6        1.0  0.16371  0.98876  0.39252  1.0000
  N   N7        1.0  0.16371  0.48876  0.10748  1.0000
  N   N8        1.0  0.83629  0.01124  0.60748  1.0000
  N   N9        1.0  0.82908  0.40004  0.09876  1.0000
  N   N10       1.0  0.17093  0.09996  0.59876  1.0000
  N   N11       1.0  0.17092  0.59996  0.90124  1.0000
  N   N12       1.0  0.82908  0.90004  0.40124  1.0000
  N   N13       1.0  0.98157  0.68643  0.04551  1.0000
  N   N14       1.0  0.01842  0.81358  0.54551  1.0000
  N   N15       1.0  0.01842  0.31357  0.95450  1.0000
  N   N16       1.0  0.98158  0.18642  0.45449  1.0000
