data_image0
_chemical_formula_structural       Cu8H56C56I8N16
_chemical_formula_sum              "Cu8 H56 C56 I8 N16"
_cell_length_a       8.75003
_cell_length_b       13.9339
_cell_length_c       14.5831
_cell_angle_alpha    92.2447
_cell_angle_beta     98.2193
_cell_angle_gamma    90.4745

_space_group_name_H-M_alt    "P 1"
_space_group_IT_number       1

loop_
  _space_group_symop_operation_xyz
  'x, y, z'

loop_
  _atom_site_type_symbol
  _atom_site_label
  _atom_site_symmetry_multiplicity
  _atom_site_fract_x
  _atom_site_fract_y
  _atom_site_fract_z
  _atom_site_occupancy
  Cu  Cu1       1.0  0.39738  0.81366  0.18847  1.0000
  Cu  Cu2       1.0  0.60262  0.18634  0.81153  1.0000
  Cu  Cu3       1.0  0.41273  0.69697  0.32413  1.0000
  Cu  Cu4       1.0  0.58727  0.30304  0.67587  1.0000
  Cu  Cu5       1.0  0.16999  0.70080  0.20638  1.0000
  Cu  Cu6       1.0  0.83001  0.29920  0.79362  1.0000
  Cu  Cu7       1.0  0.24304  0.84386  0.32218  1.0000
  Cu  Cu8       1.0  0.75697  0.15615  0.67783  1.0000
  H   H1        1.0  0.74732  0.87080  0.16595  1.0000
  H   H2        1.0  0.25268  0.12919  0.83404  1.0000
  H   H3        1.0  0.33770  0.87085  0.97476  1.0000
  H   H4        1.0  0.66230  0.12916  0.02524  1.0000
  H   H5        1.0  0.81984  0.91673  0.99253  1.0000
  H   H6        1.0  0.18016  0.08326  0.00747  1.0000
  H   H7        1.0  0.62874  0.97283  0.84239  1.0000
  H   H8        1.0  0.37126  0.02717  0.15761  1.0000
  H   H9        1.0  0.43635  0.92978  0.83283  1.0000
  H   H10       1.0  0.56365  0.07022  0.16718  1.0000
  H   H11       1.0  0.47387  0.72413  0.87948  1.0000
  H   H12       1.0  0.52613  0.27586  0.12052  1.0000
  H   H13       1.0  0.53776  0.57891  0.78940  1.0000
  H   H14       1.0  0.46224  0.42109  0.21059  1.0000
  H   H15       1.0  0.80357  0.75386  0.63140  1.0000
  H   H16       1.0  0.19643  0.24614  0.36859  1.0000
  H   H17       1.0  0.73827  0.89898  0.72034  1.0000
  H   H18       1.0  0.26172  0.10102  0.27966  1.0000
  H   H19       1.0  0.83366  0.54892  0.66445  1.0000
  H   H20       1.0  0.16635  0.45108  0.33555  1.0000
  H   H21       1.0  0.64317  0.50612  0.66352  1.0000
  H   H22       1.0  0.35684  0.49388  0.33648  1.0000
  H   H23       1.0  0.90544  0.55599  0.50884  1.0000
  H   H24       1.0  0.09456  0.44401  0.49116  1.0000
  H   H25       1.0  0.75448  0.61074  0.33728  1.0000
  H   H26       1.0  0.24552  0.38926  0.66271  1.0000
  H   H27       1.0  0.44481  0.63011  0.53369  1.0000
  H   H28       1.0  0.55519  0.36990  0.46631  1.0000
  H   H29       1.0  0.80434  0.68268  0.12493  1.0000
  H   H30       1.0  0.19566  0.31732  0.87507  1.0000
  H   H31       1.0  0.15937  0.47800  0.14491  1.0000
  H   H32       1.0  0.84063  0.52200  0.85510  1.0000
  H   H33       1.0  0.68066  0.50527  0.05441  1.0000
  H   H34       1.0  0.31934  0.49473  0.94560  1.0000
  H   H35       1.0  0.00817  0.33743  0.04166  1.0000
  H   H36       1.0  0.99183  0.66258  0.95834  1.0000
  H   H37       1.0  0.80687  0.34801  0.01385  1.0000
  H   H38       1.0  0.19313  0.65199  0.98615  1.0000
  H   H39       1.0  0.84018  0.41927  0.24600  1.0000
  H   H40       1.0  0.15983  0.58073  0.75400  1.0000
  H   H41       1.0  0.80828  0.31523  0.37630  1.0000
  H   H42       1.0  0.19172  0.68477  0.62370  1.0000
  H   H43       1.0  0.88597  0.06542  0.20615  1.0000
  H   H44       1.0  0.11403  0.93458  0.79385  1.0000
  H   H45       1.0  0.92193  0.16906  0.07757  1.0000
  H   H46       1.0  0.07807  0.83094  0.92243  1.0000
  H   H47       1.0  0.81261  0.16213  0.44330  1.0000
  H   H48       1.0  0.18739  0.83787  0.55670  1.0000
  H   H49       1.0  0.73021  0.06877  0.36455  1.0000
  H   H50       1.0  0.26979  0.93123  0.63545  1.0000
  H   H51       1.0  0.90637  0.93577  0.31411  1.0000
  H   H52       1.0  0.09363  0.06423  0.68589  1.0000
  H   H53       1.0  0.33562  0.02494  0.46388  1.0000
  H   H54       1.0  0.66439  0.97507  0.53612  1.0000
  H   H55       1.0  0.11381  0.16095  0.49390  1.0000
  H   H56       1.0  0.88618  0.83906  0.50610  1.0000
  C   C1        1.0  0.67285  0.87773  0.10057  1.0000
  C   C2        1.0  0.32715  0.12227  0.89943  1.0000
  C   C3        1.0  0.45834  0.87642  0.00457  1.0000
  C   C4        1.0  0.54166  0.12359  0.99543  1.0000
  C   C5        1.0  0.71054  0.90042  0.01553  1.0000
  C   C6        1.0  0.28945  0.09957  0.98447  1.0000
  C   C7        1.0  0.55721  0.91128  0.85589  1.0000
  C   C8        1.0  0.44279  0.08872  0.14411  1.0000
  C   C9        1.0  0.60113  0.82145  0.80536  1.0000
  C   C10       1.0  0.39886  0.17855  0.19464  1.0000
  C   C11       1.0  0.54694  0.73098  0.82529  1.0000
  C   C12       1.0  0.45306  0.26901  0.17470  1.0000
  C   C13       1.0  0.58292  0.64919  0.77492  1.0000
  C   C14       1.0  0.41708  0.35081  0.22507  1.0000
  C   C15       1.0  0.67531  0.65660  0.70469  1.0000
  C   C16       1.0  0.32469  0.34340  0.29531  1.0000
  C   C17       1.0  0.73148  0.74699  0.68594  1.0000
  C   C18       1.0  0.26852  0.25301  0.31406  1.0000
  C   C19       1.0  0.69473  0.82871  0.73573  1.0000
  C   C20       1.0  0.30527  0.17129  0.26427  1.0000
  C   C21       1.0  0.71165  0.56860  0.64859  1.0000
  C   C22       1.0  0.28835  0.43140  0.35140  1.0000
  C   C23       1.0  0.78778  0.57770  0.48711  1.0000
  C   C24       1.0  0.21222  0.42230  0.51289  1.0000
  C   C25       1.0  0.71181  0.60485  0.40311  1.0000
  C   C26       1.0  0.28819  0.39515  0.59689  1.0000
  C   C27       1.0  0.54792  0.61618  0.50223  1.0000
  C   C28       1.0  0.45209  0.38383  0.49777  1.0000
  C   C29       1.0  0.86003  0.61400  0.11901  1.0000
  C   C30       1.0  0.13998  0.38600  0.88099  1.0000
  C   C31       1.0  0.04674  0.51075  0.13143  1.0000
  C   C32       1.0  0.95327  0.48925  0.86857  1.0000
  C   C33       1.0  0.79690  0.52703  0.08411  1.0000
  C   C34       1.0  0.20310  0.47297  0.91589  1.0000
  C   C35       1.0  0.90401  0.35996  0.07030  1.0000
  C   C36       1.0  0.09599  0.64004  0.92970  1.0000
  C   C37       1.0  0.88258  0.30114  0.15256  1.0000
  C   C38       1.0  0.11742  0.69886  0.84744  1.0000
  C   C39       1.0  0.85040  0.34157  0.23681  1.0000
  C   C40       1.0  0.14960  0.65842  0.76319  1.0000
  C   C41       1.0  0.83108  0.28296  0.31016  1.0000
  C   C42       1.0  0.16892  0.71703  0.68984  1.0000
  C   C43       1.0  0.84207  0.18324  0.30029  1.0000
  C   C44       1.0  0.15792  0.81676  0.69970  1.0000
  C   C45       1.0  0.87345  0.14296  0.21538  1.0000
  C   C46       1.0  0.12654  0.85704  0.78462  1.0000
  C   C47       1.0  0.89467  0.20112  0.14286  1.0000
  C   C48       1.0  0.10533  0.79888  0.85714  1.0000
  C   C49       1.0  0.82847  0.11949  0.38050  1.0000
  C   C50       1.0  0.17153  0.88050  0.61950  1.0000
  C   C51       1.0  0.99546  0.97784  0.35754  1.0000
  C   C52       1.0  0.00454  0.02216  0.64246  1.0000
  C   C53       1.0  0.21378  0.02679  0.43679  1.0000
  C   C54       1.0  0.78622  0.97321  0.56321  1.0000
  C   C55       1.0  0.10626  0.09498  0.45142  1.0000
  C   C56       1.0  0.89374  0.90502  0.54858  1.0000
  I   I1        1.0  0.10759  0.87161  0.13372  1.0000
  I   I2        1.0  0.89241  0.12839  0.86629  1.0000
  I   I3        1.0  0.43526  0.62118  0.15462  1.0000
  I   I4        1.0  0.56474  0.37882  0.84538  1.0000
  I   I5        1.0  0.54738  0.88309  0.34817  1.0000
  I   I6        1.0  0.45262  0.11691  0.65184  1.0000
  I   I7        1.0  0.13936  0.68595  0.39247  1.0000
  I   I8        1.0  0.86065  0.31405  0.60753  1.0000
  N   N1        1.0  0.14323  0.95411  0.37802  1.0000
  N   N2        1.0  0.85677  0.04589  0.62198  1.0000
  N   N3        1.0  0.51513  0.86293  0.09274  1.0000
  N   N4        1.0  0.48487  0.13707  0.90726  1.0000
  N   N5        1.0  0.56210  0.62883  0.41364  1.0000
  N   N6        1.0  0.43791  0.37117  0.58636  1.0000
  N   N7        1.0  0.91668  0.46266  0.09210  1.0000
  N   N8        1.0  0.08333  0.53734  0.90790  1.0000
  N   N9        1.0  0.57321  0.89979  0.95576  1.0000
  N   N10       1.0  0.42679  0.10020  0.04424  1.0000
  N   N11       1.0  0.96848  0.06284  0.40072  1.0000
  N   N12       1.0  0.03152  0.93716  0.59928  1.0000
  N   N13       1.0  0.68252  0.58501  0.54899  1.0000
  N   N14       1.0  0.31748  0.41500  0.45101  1.0000
  N   N15       1.0  0.01618  0.60289  0.14799  1.0000
  N   N16       1.0  0.98382  0.39711  0.85201  1.0000
