data_image0
_chemical_formula_structural       Fe2H32Pt2C44N16
_chemical_formula_sum              "Fe2 H32 Pt2 C44 N16"
_cell_length_a       8.96097
_cell_length_b       9.7234
_cell_length_c       11.9504
_cell_angle_alpha    90.0004
_cell_angle_beta     90.0006
_cell_angle_gamma    101.097

_space_group_name_H-M_alt    "P 1"
_space_group_IT_number       1

loop_
  _space_group_symop_operation_xyz
  'x, y, z'

loop_
  _atom_site_type_symbol
  _atom_site_label
  _atom_site_symmetry_multiplicity
  _atom_site_fract_x
  _atom_site_fract_y
  _atom_site_fract_z
  _atom_site_occupancy
  Fe  Fe1       1.0  0.00000  0.50000  0.00000  1.0000
  Fe  Fe2       1.0  1.00000  0.00000  0.50000  1.0000
  H   H1        1.0  0.47383  0.49349  0.70781  1.0000
  H   H2        1.0  0.52616  0.00651  0.20781  1.0000
  H   H3        1.0  0.52617  0.50650  0.29219  1.0000
  H   H4        1.0  0.47383  0.99349  0.79219  1.0000
  H   H5        1.0  0.94987  0.64524  0.77473  1.0000
  H   H6        1.0  0.05013  0.85475  0.27473  1.0000
  H   H7        1.0  0.05013  0.35476  0.22527  1.0000
  H   H8        1.0  0.94987  0.14525  0.72527  1.0000
  H   H9        1.0  0.72544  0.64311  0.65482  1.0000
  H   H10       1.0  0.27455  0.85688  0.15482  1.0000
  H   H11       1.0  0.27456  0.35688  0.34518  1.0000
  H   H12       1.0  0.72545  0.14312  0.84518  1.0000
  H   H13       1.0  0.32764  0.18492  0.02513  1.0000
  H   H14       1.0  0.67235  0.31509  0.52513  1.0000
  H   H15       1.0  0.67236  0.81508  0.97488  1.0000
  H   H16       1.0  0.32764  0.68491  0.47487  1.0000
  H   H17       1.0  0.55750  0.22742  0.14825  1.0000
  H   H18       1.0  0.44250  0.27258  0.64825  1.0000
  H   H19       1.0  0.44250  0.77258  0.85176  1.0000
  H   H20       1.0  0.55750  0.72742  0.35175  1.0000
  H   H21       1.0  0.32886  0.31285  0.84514  1.0000
  H   H22       1.0  0.67114  0.18715  0.34514  1.0000
  H   H23       1.0  0.67115  0.68714  0.15486  1.0000
  H   H24       1.0  0.32886  0.81285  0.65486  1.0000
  H   H25       1.0  0.85044  0.31078  0.13465  1.0000
  H   H26       1.0  0.14955  0.18922  0.63465  1.0000
  H   H27       1.0  0.14956  0.68923  0.86535  1.0000
  H   H28       1.0  0.85044  0.81078  0.36535  1.0000
  H   H29       1.0  0.81268  0.46758  0.16324  1.0000
  H   H30       1.0  0.18732  0.03242  0.66324  1.0000
  H   H31       1.0  0.18732  0.53242  0.83676  1.0000
  H   H32       1.0  0.81268  0.96758  0.33676  1.0000
  Pt  Pt1       1.0  0.00001  0.00000  0.00000  1.0000
  Pt  Pt2       1.0  0.00001  0.50000  0.50000  1.0000
  C   C1        1.0  0.87677  0.04313  0.12770  1.0000
  C   C2        1.0  0.12323  0.45687  0.62771  1.0000
  C   C3        1.0  0.12324  0.95687  0.87229  1.0000
  C   C4        1.0  0.87678  0.54314  0.37229  1.0000
  C   C5        1.0  0.69836  0.43016  0.92609  1.0000
  C   C6        1.0  0.30164  0.06983  0.42609  1.0000
  C   C7        1.0  0.30164  0.56983  0.07391  1.0000
  C   C8        1.0  0.69835  0.93017  0.57391  1.0000
  C   C9        1.0  0.56514  0.41570  0.85863  1.0000
  C   C10       1.0  0.43485  0.08430  0.35863  1.0000
  C   C11       1.0  0.43486  0.58430  0.14137  1.0000
  C   C12       1.0  0.56514  0.91570  0.64137  1.0000
  C   C13       1.0  0.57513  0.49641  0.75896  1.0000
  C   C14       1.0  0.42486  0.00359  0.25896  1.0000
  C   C15       1.0  0.42487  0.50359  0.24104  1.0000
  C   C16       1.0  0.57513  0.99641  0.74104  1.0000
  C   C17       1.0  0.84109  0.58187  0.79910  1.0000
  C   C18       1.0  0.15890  0.91813  0.29910  1.0000
  C   C19       1.0  0.15891  0.41813  0.20090  1.0000
  C   C20       1.0  0.84109  0.08187  0.70090  1.0000
  C   C21       1.0  0.71265  0.57939  0.73043  1.0000
  C   C22       1.0  0.28735  0.92061  0.23043  1.0000
  C   C23       1.0  0.28735  0.42061  0.26957  1.0000
  C   C24       1.0  0.71265  0.07939  0.76957  1.0000
  C   C25       1.0  0.69242  0.36505  0.03167  1.0000
  C   C26       1.0  0.30758  0.13495  0.53167  1.0000
  C   C27       1.0  0.30759  0.63495  0.96833  1.0000
  C   C28       1.0  0.69241  0.86505  0.46833  1.0000
  C   C29       1.0  0.43092  0.25477  0.99697  1.0000
  C   C30       1.0  0.56907  0.24523  0.49698  1.0000
  C   C31       1.0  0.56909  0.74523  0.00303  1.0000
  C   C32       1.0  0.43092  0.75477  0.50302  1.0000
  C   C33       1.0  0.56098  0.27703  0.06643  1.0000
  C   C34       1.0  0.43902  0.22297  0.56643  1.0000
  C   C35       1.0  0.43903  0.72297  0.93357  1.0000
  C   C36       1.0  0.56097  0.77703  0.43356  1.0000
  C   C37       1.0  0.43130  0.32454  0.89621  1.0000
  C   C38       1.0  0.56869  0.17546  0.39622  1.0000
  C   C39       1.0  0.56870  0.67546  0.10379  1.0000
  C   C40       1.0  0.43130  0.82454  0.60378  1.0000
  C   C41       1.0  0.98244  0.80116  0.04109  1.0000
  C   C42       1.0  0.01757  0.69885  0.54109  1.0000
  C   C43       1.0  0.01757  0.19885  0.95891  1.0000
  C   C44       1.0  0.98244  0.30115  0.45891  1.0000
  N   N1        1.0  0.80598  0.07542  0.20278  1.0000
  N   N2        1.0  0.19402  0.42457  0.70279  1.0000
  N   N3        1.0  0.19403  0.92458  0.79722  1.0000
  N   N4        1.0  0.80599  0.57543  0.29721  1.0000
  N   N5        1.0  0.83626  0.50905  0.89397  1.0000
  N   N6        1.0  0.16374  0.99095  0.39397  1.0000
  N   N7        1.0  0.16375  0.49095  0.10603  1.0000
  N   N8        1.0  0.83626  0.00905  0.60603  1.0000
  N   N9        1.0  0.82913  0.40092  0.09826  1.0000
  N   N10       1.0  0.17087  0.09908  0.59826  1.0000
  N   N11       1.0  0.17088  0.59908  0.90174  1.0000
  N   N12       1.0  0.82912  0.90092  0.40174  1.0000
  N   N13       1.0  0.98267  0.68071  0.04632  1.0000
  N   N14       1.0  0.01733  0.81930  0.54632  1.0000
  N   N15       1.0  0.01734  0.31930  0.95368  1.0000
  N   N16       1.0  0.98266  0.18070  0.45368  1.0000
