data_image0
_chemical_formula_structural       Cd2H24C26N4Cl4
_chemical_formula_sum              "Cd2 H24 C26 N4 Cl4"
_cell_length_a       6.99148
_cell_length_b       9.65654
_cell_length_c       10.5315
_cell_angle_alpha    98.2965
_cell_angle_beta     105.755
_cell_angle_gamma    94.4744

_space_group_name_H-M_alt    "P 1"
_space_group_IT_number       1

loop_
  _space_group_symop_operation_xyz
  'x, y, z'

loop_
  _atom_site_type_symbol
  _atom_site_label
  _atom_site_symmetry_multiplicity
  _atom_site_fract_x
  _atom_site_fract_y
  _atom_site_fract_z
  _atom_site_occupancy
  Cd  Cd1       1.0  0.76917  0.58390  0.53249  1.0000
  Cd  Cd2       1.0  0.23082  0.41611  0.46750  1.0000
  H   H1        1.0  0.56895  0.72135  0.26706  1.0000
  H   H2        1.0  0.43105  0.27866  0.73294  1.0000
  H   H3        1.0  0.54344  0.95843  0.19661  1.0000
  H   H4        1.0  0.45655  0.04158  0.80340  1.0000
  H   H5        1.0  0.67396  0.17755  0.37440  1.0000
  H   H6        1.0  0.32603  0.82246  0.62561  1.0000
  H   H7        1.0  0.82528  0.14725  0.60942  1.0000
  H   H8        1.0  0.17472  0.85275  0.39059  1.0000
  H   H9        1.0  0.90925  0.99252  0.77666  1.0000
  H   H10       1.0  0.09075  0.00748  0.22335  1.0000
  H   H11       1.0  0.23138  0.64661  0.79026  1.0000
  H   H12       1.0  0.76862  0.35339  0.20974  1.0000
  H   H13       1.0  0.38117  0.57782  0.01111  1.0000
  H   H14       1.0  0.61883  0.42218  0.98889  1.0000
  H   H15       1.0  0.21690  0.62748  0.19369  1.0000
  H   H16       1.0  0.78310  0.37252  0.80631  1.0000
  H   H17       1.0  0.92086  0.75485  0.15778  1.0000
  H   H18       1.0  0.07914  0.24515  0.84221  1.0000
  H   H19       1.0  0.65122  0.83710  0.01439  1.0000
  H   H20       1.0  0.34877  0.16289  0.98560  1.0000
  H   H21       1.0  0.62244  0.82367  0.84067  1.0000
  H   H22       1.0  0.37756  0.17633  0.15932  1.0000
  H   H23       1.0  0.76493  0.97490  0.95454  1.0000
  H   H24       1.0  0.23506  0.02510  0.04545  1.0000
  C   C1        1.0  0.62469  0.81882  0.33922  1.0000
  C   C2        1.0  0.37531  0.18119  0.66079  1.0000
  C   C3        1.0  0.61118  0.95135  0.30118  1.0000
  C   C4        1.0  0.38882  0.04867  0.69882  1.0000
  C   C5        1.0  0.68262  0.07177  0.39900  1.0000
  C   C6        1.0  0.31737  0.92823  0.60101  1.0000
  C   C7        1.0  0.76603  0.05517  0.53122  1.0000
  C   C8        1.0  0.23398  0.94483  0.46879  1.0000
  C   C9        1.0  0.77735  0.91918  0.56104  1.0000
  C   C10       1.0  0.22266  0.08083  0.43896  1.0000
  C   C11       1.0  0.87368  0.89849  0.69815  1.0000
  C   C12       1.0  0.12632  0.10152  0.30185  1.0000
  C   C13       1.0  0.00244  0.75055  0.85349  1.0000
  C   C14       1.0  0.99756  0.24944  0.14650  1.0000
  C   C15       1.0  0.16936  0.67555  0.87340  1.0000
  C   C16       1.0  0.83064  0.32445  0.12660  1.0000
  C   C17       1.0  0.25191  0.63638  0.99687  1.0000
  C   C18       1.0  0.74809  0.36361  0.00313  1.0000
  C   C19       1.0  0.16242  0.66570  0.09954  1.0000
  C   C20       1.0  0.83758  0.33429  0.90046  1.0000
  C   C21       1.0  0.99487  0.73838  0.07882  1.0000
  C   C22       1.0  0.00513  0.26162  0.92118  1.0000
  C   C23       1.0  0.91266  0.78486  0.95775  1.0000
  C   C24       1.0  0.08733  0.21513  0.04225  1.0000
  C   C25       1.0  0.72852  0.85958  0.94048  1.0000
  C   C26       1.0  0.27147  0.14041  0.05952  1.0000
  N   N1        1.0  0.70507  0.80344  0.46606  1.0000
  N   N2        1.0  0.29492  0.19657  0.53394  1.0000
  N   N3        1.0  0.91945  0.77689  0.72278  1.0000
  N   N4        1.0  0.08055  0.22310  0.27722  1.0000
  Cl  Cl1       1.0  0.49211  0.44249  0.32571  1.0000
  Cl  Cl2       1.0  0.50789  0.55751  0.67428  1.0000
  Cl  Cl3       1.0  0.97364  0.39280  0.61700  1.0000
  Cl  Cl4       1.0  0.02636  0.60720  0.38300  1.0000
