data_image0
_chemical_formula_structural       Cu4H24C16N12O8
_chemical_formula_sum              "Cu4 H24 C16 N12 O8"
_cell_length_a       6.69181
_cell_length_b       7.2653
_cell_length_c       15.7472
_cell_angle_alpha    81.0819
_cell_angle_beta     77.7591
_cell_angle_gamma    62.5992

_space_group_name_H-M_alt    "P 1"
_space_group_IT_number       1

loop_
  _space_group_symop_operation_xyz
  'x, y, z'

loop_
  _atom_site_type_symbol
  _atom_site_label
  _atom_site_symmetry_multiplicity
  _atom_site_fract_x
  _atom_site_fract_y
  _atom_site_fract_z
  _atom_site_occupancy
  Cu  Cu1       1.0  0.82554  0.41132  0.49374  1.0000
  Cu  Cu2       1.0  0.26957  0.91135  0.99366  1.0000
  Cu  Cu3       1.0  0.17446  0.58867  0.50626  1.0000
  Cu  Cu4       1.0  0.73045  0.08864  0.00634  1.0000
  H   H1        1.0  0.98195  0.78496  0.71098  1.0000
  H   H2        1.0  0.52217  0.28519  0.21109  1.0000
  H   H3        1.0  0.01803  0.21506  0.28902  1.0000
  H   H4        1.0  0.47782  0.71479  0.78892  1.0000
  H   H5        1.0  0.23122  0.82310  0.69100  1.0000
  H   H6        1.0  0.25497  0.32317  0.19100  1.0000
  H   H7        1.0  0.76876  0.17691  0.30899  1.0000
  H   H8        1.0  0.74506  0.67679  0.80901  1.0000
  H   H9        1.0  0.47619  0.47147  0.65115  1.0000
  H   H10       1.0  0.40148  0.97134  0.15126  1.0000
  H   H11       1.0  0.52380  0.52855  0.34885  1.0000
  H   H12       1.0  0.59854  0.02863  0.84875  1.0000
  H   H13       1.0  0.28398  0.44508  0.74387  1.0000
  H   H14       1.0  0.52732  0.94524  0.24400  1.0000
  H   H15       1.0  0.71602  0.55494  0.25612  1.0000
  H   H16       1.0  0.47269  0.05473  0.75600  1.0000
  H   H17       1.0  0.07169  0.41081  0.64280  1.0000
  H   H18       1.0  0.87467  0.91129  0.14297  1.0000
  H   H19       1.0  0.92829  0.58920  0.35719  1.0000
  H   H20       1.0  0.12535  0.08869  0.85704  1.0000
  H   H21       1.0  0.34414  0.25588  0.61008  1.0000
  H   H22       1.0  0.79009  0.75593  0.11029  1.0000
  H   H23       1.0  0.65585  0.74413  0.38992  1.0000
  H   H24       1.0  0.20992  0.24406  0.88972  1.0000
  C   C1        1.0  0.98247  0.00612  0.45352  1.0000
  C   C2        1.0  0.55774  0.50608  0.95351  1.0000
  C   C3        1.0  0.01753  0.99387  0.54648  1.0000
  C   C4        1.0  0.44227  0.49391  0.04651  1.0000
  C   C5        1.0  0.14967  0.74145  0.66906  1.0000
  C   C6        1.0  0.44003  0.24148  0.16914  1.0000
  C   C7        1.0  0.85030  0.25857  0.33093  1.0000
  C   C8        1.0  0.55998  0.75851  0.83086  1.0000
  C   C9        1.0  0.29712  0.50632  0.67572  1.0000
  C   C10       1.0  0.52108  0.00630  0.17580  1.0000
  C   C11       1.0  0.70284  0.49371  0.32428  1.0000
  C   C12       1.0  0.47893  0.99370  0.82421  1.0000
  C   C13       1.0  0.35687  0.20435  0.41143  1.0000
  C   C14       1.0  0.02669  0.70433  0.91143  1.0000
  C   C15       1.0  0.64314  0.79565  0.58857  1.0000
  C   C16       1.0  0.97334  0.29567  0.08857  1.0000
  N   N1        1.0  0.88264  0.19777  0.42116  1.0000
  N   N2        1.0  0.49827  0.69770  0.92109  1.0000
  N   N3        1.0  0.11735  0.80224  0.57884  1.0000
  N   N4        1.0  0.50174  0.30229  0.07891  1.0000
  N   N5        1.0  0.22833  0.40766  0.61931  1.0000
  N   N6        1.0  0.74484  0.90781  0.11942  1.0000
  N   N7        1.0  0.77165  0.59235  0.38068  1.0000
  N   N8        1.0  0.25518  0.09217  0.88058  1.0000
  N   N9        1.0  0.73534  0.61548  0.57404  1.0000
  N   N10       1.0  0.07559  0.11560  0.07393  1.0000
  N   N11       1.0  0.26466  0.38452  0.42595  1.0000
  N   N12       1.0  0.92439  0.88444  0.92607  1.0000
  O   O1        1.0  0.04790  0.83824  0.41653  1.0000
  O   O2        1.0  0.69683  0.33810  0.91656  1.0000
  O   O3        1.0  0.95208  0.16178  0.58347  1.0000
  O   O4        1.0  0.30318  0.66189  0.08346  1.0000
  O   O5        1.0  0.44408  0.02623  0.39201  1.0000
  O   O6        1.0  0.13704  0.52624  0.89193  1.0000
  O   O7        1.0  0.55592  0.97377  0.60799  1.0000
  O   O8        1.0  0.86296  0.47376  0.10807  1.0000
