data_image0
_chemical_formula_structural       Ni4H62C30N12Cl6
_chemical_formula_sum              "Ni4 H62 C30 N12 Cl6"
_cell_length_a       11.0825
_cell_length_b       11.0845
_cell_length_c       11.8469
_cell_angle_alpha    107.995
_cell_angle_beta     110.979
_cell_angle_gamma    106.616

_space_group_name_H-M_alt    "P 1"
_space_group_IT_number       1

loop_
  _space_group_symop_operation_xyz
  'x, y, z'

loop_
  _atom_site_type_symbol
  _atom_site_label
  _atom_site_symmetry_multiplicity
  _atom_site_fract_x
  _atom_site_fract_y
  _atom_site_fract_z
  _atom_site_occupancy
  Ni  Ni1       1.0  0.01128  0.55821  0.17244  1.0000
  Ni  Ni2       1.0  0.11426  0.16109  0.67229  1.0000
  Ni  Ni3       1.0  0.98871  0.44179  0.82756  1.0000
  Ni  Ni4       1.0  0.88574  0.83891  0.32771  1.0000
  H   H1        1.0  0.75971  0.20133  0.15189  1.0000
  H   H2        1.0  0.45055  0.39211  0.65160  1.0000
  H   H3        1.0  0.24029  0.79867  0.84810  1.0000
  H   H4        1.0  0.54945  0.60789  0.34841  1.0000
  H   H5        1.0  0.72779  0.24759  0.01599  1.0000
  H   H6        1.0  0.26875  0.28802  0.51554  1.0000
  H   H7        1.0  0.27221  0.75241  0.98401  1.0000
  H   H8        1.0  0.73126  0.71198  0.48447  1.0000
  H   H9        1.0  0.04345  0.26700  0.29715  1.0000
  H   H10       1.0  0.53024  0.25392  0.79697  1.0000
  H   H11       1.0  0.95655  0.73300  0.70285  1.0000
  H   H12       1.0  0.46977  0.74609  0.20303  1.0000
  H   H13       1.0  0.98872  0.39481  0.36073  1.0000
  H   H14       1.0  0.46580  0.37209  0.86044  1.0000
  H   H15       1.0  0.01128  0.60519  0.63926  1.0000
  H   H16       1.0  0.53421  0.62792  0.13956  1.0000
  H   H17       1.0  0.25897  0.49487  0.46120  1.0000
  H   H18       1.0  0.46649  0.20257  0.96139  1.0000
  H   H19       1.0  0.74103  0.50513  0.53879  1.0000
  H   H20       1.0  0.53352  0.79743  0.03861  1.0000
  H   H21       1.0  0.23652  0.45611  0.29486  1.0000
  H   H22       1.0  0.33934  0.05871  0.79517  1.0000
  H   H23       1.0  0.76348  0.54390  0.70514  1.0000
  H   H24       1.0  0.66067  0.94129  0.20483  1.0000
  H   H25       1.0  0.07677  0.28406  0.08440  1.0000
  H   H26       1.0  0.30065  0.00781  0.58466  1.0000
  H   H27       1.0  0.92323  0.71594  0.91559  1.0000
  H   H28       1.0  0.69935  0.99218  0.41534  1.0000
  H   H29       1.0  0.90122  0.23327  0.95812  1.0000
  H   H30       1.0  0.22512  0.05693  0.45815  1.0000
  H   H31       1.0  0.09878  0.76674  0.04187  1.0000
  H   H32       1.0  0.77489  0.94307  0.54185  1.0000
  H   H33       1.0  0.92776  0.13674  0.05471  1.0000
  H   H34       1.0  0.41814  0.12688  0.55458  1.0000
  H   H35       1.0  0.07223  0.86326  0.94528  1.0000
  H   H36       1.0  0.58186  0.87311  0.44543  1.0000
  H   H37       1.0  0.14338  0.77469  0.48299  1.0000
  H   H38       1.0  0.20796  0.33951  0.98257  1.0000
  H   H39       1.0  0.85662  0.22531  0.51700  1.0000
  H   H40       1.0  0.79204  0.66049  0.01742  1.0000
  H   H41       1.0  0.23415  0.70041  0.58001  1.0000
  H   H42       1.0  0.37913  0.34586  0.07988  1.0000
  H   H43       1.0  0.76585  0.29959  0.41999  1.0000
  H   H44       1.0  0.62087  0.65415  0.92012  1.0000
  H   H45       1.0  0.04533  0.60446  0.45891  1.0000
  H   H46       1.0  0.35422  0.41346  0.95852  1.0000
  H   H47       1.0  0.95467  0.39554  0.54108  1.0000
  H   H48       1.0  0.64578  0.58654  0.04148  1.0000
  H   H49       1.0  0.35373  0.67794  0.33004  1.0000
  H   H50       1.0  0.15255  0.97655  0.83046  1.0000
  H   H51       1.0  0.64626  0.32206  0.66996  1.0000
  H   H52       1.0  0.84746  0.02345  0.16954  1.0000
  H   H53       1.0  0.40903  0.74723  0.50877  1.0000
  H   H54       1.0  0.26185  0.09995  0.00913  1.0000
  H   H55       1.0  0.59096  0.25277  0.49123  1.0000
  H   H56       1.0  0.73816  0.90005  0.99087  1.0000
  H   H57       1.0  0.31740  0.81813  0.40807  1.0000
  H   H58       1.0  0.09026  0.09080  0.90845  1.0000
  H   H59       1.0  0.68260  0.18188  0.59193  1.0000
  H   H60       1.0  0.90975  0.90920  0.09154  1.0000
  H   H61       1.0  0.59320  0.34341  0.25025  1.0000
  H   H62       1.0  0.40680  0.65658  0.74975  1.0000
  C   C1        1.0  0.77014  0.41056  0.19971  1.0000
  C   C2        1.0  0.28882  0.42924  0.69902  1.0000
  C   C3        1.0  0.22986  0.58943  0.80029  1.0000
  C   C4        1.0  0.71118  0.57075  0.30098  1.0000
  C   C5        1.0  0.79219  0.28920  0.12679  1.0000
  C   C6        1.0  0.33758  0.33444  0.62638  1.0000
  C   C7        1.0  0.20781  0.71080  0.87321  1.0000
  C   C8        1.0  0.66242  0.66556  0.37363  1.0000
  C   C9        1.0  0.03856  0.36544  0.29846  1.0000
  C   C10       1.0  0.43309  0.26005  0.79835  1.0000
  C   C11       1.0  0.96144  0.63456  0.70153  1.0000
  C   C12       1.0  0.56691  0.73996  0.20166  1.0000
  C   C13       1.0  0.18879  0.48238  0.36033  1.0000
  C   C14       1.0  0.37822  0.17180  0.86046  1.0000
  C   C15       1.0  0.81121  0.51762  0.63967  1.0000
  C   C16       1.0  0.62179  0.82821  0.13955  1.0000
  C   C17       1.0  0.67528  0.42535  0.25031  1.0000
  C   C18       1.0  0.32472  0.57465  0.74969  1.0000
  C   C19       1.0  0.96301  0.24227  0.05838  1.0000
  C   C20       1.0  0.31635  0.09543  0.55840  1.0000
  C   C21       1.0  0.03699  0.75773  0.94161  1.0000
  C   C22       1.0  0.68365  0.90457  0.44160  1.0000
  C   C23       1.0  0.15014  0.67749  0.48020  1.0000
  C   C24       1.0  0.30247  0.33003  0.97996  1.0000
  C   C25       1.0  0.84985  0.32251  0.51980  1.0000
  C   C26       1.0  0.69753  0.66997  0.02004  1.0000
  C   C27       1.0  0.32507  0.72149  0.40743  1.0000
  C   C28       1.0  0.18626  0.08254  0.90774  1.0000
  C   C29       1.0  0.67492  0.27851  0.59257  1.0000
  C   C30       1.0  0.81375  0.91746  0.09226  1.0000
  N   N1        1.0  0.85480  0.53870  0.21958  1.0000
  N   N2        1.0  0.18046  0.36452  0.71886  1.0000
  N   N3        1.0  0.14520  0.46130  0.78043  1.0000
  N   N4        1.0  0.81954  0.63549  0.28115  1.0000
  N   N5        1.0  0.94561  0.34113  0.15963  1.0000
  N   N6        1.0  0.31862  0.21405  0.65950  1.0000
  N   N7        1.0  0.05439  0.65888  0.84037  1.0000
  N   N8        1.0  0.68138  0.78595  0.34051  1.0000
  N   N9        1.0  0.18395  0.61753  0.37278  1.0000
  N   N10       1.0  0.25536  0.18888  0.87279  1.0000
  N   N11       1.0  0.81605  0.38247  0.62722  1.0000
  N   N12       1.0  0.74464  0.81112  0.12721  1.0000
  Cl  Cl1       1.0  0.06125  0.81137  0.24997  1.0000
  Cl  Cl2       1.0  0.93875  0.18863  0.75003  1.0000
  Cl  Cl3       1.0  0.16817  0.55563  0.07904  1.0000
  Cl  Cl4       1.0  0.02353  0.91101  0.57925  1.0000
  Cl  Cl5       1.0  0.83183  0.44437  0.92096  1.0000
  Cl  Cl6       1.0  0.97647  0.08899  0.42075  1.0000
