data_image0
_chemical_formula_structural       Cu2H28C30S2N4O8F6
_chemical_formula_sum              "Cu2 H28 C30 S2 N4 O8 F6"
_cell_length_a       7.91322
_cell_length_b       9.12022
_cell_length_c       11.1252
_cell_angle_alpha    88.4728
_cell_angle_beta     83.3907
_cell_angle_gamma    83.6362

_space_group_name_H-M_alt    "P 1"
_space_group_IT_number       1

loop_
  _space_group_symop_operation_xyz
  'x, y, z'

loop_
  _atom_site_type_symbol
  _atom_site_label
  _atom_site_symmetry_multiplicity
  _atom_site_fract_x
  _atom_site_fract_y
  _atom_site_fract_z
  _atom_site_occupancy
  Cu  Cu1       1.0  0.61620  0.48502  0.09879  1.0000
  Cu  Cu2       1.0  0.38379  0.51498  0.90121  1.0000
  H   H1        1.0  0.91882  0.35839  0.08267  1.0000
  H   H2        1.0  0.08118  0.64161  0.91733  1.0000
  H   H3        1.0  0.81186  0.27514  0.19315  1.0000
  H   H4        1.0  0.18814  0.72486  0.80685  1.0000
  H   H5        1.0  0.69611  0.78267  0.07569  1.0000
  H   H6        1.0  0.30388  0.21734  0.92431  1.0000
  H   H7        1.0  0.83136  0.95780  0.19545  1.0000
  H   H8        1.0  0.16863  0.04221  0.80454  1.0000
  H   H9        1.0  0.84372  0.62783  0.48090  1.0000
  H   H10       1.0  0.15628  0.37217  0.51910  1.0000
  H   H11       1.0  0.71673  0.46492  0.34806  1.0000
  H   H12       1.0  0.28327  0.53508  0.65194  1.0000
  H   H13       1.0  0.13066  0.65644  0.36128  1.0000
  H   H14       1.0  0.86934  0.34357  0.63872  1.0000
  H   H15       1.0  0.41179  0.57966  0.42277  1.0000
  H   H16       1.0  0.58821  0.42034  0.57723  1.0000
  H   H17       1.0  0.54065  0.73756  0.56329  1.0000
  H   H18       1.0  0.45935  0.26244  0.43671  1.0000
  H   H19       1.0  0.38994  0.97503  0.62917  1.0000
  H   H20       1.0  0.61006  0.02497  0.37083  1.0000
  H   H21       1.0  0.68925  0.12742  0.07355  1.0000
  H   H22       1.0  0.31075  0.87258  0.92645  1.0000
  H   H23       1.0  0.89671  0.13359  0.99171  1.0000
  H   H24       1.0  0.10329  0.86642  0.00829  1.0000
  H   H25       1.0  0.77947  0.33360  0.85927  1.0000
  H   H26       1.0  0.22053  0.66640  0.14073  1.0000
  H   H27       1.0  0.64443  0.18894  0.86360  1.0000
  H   H28       1.0  0.35557  0.81106  0.13639  1.0000
  C   C1        1.0  0.73078  0.75452  0.16596  1.0000
  C   C2        1.0  0.26922  0.24548  0.83404  1.0000
  C   C3        1.0  0.25875  0.14333  0.20101  1.0000
  C   C4        1.0  0.74124  0.85666  0.79899  1.0000
  C   C5        1.0  0.80478  0.85047  0.23346  1.0000
  C   C6        1.0  0.19522  0.14953  0.76654  1.0000
  C   C7        1.0  0.84691  0.80820  0.34955  1.0000
  C   C8        1.0  0.15309  0.19180  0.65045  1.0000
  C   C9        1.0  0.81327  0.66680  0.39155  1.0000
  C   C10       1.0  0.18673  0.33320  0.60845  1.0000
  C   C11       1.0  0.74140  0.57595  0.31812  1.0000
  C   C12       1.0  0.25860  0.42406  0.68188  1.0000
  C   C13       1.0  0.92524  0.90742  0.42481  1.0000
  C   C14       1.0  0.07476  0.09258  0.57519  1.0000
  C   C15       1.0  0.08725  0.86085  0.46282  1.0000
  C   C16       1.0  0.91275  0.13915  0.53718  1.0000
  C   C17       1.0  0.18363  0.72621  0.42193  1.0000
  C   C18       1.0  0.81638  0.27379  0.57806  1.0000
  C   C19       1.0  0.34239  0.68288  0.45684  1.0000
  C   C20       1.0  0.65762  0.31712  0.54315  1.0000
  C   C21       1.0  0.41511  0.77246  0.53496  1.0000
  C   C22       1.0  0.58488  0.22753  0.46504  1.0000
  C   C23       1.0  0.32856  0.90464  0.57408  1.0000
  C   C24       1.0  0.67145  0.09535  0.42593  1.0000
  C   C25       1.0  0.83726  0.04592  0.45987  1.0000
  C   C26       1.0  0.16274  0.95407  0.54014  1.0000
  C   C27       1.0  0.77558  0.19969  0.02358  1.0000
  C   C28       1.0  0.22442  0.80032  0.97642  1.0000
  C   C29       1.0  0.68852  0.27289  0.91863  1.0000
  C   C30       1.0  0.31148  0.72711  0.08137  1.0000
  S   S1        1.0  0.21211  0.34805  0.21655  1.0000
  S   S2        1.0  0.78791  0.65194  0.78346  1.0000
  N   N1        1.0  0.80356  0.31694  0.10749  1.0000
  N   N2        1.0  0.19644  0.68306  0.89251  1.0000
  N   N3        1.0  0.69932  0.61887  0.20778  1.0000
  N   N4        1.0  0.30067  0.38113  0.79222  1.0000
  O   O1        1.0  0.54797  0.36879  0.97131  1.0000
  O   O2        1.0  0.45203  0.63121  0.02869  1.0000
  O   O3        1.0  0.37468  0.39425  0.24286  1.0000
  O   O4        1.0  0.62534  0.60573  0.75713  1.0000
  O   O5        1.0  0.07533  0.36203  0.31630  1.0000
  O   O6        1.0  0.92469  0.63798  0.68370  1.0000
  O   O7        1.0  0.15927  0.39498  0.09815  1.0000
  O   O8        1.0  0.84075  0.60503  0.90185  1.0000
  F   F1        1.0  0.11452  0.08223  0.18064  1.0000
  F   F2        1.0  0.88547  0.91776  0.81936  1.0000
  F   F3        1.0  0.38000  0.10431  0.10672  1.0000
  F   F4        1.0  0.61998  0.89568  0.89328  1.0000
  F   F5        1.0  0.31513  0.07971  0.30248  1.0000
  F   F6        1.0  0.68486  0.92027  0.69752  1.0000
