data_image0
_chemical_formula_structural       Sr3H33C33N3O15
_chemical_formula_sum              "Sr3 H33 C33 N3 O15"
_cell_length_a       9.79766
_cell_length_b       10.6112
_cell_length_c       10.611
_cell_angle_alpha    119.993
_cell_angle_beta     90.0032
_cell_angle_gamma    90.0064

_space_group_name_H-M_alt    "P 1"
_space_group_IT_number       1

loop_
  _space_group_symop_operation_xyz
  'x, y, z'

loop_
  _atom_site_type_symbol
  _atom_site_label
  _atom_site_symmetry_multiplicity
  _atom_site_fract_x
  _atom_site_fract_y
  _atom_site_fract_z
  _atom_site_occupancy
  Sr  Sr1       1.0  0.83192  0.09870  0.12218  1.0000
  Sr  Sr2       1.0  0.16522  0.87778  0.97643  1.0000
  Sr  Sr3       1.0  0.49860  0.02345  0.90126  1.0000
  H   H1        1.0  0.11317  0.85622  0.65896  1.0000
  H   H2        1.0  0.44653  0.34116  0.19700  1.0000
  H   H3        1.0  0.77973  0.80292  0.14401  1.0000
  H   H4        1.0  0.18818  0.84092  0.42780  1.0000
  H   H5        1.0  0.52149  0.57245  0.41263  1.0000
  H   H6        1.0  0.85486  0.58727  0.15957  1.0000
  H   H7        1.0  0.80043  0.00753  0.38954  1.0000
  H   H8        1.0  0.13408  0.61027  0.61788  1.0000
  H   H9        1.0  0.46739  0.38193  0.99247  1.0000
  H   H10       1.0  0.72243  0.01889  0.62064  1.0000
  H   H11       1.0  0.05605  0.37914  0.39826  1.0000
  H   H12       1.0  0.38919  0.60162  0.98118  1.0000
  H   H13       1.0  0.90062  0.61603  0.53023  1.0000
  H   H14       1.0  0.23441  0.46951  0.08548  1.0000
  H   H15       1.0  0.56698  0.91427  0.38414  1.0000
  H   H16       1.0  0.72176  0.64446  0.52644  1.0000
  H   H17       1.0  0.05568  0.47358  0.11826  1.0000
  H   H18       1.0  0.38814  0.88193  0.35558  1.0000
  H   H19       1.0  0.80068  0.48172  0.38360  1.0000
  H   H20       1.0  0.13462  0.61633  0.09815  1.0000
  H   H21       1.0  0.46701  0.90198  0.51844  1.0000
  H   H22       1.0  0.73111  0.51445  0.78860  1.0000
  H   H23       1.0  0.06402  0.21153  0.72603  1.0000
  H   H24       1.0  0.39743  0.27403  0.48533  1.0000
  H   H25       1.0  0.66619  0.65435  0.75707  1.0000
  H   H26       1.0  0.99915  0.24320  0.89752  1.0000
  H   H27       1.0  0.33259  0.10255  0.34548  1.0000
  H   H28       1.0  0.84415  0.64768  0.79033  1.0000
  H   H29       1.0  0.17705  0.20950  0.85741  1.0000
  H   H30       1.0  0.51053  0.14252  0.35224  1.0000
  H   H31       1.0  0.74323  0.30536  0.59735  1.0000
  H   H32       1.0  0.07616  0.40271  0.70820  1.0000
  H   H33       1.0  0.40959  0.29202  0.69456  1.0000
  C   C1        1.0  0.86886  0.94939  0.79409  1.0000
  C   C2        1.0  0.20230  0.20586  0.15516  1.0000
  C   C3        1.0  0.53544  0.84472  0.05069  1.0000
  C   C4        1.0  0.91223  0.93704  0.65303  1.0000
  C   C5        1.0  0.24571  0.34692  0.28387  1.0000
  C   C6        1.0  0.57889  0.71605  0.06310  1.0000
  C   C7        1.0  0.04353  0.88714  0.59904  1.0000
  C   C8        1.0  0.37692  0.40104  0.28781  1.0000
  C   C9        1.0  0.71016  0.71210  0.11315  1.0000
  C   C10       1.0  0.08638  0.88009  0.47082  1.0000
  C   C11       1.0  0.41981  0.52930  0.40891  1.0000
  C   C12       1.0  0.75312  0.59100  0.12025  1.0000
  C   C13       1.0  0.99924  0.92301  0.39452  1.0000
  C   C14       1.0  0.33277  0.60545  0.52826  1.0000
  C   C15       1.0  0.66607  0.47164  0.07715  1.0000
  C   C16       1.0  0.04870  0.91310  0.25599  1.0000
  C   C17       1.0  0.38227  0.74388  0.65696  1.0000
  C   C18       1.0  0.71563  0.34297  0.08693  1.0000
  C   C19       1.0  0.86744  0.97287  0.44853  1.0000
  C   C20       1.0  0.20100  0.55138  0.52418  1.0000
  C   C21       1.0  0.53427  0.47570  0.02725  1.0000
  C   C22       1.0  0.82422  0.97994  0.57698  1.0000
  C   C23       1.0  0.15777  0.42291  0.40286  1.0000
  C   C24       1.0  0.49096  0.59704  0.02018  1.0000
  C   C25       1.0  0.80082  0.56147  0.50009  1.0000
  C   C26       1.0  0.13458  0.49982  0.06136  1.0000
  C   C27       1.0  0.46716  0.93862  0.43862  1.0000
  C   C28       1.0  0.75281  0.58147  0.73897  1.0000
  C   C29       1.0  0.08583  0.26109  0.84265  1.0000
  C   C30       1.0  0.41918  0.15739  0.41841  1.0000
  C   C31       1.0  0.76565  0.34363  0.51963  1.0000
  C   C32       1.0  0.09895  0.48039  0.82409  1.0000
  C   C33       1.0  0.43199  0.17603  0.65636  1.0000
  N   N1        1.0  0.77428  0.48843  0.58299  1.0000
  N   N2        1.0  0.10764  0.41702  0.90551  1.0000
  N   N3        1.0  0.44060  0.09454  0.51157  1.0000
  O   O1        1.0  0.95428  0.91717  0.86489  1.0000
  O   O2        1.0  0.28773  0.13510  0.05218  1.0000
  O   O3        1.0  0.62091  0.94769  0.08279  1.0000
  O   O4        1.0  0.74991  0.99658  0.84232  1.0000
  O   O5        1.0  0.08337  0.15755  0.15416  1.0000
  O   O6        1.0  0.41645  0.84573  0.00360  1.0000
  O   O7        1.0  0.17516  0.89270  0.22614  1.0000
  O   O8        1.0  0.50875  0.77363  0.66649  1.0000
  O   O9        1.0  0.84213  0.33352  0.10722  1.0000
  O   O10       1.0  0.96084  0.92223  0.17129  1.0000
  O   O11       1.0  0.29445  0.82854  0.75089  1.0000
  O   O12       1.0  0.62781  0.24902  0.07771  1.0000
  O   O13       1.0  0.78089  0.25515  0.38702  1.0000
  O   O14       1.0  0.11430  0.61300  0.86816  1.0000
  O   O15       1.0  0.44722  0.13197  0.74493  1.0000
