data_image0
_chemical_formula_structural       La4H36C44N4O32
_chemical_formula_sum              "La4 H36 C44 N4 O32"
_cell_length_a       6.91614
_cell_length_b       13.6236
_cell_length_c       14.2645
_cell_angle_alpha    112.712
_cell_angle_beta     89.9999
_cell_angle_gamma    90.0002

_space_group_name_H-M_alt    "P 1"
_space_group_IT_number       1

loop_
  _space_group_symop_operation_xyz
  'x, y, z'

loop_
  _atom_site_type_symbol
  _atom_site_label
  _atom_site_symmetry_multiplicity
  _atom_site_fract_x
  _atom_site_fract_y
  _atom_site_fract_z
  _atom_site_occupancy
  La  La1       1.0  0.42073  0.53496  0.36704  1.0000
  La  La2       1.0  0.92075  0.96504  0.63296  1.0000
  La  La3       1.0  0.57928  0.46504  0.63296  1.0000
  La  La4       1.0  0.07927  0.03496  0.36704  1.0000
  H   H1        1.0  0.11599  0.19661  0.12000  1.0000
  H   H2        1.0  0.61600  0.30340  0.88000  1.0000
  H   H3        1.0  0.88400  0.80340  0.88000  1.0000
  H   H4        1.0  0.38401  0.69660  0.12000  1.0000
  H   H5        1.0  0.83813  0.22906  0.02123  1.0000
  H   H6        1.0  0.33813  0.27095  0.97877  1.0000
  H   H7        1.0  0.16188  0.77095  0.97877  1.0000
  H   H8        1.0  0.66188  0.72905  0.02123  1.0000
  H   H9        1.0  0.57169  0.35186  0.11796  1.0000
  H   H10       1.0  0.07170  0.14815  0.88205  1.0000
  H   H11       1.0  0.42831  0.64815  0.88204  1.0000
  H   H12       1.0  0.92831  0.85185  0.11795  1.0000
  H   H13       1.0  0.79844  0.53690  0.15458  1.0000
  H   H14       1.0  0.29844  0.96310  0.84542  1.0000
  H   H15       1.0  0.20156  0.46310  0.84542  1.0000
  H   H16       1.0  0.70156  0.03690  0.15458  1.0000
  H   H17       1.0  0.35200  0.46873  0.00571  1.0000
  H   H18       1.0  0.85200  0.03127  0.99429  1.0000
  H   H19       1.0  0.64799  0.53128  0.99429  1.0000
  H   H20       1.0  0.14799  0.96872  0.00571  1.0000
  H   H21       1.0  0.86496  0.57497  0.30859  1.0000
  H   H22       1.0  0.36497  0.92503  0.69141  1.0000
  H   H23       1.0  0.13503  0.42503  0.69141  1.0000
  H   H24       1.0  0.63502  0.07497  0.30859  1.0000
  H   H25       1.0  0.79372  0.68397  0.38724  1.0000
  H   H26       1.0  0.29373  0.81603  0.61275  1.0000
  H   H27       1.0  0.20627  0.31603  0.61276  1.0000
  H   H28       1.0  0.70627  0.18397  0.38724  1.0000
  H   H29       1.0  0.52949  0.77131  0.50870  1.0000
  H   H30       1.0  0.02948  0.72869  0.49130  1.0000
  H   H31       1.0  0.47051  0.22869  0.49130  1.0000
  H   H32       1.0  0.97053  0.27131  0.50871  1.0000
  H   H33       1.0  0.56612  0.70158  0.57608  1.0000
  H   H34       1.0  0.06612  0.79841  0.42391  1.0000
  H   H35       1.0  0.43387  0.29842  0.42392  1.0000
  H   H36       1.0  0.93389  0.20158  0.57608  1.0000
  C   C1        1.0  0.83476  0.36031  0.31197  1.0000
  C   C2        1.0  0.33477  0.13969  0.68803  1.0000
  C   C3        1.0  0.16523  0.63969  0.68803  1.0000
  C   C4        1.0  0.66524  0.86030  0.31196  1.0000
  C   C5        1.0  0.99310  0.29630  0.26470  1.0000
  C   C6        1.0  0.49311  0.20370  0.73529  1.0000
  C   C7        1.0  0.00689  0.70370  0.73530  1.0000
  C   C8        1.0  0.50690  0.79630  0.26470  1.0000
  C   C9        1.0  0.99523  0.24780  0.15855  1.0000
  C   C10       1.0  0.49524  0.25221  0.84144  1.0000
  C   C11       1.0  0.00476  0.75220  0.84145  1.0000
  C   C12       1.0  0.50477  0.74779  0.15855  1.0000
  C   C13       1.0  0.84238  0.26572  0.10397  1.0000
  C   C14       1.0  0.34240  0.23429  0.89603  1.0000
  C   C15       1.0  0.15761  0.73429  0.89603  1.0000
  C   C16       1.0  0.65762  0.76571  0.10396  1.0000
  C   C17       1.0  0.69262  0.33285  0.15697  1.0000
  C   C18       1.0  0.19264  0.16715  0.84303  1.0000
  C   C19       1.0  0.30737  0.66715  0.84303  1.0000
  C   C20       1.0  0.80738  0.83284  0.15697  1.0000
  C   C21       1.0  0.81190  0.40910  0.42560  1.0000
  C   C22       1.0  0.31191  0.09090  0.57440  1.0000
  C   C23       1.0  0.18809  0.59090  0.57440  1.0000
  C   C24       1.0  0.68809  0.90909  0.42560  1.0000
  C   C25       1.0  0.16356  0.28102  0.32281  1.0000
  C   C26       1.0  0.66356  0.21898  0.67719  1.0000
  C   C27       1.0  0.83643  0.71898  0.67720  1.0000
  C   C28       1.0  0.33643  0.78102  0.32280  1.0000
  C   C29       1.0  0.88689  0.52010  0.08707  1.0000
  C   C30       1.0  0.38689  0.97990  0.91293  1.0000
  C   C31       1.0  0.11311  0.47990  0.91293  1.0000
  C   C32       1.0  0.61310  0.02010  0.08707  1.0000
  C   C33       1.0  0.08586  0.50185  0.08975  1.0000
  C   C34       1.0  0.58586  0.99815  0.91025  1.0000
  C   C35       1.0  0.91414  0.49815  0.91025  1.0000
  C   C36       1.0  0.41413  0.00185  0.08975  1.0000
  C   C37       1.0  0.19757  0.48249  0.00228  1.0000
  C   C38       1.0  0.69756  0.01751  0.99772  1.0000
  C   C39       1.0  0.80243  0.51751  0.99771  1.0000
  C   C40       1.0  0.30243  0.98249  0.00229  1.0000
  C   C41       1.0  0.18186  0.49998  0.18298  1.0000
  C   C42       1.0  0.68186  0.00002  0.81702  1.0000
  C   C43       1.0  0.81815  0.50002  0.81702  1.0000
  C   C44       1.0  0.31814  0.99998  0.18298  1.0000
  N   N1        1.0  0.68905  0.37957  0.25853  1.0000
  N   N2        1.0  0.18906  0.12043  0.74147  1.0000
  N   N3        1.0  0.31095  0.62042  0.74147  1.0000
  N   N4        1.0  0.81096  0.87957  0.25853  1.0000
  O   O1        1.0  0.67212  0.47558  0.45971  1.0000
  O   O2        1.0  0.17213  0.02442  0.54029  1.0000
  O   O3        1.0  0.32787  0.52441  0.54029  1.0000
  O   O4        1.0  0.82788  0.97558  0.45971  1.0000
  O   O5        1.0  0.17047  0.19852  0.34238  1.0000
  O   O6        1.0  0.67047  0.30148  0.65762  1.0000
  O   O7        1.0  0.82952  0.80148  0.65763  1.0000
  O   O8        1.0  0.32951  0.69853  0.34238  1.0000
  O   O9        1.0  0.29901  0.34944  0.34389  1.0000
  O   O10       1.0  0.79901  0.15056  0.65611  1.0000
  O   O11       1.0  0.70099  0.65056  0.65612  1.0000
  O   O12       1.0  0.20099  0.84944  0.34388  1.0000
  O   O13       1.0  0.36315  0.47942  0.17843  1.0000
  O   O14       1.0  0.86315  0.02058  0.82157  1.0000
  O   O15       1.0  0.63685  0.52058  0.82156  1.0000
  O   O16       1.0  0.13684  0.97942  0.17843  1.0000
  O   O17       1.0  0.74445  0.61578  0.33767  1.0000
  O   O18       1.0  0.24446  0.88422  0.66233  1.0000
  O   O19       1.0  0.25554  0.38422  0.66234  1.0000
  O   O20       1.0  0.75553  0.11577  0.33767  1.0000
  O   O21       1.0  0.47727  0.71255  0.52612  1.0000
  O   O22       1.0  0.97727  0.78745  0.47388  1.0000
  O   O23       1.0  0.52274  0.28745  0.47388  1.0000
  O   O24       1.0  0.02274  0.21255  0.52612  1.0000
  O   O25       1.0  0.08600  0.51845  0.26456  1.0000
  O   O26       1.0  0.58601  0.98156  0.73544  1.0000
  O   O27       1.0  0.91400  0.48155  0.73544  1.0000
  O   O28       1.0  0.41400  0.01845  0.26456  1.0000
  O   O29       1.0  0.08324  0.61842  0.51675  1.0000
  O   O30       1.0  0.58323  0.88157  0.48324  1.0000
  O   O31       1.0  0.91676  0.38157  0.48325  1.0000
  O   O32       1.0  0.41677  0.11843  0.51675  1.0000
