data_image0
_chemical_formula_structural       H28Pb2C32O8
_chemical_formula_sum              "H28 Pb2 C32 O8"
_cell_length_a       8.04721
_cell_length_b       10.137
_cell_length_c       10.1379
_cell_angle_alpha    61.352
_cell_angle_beta     76.725
_cell_angle_gamma    76.7261

_space_group_name_H-M_alt    "P 1"
_space_group_IT_number       1

loop_
  _space_group_symop_operation_xyz
  'x, y, z'

loop_
  _atom_site_type_symbol
  _atom_site_label
  _atom_site_symmetry_multiplicity
  _atom_site_fract_x
  _atom_site_fract_y
  _atom_site_fract_z
  _atom_site_occupancy
  H   H1        1.0  0.39724  0.39876  0.04747  1.0000
  H   H2        1.0  0.10277  0.95249  0.60126  1.0000
  H   H3        1.0  0.60276  0.60125  0.95251  1.0000
  H   H4        1.0  0.89723  0.04751  0.39874  1.0000
  H   H5        1.0  0.19598  0.61412  0.54682  1.0000
  H   H6        1.0  0.30400  0.45321  0.38587  1.0000
  H   H7        1.0  0.80400  0.38587  0.45317  1.0000
  H   H8        1.0  0.69599  0.54680  0.61412  1.0000
  H   H9        1.0  0.43898  0.39946  0.61651  1.0000
  H   H10       1.0  0.06102  0.38352  0.60053  1.0000
  H   H11       1.0  0.56102  0.60054  0.38348  1.0000
  H   H12       1.0  0.93897  0.61649  0.39946  1.0000
  H   H13       1.0  0.15402  0.54872  0.12539  1.0000
  H   H14       1.0  0.34602  0.87457  0.45131  1.0000
  H   H15       1.0  0.84598  0.45128  0.87460  1.0000
  H   H16       1.0  0.65402  0.12541  0.54874  1.0000
  H   H17       1.0  0.99169  0.65470  0.00916  1.0000
  H   H18       1.0  0.50832  0.99082  0.34533  1.0000
  H   H19       1.0  0.00831  0.34532  0.99083  1.0000
  H   H20       1.0  0.49169  0.00917  0.65469  1.0000
  H   H21       1.0  0.53860  0.29370  0.86728  1.0000
  H   H22       1.0  0.96143  0.13270  0.70631  1.0000
  H   H23       1.0  0.46142  0.70632  0.13270  1.0000
  H   H24       1.0  0.03856  0.86732  0.29368  1.0000
  H   H25       1.0  0.05258  0.71703  0.72924  1.0000
  H   H26       1.0  0.44740  0.27077  0.28297  1.0000
  H   H27       1.0  0.94741  0.28297  0.27074  1.0000
  H   H28       1.0  0.55260  0.72923  0.71703  1.0000
  Pb  Pb1       1.0  0.25003  0.07988  0.92014  1.0000
  Pb  Pb2       1.0  0.74999  0.92011  0.07987  1.0000
  C   C1        1.0  0.35403  0.44766  0.93710  1.0000
  C   C2        1.0  0.14599  0.06287  0.55237  1.0000
  C   C3        1.0  0.64598  0.55237  0.06287  1.0000
  C   C4        1.0  0.85401  0.93714  0.44763  1.0000
  C   C5        1.0  0.24201  0.56741  0.65584  1.0000
  C   C6        1.0  0.25798  0.34418  0.43259  1.0000
  C   C7        1.0  0.75799  0.43260  0.34414  1.0000
  C   C8        1.0  0.74201  0.65583  0.56740  1.0000
  C   C9        1.0  0.37770  0.44739  0.69484  1.0000
  C   C10       1.0  0.12230  0.30516  0.55262  1.0000
  C   C11       1.0  0.62229  0.55262  0.30515  1.0000
  C   C12       1.0  0.87769  0.69484  0.44737  1.0000
  C   C13       1.0  0.13205  0.63153  0.00855  1.0000
  C   C14       1.0  0.36797  0.99142  0.36850  1.0000
  C   C15       1.0  0.86795  0.36847  0.99144  1.0000
  C   C16       1.0  0.63205  0.00856  0.63153  1.0000
  C   C17       1.0  0.21826  0.56781  0.89910  1.0000
  C   C18       1.0  0.28175  0.10087  0.43222  1.0000
  C   C19       1.0  0.78174  0.43220  0.10089  1.0000
  C   C20       1.0  0.71826  0.89912  0.56779  1.0000
  C   C21       1.0  0.18971  0.77782  0.97742  1.0000
  C   C22       1.0  0.31029  0.02255  0.22223  1.0000
  C   C23       1.0  0.81028  0.22218  0.02260  1.0000
  C   C24       1.0  0.68972  0.97741  0.77781  1.0000
  C   C25       1.0  0.43357  0.38765  0.83588  1.0000
  C   C26       1.0  0.06643  0.16411  0.61236  1.0000
  C   C27       1.0  0.56642  0.61237  0.16411  1.0000
  C   C28       1.0  0.93357  0.83590  0.38763  1.0000
  C   C29       1.0  0.16222  0.62667  0.75754  1.0000
  C   C30       1.0  0.33776  0.24246  0.37333  1.0000
  C   C31       1.0  0.83777  0.37333  0.24245  1.0000
  C   C32       1.0  0.66223  0.75753  0.62666  1.0000
  O   O1        1.0  0.32224  0.82624  0.88570  1.0000
  O   O2        1.0  0.17777  0.11429  0.17383  1.0000
  O   O3        1.0  0.67774  0.17378  0.11430  1.0000
  O   O4        1.0  0.82225  0.88568  0.82621  1.0000
  O   O5        1.0  0.09696  0.84927  0.05250  1.0000
  O   O6        1.0  0.40304  0.94748  0.15075  1.0000
  O   O7        1.0  0.90305  0.15070  0.94755  1.0000
  O   O8        1.0  0.59697  0.05248  0.84928  1.0000
