data_image0
_chemical_formula_structural       Zn4H16C20Br4N28
_chemical_formula_sum              "Zn4 H16 C20 Br4 N28"
_cell_length_a       6.05221
_cell_length_b       7.6586
_cell_length_c       21.1636
_cell_angle_alpha    90
_cell_angle_beta     89.9998
_cell_angle_gamma    99.4888

_space_group_name_H-M_alt    "P 1"
_space_group_IT_number       1

loop_
  _space_group_symop_operation_xyz
  'x, y, z'

loop_
  _atom_site_type_symbol
  _atom_site_label
  _atom_site_symmetry_multiplicity
  _atom_site_fract_x
  _atom_site_fract_y
  _atom_site_fract_z
  _atom_site_occupancy
  Zn  Zn1       1.0  0.74111  0.93759  0.48147  1.0000
  Zn  Zn2       1.0  0.25889  0.56241  0.98147  1.0000
  Zn  Zn3       1.0  0.25889  0.06241  0.51853  1.0000
  Zn  Zn4       1.0  0.74110  0.43759  0.01853  1.0000
  H   H1        1.0  0.97173  0.85603  0.36270  1.0000
  H   H2        1.0  0.02828  0.64398  0.86270  1.0000
  H   H3        1.0  0.02826  0.14397  0.63730  1.0000
  H   H4        1.0  0.97174  0.35603  0.13729  1.0000
  H   H5        1.0  0.49753  0.47296  0.26104  1.0000
  H   H6        1.0  0.50247  0.02704  0.76104  1.0000
  H   H7        1.0  0.50246  0.52703  0.73896  1.0000
  H   H8        1.0  0.49754  0.97297  0.23896  1.0000
  H   H9        1.0  0.23302  0.47611  0.35222  1.0000
  H   H10       1.0  0.76698  0.02389  0.85222  1.0000
  H   H11       1.0  0.76699  0.52388  0.64779  1.0000
  H   H12       1.0  0.23301  0.97611  0.14778  1.0000
  H   H13       1.0  0.35276  0.67027  0.44495  1.0000
  H   H14       1.0  0.64725  0.82973  0.94496  1.0000
  H   H15       1.0  0.64727  0.32972  0.55504  1.0000
  H   H16       1.0  0.35275  0.17027  0.05504  1.0000
  C   C1        1.0  0.80953  0.77035  0.35877  1.0000
  C   C2        1.0  0.19047  0.72965  0.85877  1.0000
  C   C3        1.0  0.19049  0.22965  0.64123  1.0000
  C   C4        1.0  0.80951  0.27035  0.14122  1.0000
  C   C5        1.0  0.75349  0.66458  0.30561  1.0000
  C   C6        1.0  0.24652  0.83541  0.80561  1.0000
  C   C7        1.0  0.24655  0.33543  0.69440  1.0000
  C   C8        1.0  0.75348  0.16458  0.19439  1.0000
  C   C9        1.0  0.54533  0.55564  0.30221  1.0000
  C   C10       1.0  0.45467  0.94436  0.80221  1.0000
  C   C11       1.0  0.45468  0.44437  0.69780  1.0000
  C   C12       1.0  0.54532  0.05564  0.19779  1.0000
  C   C13       1.0  0.39827  0.55753  0.35284  1.0000
  C   C14       1.0  0.60172  0.94248  0.85283  1.0000
  C   C15       1.0  0.60172  0.44248  0.64718  1.0000
  C   C16       1.0  0.39827  0.05753  0.14717  1.0000
  C   C17       1.0  0.46315  0.66555  0.40451  1.0000
  C   C18       1.0  0.53684  0.83445  0.90450  1.0000
  C   C19       1.0  0.53686  0.33445  0.59550  1.0000
  C   C20       1.0  0.46314  0.16555  0.09549  1.0000
  Br  Br1       1.0  0.96671  0.66861  0.24009  1.0000
  Br  Br2       1.0  0.03328  0.83140  0.74009  1.0000
  Br  Br3       1.0  0.03329  0.33140  0.75991  1.0000
  Br  Br4       1.0  0.96670  0.16861  0.25991  1.0000
  N   N1        1.0  0.98211  0.15407  0.47358  1.0000
  N   N2        1.0  0.01789  0.34593  0.97357  1.0000
  N   N3        1.0  0.01789  0.84593  0.52643  1.0000
  N   N4        1.0  0.98211  0.65407  0.02642  1.0000
  N   N5        1.0  0.95570  0.29529  0.45150  1.0000
  N   N6        1.0  0.04429  0.20472  0.95150  1.0000
  N   N7        1.0  0.04430  0.70472  0.54850  1.0000
  N   N8        1.0  0.95569  0.79528  0.04850  1.0000
  N   N9        1.0  0.92978  0.42997  0.43045  1.0000
  N   N10       1.0  0.07022  0.07002  0.93044  1.0000
  N   N11       1.0  0.07023  0.57002  0.56955  1.0000
  N   N12       1.0  0.92977  0.92997  0.06956  1.0000
  N   N13       1.0  0.52113  0.89698  0.55323  1.0000
  N   N14       1.0  0.47886  0.60302  0.05323  1.0000
  N   N15       1.0  0.47887  0.10302  0.44677  1.0000
  N   N16       1.0  0.52113  0.39698  0.94677  1.0000
  N   N17       1.0  0.57859  0.88913  0.60777  1.0000
  N   N18       1.0  0.42141  0.61086  0.10777  1.0000
  N   N19       1.0  0.42141  0.11087  0.39223  1.0000
  N   N20       1.0  0.57859  0.38913  0.89223  1.0000
  N   N21       1.0  0.62870  0.88170  0.66056  1.0000
  N   N22       1.0  0.37129  0.61829  0.16056  1.0000
  N   N23       1.0  0.37129  0.11829  0.33944  1.0000
  N   N24       1.0  0.62870  0.38171  0.83944  1.0000
  N   N25       1.0  0.66566  0.77018  0.40716  1.0000
  N   N26       1.0  0.33433  0.72981  0.90715  1.0000
  N   N27       1.0  0.33434  0.22979  0.59283  1.0000
  N   N28       1.0  0.66565  0.27019  0.09283  1.0000
