data_image0
_chemical_formula_structural       Zn4H16C12N28
_chemical_formula_sum              "Zn4 H16 C12 N28"
_cell_length_a       6.16624
_cell_length_b       7.46102
_cell_length_c       15.5081
_cell_angle_alpha    90
_cell_angle_beta     89.9998
_cell_angle_gamma    102.117

_space_group_name_H-M_alt    "P 1"
_space_group_IT_number       1

loop_
  _space_group_symop_operation_xyz
  'x, y, z'

loop_
  _atom_site_type_symbol
  _atom_site_label
  _atom_site_symmetry_multiplicity
  _atom_site_fract_x
  _atom_site_fract_y
  _atom_site_fract_z
  _atom_site_occupancy
  Zn  Zn1       1.0  0.05964  0.12313  0.71550  1.0000
  Zn  Zn2       1.0  0.44037  0.87687  0.21549  1.0000
  Zn  Zn3       1.0  0.94037  0.87687  0.28451  1.0000
  Zn  Zn4       1.0  0.55963  0.12313  0.78450  1.0000
  H   H1        1.0  0.72445  0.88912  0.60977  1.0000
  H   H2        1.0  0.77555  0.11088  0.10977  1.0000
  H   H3        1.0  0.27554  0.11088  0.39023  1.0000
  H   H4        1.0  0.22446  0.88912  0.89023  1.0000
  H   H5        1.0  0.33914  0.38280  0.58280  1.0000
  H   H6        1.0  0.16086  0.61719  0.08280  1.0000
  H   H7        1.0  0.66086  0.61719  0.41720  1.0000
  H   H8        1.0  0.83914  0.38281  0.91720  1.0000
  H   H9        1.0  0.48905  0.31360  0.49446  1.0000
  H   H10       1.0  0.01095  0.68639  0.99446  1.0000
  H   H11       1.0  0.51094  0.68639  0.50554  1.0000
  H   H12       1.0  0.98905  0.31361  0.00554  1.0000
  H   H13       1.0  0.48339  0.20333  0.59677  1.0000
  H   H14       1.0  0.01661  0.79667  0.09677  1.0000
  H   H15       1.0  0.51661  0.79667  0.40323  1.0000
  H   H16       1.0  0.98339  0.20333  0.90323  1.0000
  C   C1        1.0  0.18466  0.12766  0.52435  1.0000
  C   C2        1.0  0.31534  0.87233  0.02435  1.0000
  C   C3        1.0  0.81534  0.87233  0.47565  1.0000
  C   C4        1.0  0.68466  0.12767  0.97565  1.0000
  C   C5        1.0  0.84576  0.94011  0.55984  1.0000
  C   C6        1.0  0.65424  0.05989  0.05984  1.0000
  C   C7        1.0  0.15424  0.05989  0.44016  1.0000
  C   C8        1.0  0.34576  0.94011  0.94016  1.0000
  C   C9        1.0  0.38519  0.26508  0.55045  1.0000
  C   C10       1.0  0.11480  0.73491  0.05045  1.0000
  C   C11       1.0  0.61480  0.73491  0.44955  1.0000
  C   C12       1.0  0.88519  0.26508  0.94955  1.0000
  N   N1        1.0  0.81337  0.28835  0.72162  1.0000
  N   N2        1.0  0.68664  0.71166  0.22162  1.0000
  N   N3        1.0  0.18664  0.71166  0.27838  1.0000
  N   N4        1.0  0.31336  0.28834  0.77838  1.0000
  N   N5        1.0  0.80702  0.42999  0.68381  1.0000
  N   N6        1.0  0.69298  0.57001  0.18381  1.0000
  N   N7        1.0  0.19298  0.57001  0.31619  1.0000
  N   N8        1.0  0.30702  0.42999  0.81619  1.0000
  N   N9        1.0  0.80300  0.56390  0.64698  1.0000
  N   N10       1.0  0.69700  0.43611  0.14698  1.0000
  N   N11       1.0  0.19700  0.43611  0.35302  1.0000
  N   N12       1.0  0.30300  0.56389  0.85302  1.0000
  N   N13       1.0  0.80396  0.94798  0.77509  1.0000
  N   N14       1.0  0.69604  0.05202  0.27509  1.0000
  N   N15       1.0  0.19604  0.05202  0.22491  1.0000
  N   N16       1.0  0.30396  0.94798  0.72491  1.0000
  N   N17       1.0  0.81254  0.81194  0.81655  1.0000
  N   N18       1.0  0.68746  0.18805  0.31654  1.0000
  N   N19       1.0  0.18746  0.18806  0.18346  1.0000
  N   N20       1.0  0.31254  0.81195  0.68346  1.0000
  N   N21       1.0  0.81729  0.68206  0.85689  1.0000
  N   N22       1.0  0.68272  0.31794  0.35689  1.0000
  N   N23       1.0  0.18272  0.31794  0.14311  1.0000
  N   N24       1.0  0.31729  0.68206  0.64311  1.0000
  N   N25       1.0  0.02575  0.06467  0.58345  1.0000
  N   N26       1.0  0.47425  0.93533  0.08345  1.0000
  N   N27       1.0  0.97424  0.93532  0.41655  1.0000
  N   N28       1.0  0.52576  0.06468  0.91655  1.0000
