data_image0
_chemical_formula_structural       Cd2H24C40N20
_chemical_formula_sum              "Cd2 H24 C40 N20"
_cell_length_a       7.79757
_cell_length_b       9.71191
_cell_length_c       14.5556
_cell_angle_alpha    101.108
_cell_angle_beta     90.0416
_cell_angle_gamma    113.653

_space_group_name_H-M_alt    "P 1"
_space_group_IT_number       1

loop_
  _space_group_symop_operation_xyz
  'x, y, z'

loop_
  _atom_site_type_symbol
  _atom_site_label
  _atom_site_symmetry_multiplicity
  _atom_site_fract_x
  _atom_site_fract_y
  _atom_site_fract_z
  _atom_site_occupancy
  Cd  Cd1       1.0  0.88650  0.99994  0.74997  1.0000
  Cd  Cd2       1.0  0.11349  0.00006  0.25004  1.0000
  H   H1        1.0  0.81207  0.87672  0.93489  1.0000
  H   H2        1.0  0.93505  0.12321  0.56500  1.0000
  H   H3        1.0  0.18792  0.12328  0.06511  1.0000
  H   H4        1.0  0.06495  0.87679  0.43501  1.0000
  H   H5        1.0  0.66886  0.64067  0.00434  1.0000
  H   H6        1.0  0.02834  0.35922  0.49548  1.0000
  H   H7        1.0  0.33112  0.35932  0.99566  1.0000
  H   H8        1.0  0.97165  0.64078  0.50452  1.0000
  H   H9        1.0  0.48014  0.22894  0.75255  1.0000
  H   H10       1.0  0.25128  0.77098  0.74713  1.0000
  H   H11       1.0  0.51985  0.77106  0.24744  1.0000
  H   H12       1.0  0.74873  0.22902  0.25288  1.0000
  H   H13       1.0  0.48688  0.20170  0.57849  1.0000
  H   H14       1.0  0.28439  0.79834  0.92132  1.0000
  H   H15       1.0  0.51312  0.79829  0.42151  1.0000
  H   H16       1.0  0.71561  0.20167  0.07868  1.0000
  H   H17       1.0  0.61901  0.43277  0.50922  1.0000
  H   H18       1.0  0.18482  0.56727  0.99063  1.0000
  H   H19       1.0  0.38099  0.56723  0.49078  1.0000
  H   H20       1.0  0.81518  0.43273  0.00937  1.0000
  H   H21       1.0  0.74319  0.69515  0.61215  1.0000
  H   H22       1.0  0.04696  0.30486  0.88771  1.0000
  H   H23       1.0  0.25680  0.30485  0.38784  1.0000
  H   H24       1.0  0.95305  0.69514  0.11229  1.0000
  C   C1        1.0  0.75305  0.76224  0.88967  1.0000
  C   C2        1.0  0.99050  0.23773  0.61020  1.0000
  C   C3        1.0  0.24694  0.23776  0.11033  1.0000
  C   C4        1.0  0.00950  0.76227  0.38981  1.0000
  C   C5        1.0  0.67463  0.62927  0.92841  1.0000
  C   C6        1.0  0.04531  0.37069  0.57144  1.0000
  C   C7        1.0  0.32536  0.37073  0.07159  1.0000
  C   C8        1.0  0.95470  0.62931  0.42857  1.0000
  C   C9        1.0  0.60950  0.47651  0.78090  1.0000
  C   C10       1.0  0.13277  0.52349  0.71891  1.0000
  C   C11       1.0  0.39050  0.52349  0.21910  1.0000
  C   C12       1.0  0.86724  0.47651  0.28109  1.0000
  C   C13       1.0  0.53761  0.32899  0.72064  1.0000
  C   C14       1.0  0.20841  0.67101  0.77913  1.0000
  C   C15       1.0  0.46239  0.67101  0.27936  1.0000
  C   C16       1.0  0.79160  0.32899  0.22087  1.0000
  C   C17       1.0  0.54124  0.31508  0.62472  1.0000
  C   C18       1.0  0.22547  0.68500  0.87508  1.0000
  C   C19       1.0  0.45876  0.68492  0.37528  1.0000
  C   C20       1.0  0.77454  0.31500  0.12493  1.0000
  C   C21       1.0  0.61607  0.44723  0.58525  1.0000
  C   C22       1.0  0.16773  0.55285  0.91456  1.0000
  C   C23       1.0  0.38393  0.55277  0.41474  1.0000
  C   C24       1.0  0.83227  0.44716  0.08544  1.0000
  C   C25       1.0  0.68620  0.59267  0.64170  1.0000
  C   C26       1.0  0.09256  0.40735  0.85813  1.0000
  C   C27       1.0  0.31379  0.40733  0.35830  1.0000
  C   C28       1.0  0.90745  0.59265  0.14187  1.0000
  C   C29       1.0  0.68538  0.61041  0.74049  1.0000
  C   C30       1.0  0.07435  0.38957  0.75935  1.0000
  C   C31       1.0  0.31461  0.38959  0.25951  1.0000
  C   C32       1.0  0.92566  0.61043  0.24065  1.0000
  C   C33       1.0  0.27970  0.07680  0.88848  1.0000
  C   C34       1.0  0.20317  0.92311  0.61159  1.0000
  C   C35       1.0  0.72031  0.92320  0.11152  1.0000
  C   C36       1.0  0.79683  0.07689  0.38841  1.0000
  C   C37       1.0  0.57845  0.08290  0.88962  1.0000
  C   C38       1.0  0.49565  0.91673  0.61022  1.0000
  C   C39       1.0  0.42155  0.91710  0.11039  1.0000
  C   C40       1.0  0.50435  0.08328  0.38979  1.0000
  N   N1        1.0  0.75768  0.75361  0.79797  1.0000
  N   N2        1.0  0.00346  0.24636  0.70192  1.0000
  N   N3        1.0  0.24232  0.24639  0.20203  1.0000
  N   N4        1.0  0.99654  0.75365  0.29808  1.0000
  N   N5        1.0  0.60474  0.48874  0.87576  1.0000
  N   N6        1.0  0.11610  0.51124  0.62404  1.0000
  N   N7        1.0  0.39525  0.51126  0.12423  1.0000
  N   N8        1.0  0.88391  0.48876  0.37595  1.0000
  N   N9        1.0  0.13510  0.07389  0.86188  1.0000
  N   N10       1.0  0.06167  0.92616  0.63830  1.0000
  N   N11       1.0  0.86491  0.92610  0.13811  1.0000
  N   N12       1.0  0.93831  0.07383  0.36169  1.0000
  N   N13       1.0  0.42926  0.08068  0.92870  1.0000
  N   N14       1.0  0.34859  0.91913  0.57124  1.0000
  N   N15       1.0  0.57074  0.91932  0.07130  1.0000
  N   N16       1.0  0.65142  0.08087  0.42877  1.0000
  N   N17       1.0  0.72200  0.08553  0.86262  1.0000
  N   N18       1.0  0.63663  0.91398  0.63713  1.0000
  N   N19       1.0  0.27800  0.91447  0.13739  1.0000
  N   N20       1.0  0.36337  0.08602  0.36288  1.0000
