data_image0
_chemical_formula_structural       Zn2H24C40N20
_chemical_formula_sum              "Zn2 H24 C40 N20"
_cell_length_a       7.52833
_cell_length_b       9.58645
_cell_length_c       14.4363
_cell_angle_alpha    101.07
_cell_angle_beta     89.9851
_cell_angle_gamma    113.111

_space_group_name_H-M_alt    "P 1"
_space_group_IT_number       1

loop_
  _space_group_symop_operation_xyz
  'x, y, z'

loop_
  _atom_site_type_symbol
  _atom_site_label
  _atom_site_symmetry_multiplicity
  _atom_site_fract_x
  _atom_site_fract_y
  _atom_site_fract_z
  _atom_site_occupancy
  Zn  Zn1       1.0  0.38457  0.00014  0.25004  1.0000
  Zn  Zn2       1.0  0.61543  0.99986  0.74996  1.0000
  H   H1        1.0  0.17866  0.65555  0.50375  1.0000
  H   H2        1.0  0.52338  0.34448  0.99618  1.0000
  H   H3        1.0  0.82134  0.34445  0.49625  1.0000
  H   H4        1.0  0.47661  0.65552  0.00382  1.0000
  H   H5        1.0  0.31717  0.89198  0.43174  1.0000
  H   H6        1.0  0.42493  0.10814  0.06831  1.0000
  H   H7        1.0  0.68283  0.10802  0.56826  1.0000
  H   H8        1.0  0.57506  0.89186  0.93169  1.0000
  H   H9        1.0  0.24498  0.70321  0.10686  1.0000
  H   H10       1.0  0.54196  0.29716  0.39313  1.0000
  H   H11       1.0  0.75502  0.29680  0.89314  1.0000
  H   H12       1.0  0.45804  0.70283  0.60687  1.0000
  H   H13       1.0  0.00055  0.20632  0.07757  1.0000
  H   H14       1.0  0.79460  0.79402  0.42226  1.0000
  H   H15       1.0  0.99945  0.79368  0.92243  1.0000
  H   H16       1.0  0.20540  0.20598  0.57774  1.0000
  H   H17       1.0  0.12671  0.43749  0.00535  1.0000
  H   H18       1.0  0.68968  0.56293  0.49454  1.0000
  H   H19       1.0  0.87329  0.56251  0.99464  1.0000
  H   H20       1.0  0.31032  0.43707  0.50547  1.0000
  H   H21       1.0  0.99645  0.23781  0.25359  1.0000
  H   H22       1.0  0.75873  0.76238  0.24626  1.0000
  H   H23       1.0  0.00355  0.76219  0.74641  1.0000
  H   H24       1.0  0.24126  0.23762  0.75374  1.0000
  C   C1        1.0  0.19280  0.62129  0.23745  1.0000
  C   C2        1.0  0.57161  0.37894  0.26251  1.0000
  C   C3        1.0  0.80720  0.37871  0.76255  1.0000
  C   C4        1.0  0.42839  0.62105  0.73748  1.0000
  C   C5        1.0  0.00073  0.92390  0.11849  1.0000
  C   C6        1.0  0.07699  0.07635  0.38165  1.0000
  C   C7        1.0  0.99927  0.07611  0.88151  1.0000
  C   C8        1.0  0.92302  0.92365  0.61836  1.0000
  C   C9        1.0  0.18426  0.64294  0.42713  1.0000
  C   C10       1.0  0.54127  0.35713  0.07283  1.0000
  C   C11       1.0  0.81576  0.35706  0.57287  1.0000
  C   C12       1.0  0.45872  0.64286  0.92717  1.0000
  C   C13       1.0  0.69768  0.92860  0.11919  1.0000
  C   C14       1.0  0.76916  0.07154  0.38080  1.0000
  C   C15       1.0  0.30233  0.07140  0.88080  1.0000
  C   C16       1.0  0.23084  0.92846  0.61919  1.0000
  C   C17       1.0  0.12060  0.48718  0.27948  1.0000
  C   C18       1.0  0.63343  0.51300  0.22041  1.0000
  C   C19       1.0  0.87940  0.51282  0.72052  1.0000
  C   C20       1.0  0.36657  0.48699  0.77959  1.0000
  C   C21       1.0  0.25987  0.77605  0.38688  1.0000
  C   C22       1.0  0.48377  0.22412  0.11313  1.0000
  C   C23       1.0  0.74013  0.22396  0.61312  1.0000
  C   C24       1.0  0.51622  0.77588  0.88687  1.0000
  C   C25       1.0  0.19142  0.60081  0.13768  1.0000
  C   C26       1.0  0.59066  0.39953  0.36229  1.0000
  C   C27       1.0  0.80858  0.39920  0.86232  1.0000
  C   C28       1.0  0.40934  0.60046  0.63771  1.0000
  C   C29       1.0  0.05288  0.32124  0.12323  1.0000
  C   C30       1.0  0.73180  0.67907  0.37662  1.0000
  C   C31       1.0  0.94712  0.67875  0.87677  1.0000
  C   C32       1.0  0.26820  0.32092  0.62339  1.0000
  C   C33       1.0  0.12387  0.45336  0.08208  1.0000
  C   C34       1.0  0.67078  0.54700  0.41783  1.0000
  C   C35       1.0  0.87613  0.54665  0.91792  1.0000
  C   C36       1.0  0.32922  0.45299  0.58217  1.0000
  C   C37       1.0  0.05061  0.33750  0.22007  1.0000
  C   C38       1.0  0.71335  0.66272  0.27978  1.0000
  C   C39       1.0  0.94939  0.66251  0.77993  1.0000
  C   C40       1.0  0.28665  0.33728  0.72022  1.0000
  N   N1        1.0  0.26393  0.76668  0.29430  1.0000
  N   N2        1.0  0.49710  0.23352  0.20574  1.0000
  N   N3        1.0  0.73607  0.23332  0.70570  1.0000
  N   N4        1.0  0.50289  0.76648  0.79427  1.0000
  N   N5        1.0  0.84711  0.92241  0.07784  1.0000
  N   N6        1.0  0.92468  0.07773  0.42222  1.0000
  N   N7        1.0  0.15289  0.07759  0.92216  1.0000
  N   N8        1.0  0.07532  0.92228  0.57778  1.0000
  N   N9        1.0  0.55262  0.93279  0.14752  1.0000
  N   N10       1.0  0.62013  0.06749  0.35235  1.0000
  N   N11       1.0  0.44738  0.06722  0.85247  1.0000
  N   N12       1.0  0.37987  0.93251  0.64765  1.0000
  N   N13       1.0  0.14708  0.92448  0.14776  1.0000
  N   N14       1.0  0.22288  0.07575  0.35251  1.0000
  N   N15       1.0  0.85292  0.07551  0.85225  1.0000
  N   N16       1.0  0.77712  0.92425  0.64749  1.0000
  N   N17       1.0  0.11684  0.50060  0.37517  1.0000
  N   N18       1.0  0.61629  0.49951  0.12473  1.0000
  N   N19       1.0  0.88316  0.49939  0.62483  1.0000
  N   N20       1.0  0.38370  0.50048  0.87528  1.0000
