data_image0
_chemical_formula_structural       NiH10C8S2N4O6
_chemical_formula_sum              "Ni1 H10 C8 S2 N4 O6"
_cell_length_a       6.95001
_cell_length_b       6.89681
_cell_length_c       7.23551
_cell_angle_alpha    90.4536
_cell_angle_beta     103.917
_cell_angle_gamma    114.51

_space_group_name_H-M_alt    "P 1"
_space_group_IT_number       1

loop_
  _space_group_symop_operation_xyz
  'x, y, z'

loop_
  _atom_site_type_symbol
  _atom_site_label
  _atom_site_symmetry_multiplicity
  _atom_site_fract_x
  _atom_site_fract_y
  _atom_site_fract_z
  _atom_site_occupancy
  Ni  Ni1       1.0  0.00000  0.00000  0.00000  1.0000
  H   H1        1.0  0.91507  0.03090  0.59106  1.0000
  H   H2        1.0  0.08493  0.96910  0.40894  1.0000
  H   H3        1.0  0.56273  0.38135  0.60160  1.0000
  H   H4        1.0  0.43726  0.61864  0.39840  1.0000
  H   H5        1.0  0.83287  0.39867  0.13412  1.0000
  H   H6        1.0  0.16713  0.60133  0.86588  1.0000
  H   H7        1.0  0.70320  0.66287  0.12183  1.0000
  H   H8        1.0  0.29681  0.33713  0.87817  1.0000
  H   H9        1.0  0.64319  0.63509  0.89305  1.0000
  H   H10       1.0  0.35682  0.36492  0.10696  1.0000
  C   C1        1.0  0.74084  0.19945  0.62063  1.0000
  C   C2        1.0  0.25914  0.80056  0.37936  1.0000
  C   C3        1.0  0.68339  0.40537  0.36125  1.0000
  C   C4        1.0  0.31660  0.59462  0.63875  1.0000
  C   C5        1.0  0.80819  0.34291  0.26992  1.0000
  C   C6        1.0  0.19181  0.65707  0.73008  1.0000
  C   C7        1.0  0.88719  0.19711  0.34766  1.0000
  C   C8        1.0  0.11278  0.80290  0.65233  1.0000
  S   S1        1.0  0.70675  0.11709  0.83427  1.0000
  S   S2        1.0  0.29325  0.88291  0.16574  1.0000
  N   N1        1.0  0.85142  0.13472  0.52333  1.0000
  N   N2        1.0  0.14859  0.86527  0.47668  1.0000
  N   N3        1.0  0.65415  0.33044  0.53474  1.0000
  N   N4        1.0  0.34586  0.66955  0.46525  1.0000
  O   O1        1.0  0.59132  0.52838  0.29529  1.0000
  O   O2        1.0  0.40868  0.47163  0.70471  1.0000
  O   O3        1.0  0.99290  0.11506  0.27617  1.0000
  O   O4        1.0  0.00710  0.88494  0.72383  1.0000
  O   O5        1.0  0.76597  0.70394  0.00986  1.0000
  O   O6        1.0  0.23404  0.29607  0.99015  1.0000
