data_image0
_chemical_formula_structural       FeH10C8S2N4O6
_chemical_formula_sum              "Fe1 H10 C8 S2 N4 O6"
_cell_length_a       6.85677
_cell_length_b       6.9848
_cell_length_c       7.30815
_cell_angle_alpha    90.0483
_cell_angle_beta     103.447
_cell_angle_gamma    114.693

_space_group_name_H-M_alt    "P 1"
_space_group_IT_number       1

loop_
  _space_group_symop_operation_xyz
  'x, y, z'

loop_
  _atom_site_type_symbol
  _atom_site_label
  _atom_site_symmetry_multiplicity
  _atom_site_fract_x
  _atom_site_fract_y
  _atom_site_fract_z
  _atom_site_occupancy
  Fe  Fe1       1.0  1.00000  0.99999  0.99999  1.0000
  H   H1        1.0  0.91268  0.03335  0.59088  1.0000
  H   H2        1.0  0.08732  0.96665  0.40913  1.0000
  H   H3        1.0  0.55981  0.38315  0.59855  1.0000
  H   H4        1.0  0.44020  0.61686  0.40144  1.0000
  H   H5        1.0  0.83539  0.39533  0.13524  1.0000
  H   H6        1.0  0.16462  0.60467  0.86476  1.0000
  H   H7        1.0  0.69506  0.65601  0.12296  1.0000
  H   H8        1.0  0.30493  0.34398  0.87705  1.0000
  H   H9        1.0  0.63725  0.63078  0.89497  1.0000
  H   H10       1.0  0.36275  0.36922  0.10503  1.0000
  C   C1        1.0  0.68191  0.40392  0.35937  1.0000
  C   C2        1.0  0.31810  0.59610  0.64063  1.0000
  C   C3        1.0  0.88928  0.19874  0.35043  1.0000
  C   C4        1.0  0.11071  0.80126  0.64955  1.0000
  C   C5        1.0  0.80951  0.34220  0.27071  1.0000
  C   C6        1.0  0.19049  0.65779  0.72930  1.0000
  C   C7        1.0  0.73688  0.20161  0.61905  1.0000
  C   C8        1.0  0.26312  0.79838  0.38094  1.0000
  S   S1        1.0  0.70139  0.12385  0.83195  1.0000
  S   S2        1.0  0.29860  0.87614  0.16806  1.0000
  N   N1        1.0  0.85020  0.13710  0.52409  1.0000
  N   N2        1.0  0.14981  0.86290  0.47591  1.0000
  N   N3        1.0  0.65072  0.33123  0.53153  1.0000
  N   N4        1.0  0.34928  0.66877  0.46847  1.0000
  O   O1        1.0  0.58800  0.52460  0.29162  1.0000
  O   O2        1.0  0.41200  0.47543  0.70837  1.0000
  O   O3        1.0  0.99754  0.11882  0.28037  1.0000
  O   O4        1.0  0.00248  0.88118  0.71963  1.0000
  O   O5        1.0  0.75490  0.71022  0.01091  1.0000
  O   O6        1.0  0.24509  0.28977  0.98909  1.0000
