data_image0
_chemical_formula_structural       Cd4H36C44O20
_chemical_formula_sum              "Cd4 H36 C44 O20"
_cell_length_a       8.22794
_cell_length_b       11.3562
_cell_length_c       12.2326
_cell_angle_alpha    83.797
_cell_angle_beta     87.4817
_cell_angle_gamma    78.2915

_space_group_name_H-M_alt    "P 1"
_space_group_IT_number       1

loop_
  _space_group_symop_operation_xyz
  'x, y, z'

loop_
  _atom_site_type_symbol
  _atom_site_label
  _atom_site_symmetry_multiplicity
  _atom_site_fract_x
  _atom_site_fract_y
  _atom_site_fract_z
  _atom_site_occupancy
  Cd  Cd1       1.0  0.98713  0.35019  0.99249  1.0000
  Cd  Cd2       1.0  0.01288  0.64980  0.00751  1.0000
  Cd  Cd3       1.0  0.39079  0.45822  0.88883  1.0000
  Cd  Cd4       1.0  0.60922  0.54178  0.11118  1.0000
  H   H1        1.0  0.21491  0.98328  0.95493  1.0000
  H   H2        1.0  0.78508  0.01672  0.04508  1.0000
  H   H3        1.0  0.64912  0.73353  0.85294  1.0000
  H   H4        1.0  0.35090  0.26648  0.14707  1.0000
  H   H5        1.0  0.61476  0.11817  0.78088  1.0000
  H   H6        1.0  0.38525  0.88182  0.21913  1.0000
  H   H7        1.0  0.88061  0.05574  0.73754  1.0000
  H   H8        1.0  0.11939  0.94426  0.26246  1.0000
  H   H9        1.0  0.77453  0.02272  0.62323  1.0000
  H   H10       1.0  0.22545  0.97727  0.37678  1.0000
  H   H11       1.0  0.92136  0.80171  0.55361  1.0000
  H   H12       1.0  0.07864  0.19829  0.44639  1.0000
  H   H13       1.0  0.19404  0.68843  0.49285  1.0000
  H   H14       1.0  0.80595  0.31156  0.50716  1.0000
  H   H15       1.0  0.44126  0.91966  0.65242  1.0000
  H   H16       1.0  0.55873  0.08034  0.34758  1.0000
  H   H17       1.0  0.16898  0.03002  0.71759  1.0000
  H   H18       1.0  0.83101  0.96997  0.28241  1.0000
  H   H19       1.0  0.79470  0.46968  0.59231  1.0000
  H   H20       1.0  0.20529  0.53032  0.40768  1.0000
  H   H21       1.0  0.91955  0.54886  0.41826  1.0000
  H   H22       1.0  0.08044  0.45115  0.58174  1.0000
  H   H23       1.0  0.78410  0.75031  0.32564  1.0000
  H   H24       1.0  0.21590  0.24969  0.67434  1.0000
  H   H25       1.0  0.51884  0.85882  0.39886  1.0000
  H   H26       1.0  0.48115  0.14119  0.60115  1.0000
  H   H27       1.0  0.86803  0.34697  0.23422  1.0000
  H   H28       1.0  0.13198  0.65302  0.76579  1.0000
  H   H29       1.0  0.98135  0.44317  0.20830  1.0000
  H   H30       1.0  0.01865  0.55683  0.79170  1.0000
  H   H31       1.0  0.24051  0.44096  0.08121  1.0000
  H   H32       1.0  0.75949  0.55904  0.91879  1.0000
  H   H33       1.0  0.81974  0.44023  0.76902  1.0000
  H   H34       1.0  0.18025  0.55977  0.23097  1.0000
  H   H35       1.0  0.99038  0.34045  0.76439  1.0000
  H   H36       1.0  0.00962  0.65955  0.23561  1.0000
  C   C1        1.0  0.40707  0.06195  0.86829  1.0000
  C   C2        1.0  0.59293  0.93806  0.13172  1.0000
  C   C3        1.0  0.33718  0.96604  0.91540  1.0000
  C   C4        1.0  0.66281  0.03397  0.08461  1.0000
  C   C5        1.0  0.42555  0.84705  0.91135  1.0000
  C   C6        1.0  0.57447  0.15295  0.08867  1.0000
  C   C7        1.0  0.58119  0.82537  0.85904  1.0000
  C   C8        1.0  0.41883  0.17464  0.14098  1.0000
  C   C9        1.0  0.64998  0.92203  0.80958  1.0000
  C   C10       1.0  0.35004  0.07798  0.19042  1.0000
  C   C11       1.0  0.56388  0.04066  0.81540  1.0000
  C   C12       1.0  0.43613  0.95934  0.18460  1.0000
  C   C13       1.0  0.31602  0.19013  0.87421  1.0000
  C   C14       1.0  0.68398  0.80987  0.12578  1.0000
  C   C15       1.0  0.34735  0.74387  0.95813  1.0000
  C   C16       1.0  0.65266  0.25612  0.04187  1.0000
  C   C17       1.0  0.86383  0.98327  0.68850  1.0000
  C   C18       1.0  0.13616  0.01673  0.31150  1.0000
  C   C19       1.0  0.02704  0.92296  0.64134  1.0000
  C   C20       1.0  0.97296  0.07704  0.35865  1.0000
  C   C21       1.0  0.03514  0.82808  0.57546  1.0000
  C   C22       1.0  0.96487  0.17192  0.42453  1.0000
  C   C23       1.0  0.18819  0.76460  0.54090  1.0000
  C   C24       1.0  0.81182  0.23540  0.45910  1.0000
  C   C25       1.0  0.33668  0.79479  0.57027  1.0000
  C   C26       1.0  0.66333  0.20521  0.42973  1.0000
  C   C27       1.0  0.32752  0.89408  0.63012  1.0000
  C   C28       1.0  0.67247  0.10592  0.36989  1.0000
  C   C29       1.0  0.17386  0.95657  0.66630  1.0000
  C   C30       1.0  0.82613  0.04342  0.33370  1.0000
  C   C31       1.0  0.50067  0.72522  0.53512  1.0000
  C   C32       1.0  0.49932  0.27479  0.46488  1.0000
  C   C33       1.0  0.58302  0.61543  0.59168  1.0000
  C   C34       1.0  0.41696  0.38458  0.40832  1.0000
  C   C35       1.0  0.73431  0.55488  0.54883  1.0000
  C   C36       1.0  0.26567  0.44513  0.45117  1.0000
  C   C37       1.0  0.80591  0.60014  0.45252  1.0000
  C   C38       1.0  0.19407  0.39986  0.54747  1.0000
  C   C39       1.0  0.72917  0.71131  0.39998  1.0000
  C   C40       1.0  0.27082  0.28869  0.60001  1.0000
  C   C41       1.0  0.57884  0.77269  0.44124  1.0000
  C   C42       1.0  0.42114  0.22732  0.55875  1.0000
  C   C43       1.0  0.51836  0.55991  0.69686  1.0000
  C   C44       1.0  0.48164  0.44010  0.30314  1.0000
  O   O1        1.0  0.16351  0.20632  0.90505  1.0000
  O   O2        1.0  0.83650  0.79368  0.09495  1.0000
  O   O3        1.0  0.39898  0.27170  0.84440  1.0000
  O   O4        1.0  0.60101  0.72830  0.15560  1.0000
  O   O5        1.0  0.19636  0.77026  0.98869  1.0000
  O   O6        1.0  0.80364  0.22974  0.01131  1.0000
  O   O7        1.0  0.43582  0.63585  0.96256  1.0000
  O   O8        1.0  0.56420  0.36415  0.03743  1.0000
  O   O9        1.0  0.79990  0.89062  0.75735  1.0000
  O   O10       1.0  0.20012  0.10939  0.24266  1.0000
  O   O11       1.0  0.36402  0.58116  0.72106  1.0000
  O   O12       1.0  0.63598  0.41884  0.27893  1.0000
  O   O13       1.0  0.62152  0.48889  0.76286  1.0000
  O   O14       1.0  0.37847  0.51111  0.23714  1.0000
  O   O15       1.0  0.18322  0.46064  0.01151  1.0000
  O   O16       1.0  0.81679  0.53935  0.98849  1.0000
  O   O17       1.0  0.96130  0.36564  0.18779  1.0000
  O   O18       1.0  0.03870  0.63435  0.81221  1.0000
  O   O19       1.0  0.94167  0.41976  0.78697  1.0000
  O   O20       1.0  0.05833  0.58024  0.21303  1.0000
