data_image0
_chemical_formula_structural       Cu4H20C16N8O12
_chemical_formula_sum              "Cu4 H20 C16 N8 O12"
_cell_length_a       6.89729
_cell_length_b       9.6051
_cell_length_c       9.88722
_cell_angle_alpha    89.9995
_cell_angle_beta     90
_cell_angle_gamma    101.877

_space_group_name_H-M_alt    "P 1"
_space_group_IT_number       1

loop_
  _space_group_symop_operation_xyz
  'x, y, z'

loop_
  _atom_site_type_symbol
  _atom_site_label
  _atom_site_symmetry_multiplicity
  _atom_site_fract_x
  _atom_site_fract_y
  _atom_site_fract_z
  _atom_site_occupancy
  Cu  Cu1       1.0  0.65665  0.81805  0.72089  1.0000
  Cu  Cu2       1.0  0.34335  0.68195  0.22089  1.0000
  Cu  Cu3       1.0  0.34335  0.18195  0.27912  1.0000
  Cu  Cu4       1.0  0.65665  0.31805  0.77911  1.0000
  H   H1        1.0  0.62955  0.28601  0.03755  1.0000
  H   H2        1.0  0.37046  0.21399  0.53755  1.0000
  H   H3        1.0  0.37047  0.71400  0.96246  1.0000
  H   H4        1.0  0.62954  0.78600  0.46246  1.0000
  H   H5        1.0  0.69482  0.47591  0.98637  1.0000
  H   H6        1.0  0.30517  0.02409  0.48638  1.0000
  H   H7        1.0  0.30519  0.52410  0.01362  1.0000
  H   H8        1.0  0.69482  0.97590  0.51362  1.0000
  H   H9        1.0  0.99494  0.43416  0.86734  1.0000
  H   H10       1.0  0.00507  0.06585  0.36734  1.0000
  H   H11       1.0  0.00508  0.56584  0.13267  1.0000
  H   H12       1.0  0.99493  0.93415  0.63266  1.0000
  H   H13       1.0  0.84156  0.11494  0.93800  1.0000
  H   H14       1.0  0.15844  0.38507  0.43799  1.0000
  H   H15       1.0  0.15843  0.88507  0.06201  1.0000
  H   H16       1.0  0.84157  0.61492  0.56200  1.0000
  H   H17       1.0  0.03482  0.18657  0.82271  1.0000
  H   H18       1.0  0.96519  0.31344  0.32270  1.0000
  H   H19       1.0  0.96519  0.81343  0.17730  1.0000
  H   H20       1.0  0.03482  0.68656  0.67730  1.0000
  C   C1        1.0  0.71903  0.36782  0.97438  1.0000
  C   C2        1.0  0.28096  0.13219  0.47438  1.0000
  C   C3        1.0  0.28097  0.63219  0.02562  1.0000
  C   C4        1.0  0.71903  0.86781  0.52562  1.0000
  C   C5        1.0  0.88745  0.34465  0.90871  1.0000
  C   C6        1.0  0.11255  0.15536  0.40870  1.0000
  C   C7        1.0  0.11256  0.65536  0.09130  1.0000
  C   C8        1.0  0.88744  0.84464  0.59129  1.0000
  C   C9        1.0  0.96239  0.20684  0.91767  1.0000
  C   C10       1.0  0.03762  0.29317  0.41767  1.0000
  C   C11       1.0  0.03761  0.79316  0.08233  1.0000
  C   C12       1.0  0.96239  0.70684  0.58233  1.0000
  C   C13       1.0  0.10816  0.21086  0.02400  1.0000
  C   C14       1.0  0.89185  0.28914  0.52399  1.0000
  C   C15       1.0  0.89185  0.78913  0.97602  1.0000
  C   C16       1.0  0.10817  0.71086  0.47601  1.0000
  N   N1        1.0  0.22172  0.21317  0.11132  1.0000
  N   N2        1.0  0.77827  0.28683  0.61132  1.0000
  N   N3        1.0  0.77827  0.78683  0.88867  1.0000
  N   N4        1.0  0.22174  0.71316  0.38868  1.0000
  N   N5        1.0  0.38409  0.97475  0.79500  1.0000
  N   N6        1.0  0.61590  0.52525  0.29499  1.0000
  N   N7        1.0  0.61590  0.02524  0.20501  1.0000
  N   N8        1.0  0.38408  0.47475  0.70500  1.0000
  O   O1        1.0  0.38013  0.84617  0.75136  1.0000
  O   O2        1.0  0.61986  0.65383  0.25137  1.0000
  O   O3        1.0  0.61986  0.15383  0.24865  1.0000
  O   O4        1.0  0.38013  0.34617  0.74865  1.0000
  O   O5        1.0  0.22454  0.01090  0.81925  1.0000
  O   O6        1.0  0.77545  0.48910  0.31925  1.0000
  O   O7        1.0  0.77546  0.98910  0.18076  1.0000
  O   O8        1.0  0.22453  0.51090  0.68077  1.0000
  O   O9        1.0  0.55151  0.05682  0.81046  1.0000
  O   O10       1.0  0.44848  0.44317  0.31044  1.0000
  O   O11       1.0  0.44849  0.94317  0.18954  1.0000
  O   O12       1.0  0.55150  0.55681  0.68951  1.0000
