data_image0
_chemical_formula_structural       V6Ni3H24C12N24O18
_chemical_formula_sum              "V6 Ni3 H24 C12 N24 O18"
_cell_length_a       10.2177
_cell_length_b       10.2176
_cell_length_c       10.2178
_cell_angle_alpha    99.7237
_cell_angle_beta     99.7232
_cell_angle_gamma    99.7229

_space_group_name_H-M_alt    "P 1"
_space_group_IT_number       1

loop_
  _space_group_symop_operation_xyz
  'x, y, z'

loop_
  _atom_site_type_symbol
  _atom_site_label
  _atom_site_symmetry_multiplicity
  _atom_site_fract_x
  _atom_site_fract_y
  _atom_site_fract_z
  _atom_site_occupancy
  V   V1        1.0  0.38679  0.59262  0.73455  1.0000
  V   V2        1.0  0.73454  0.38679  0.59262  1.0000
  V   V3        1.0  0.59262  0.73455  0.38680  1.0000
  V   V4        1.0  0.61319  0.40736  0.26549  1.0000
  V   V5        1.0  0.26549  0.61319  0.40738  1.0000
  V   V6        1.0  0.40736  0.26549  0.61319  1.0000
  Ni  Ni1       1.0  0.74293  0.74294  0.74293  1.0000
  Ni  Ni2       1.0  0.25735  0.25735  0.25734  1.0000
  Ni  Ni3       1.0  0.99977  0.99977  0.99977  1.0000
  H   H1        1.0  0.78219  0.19834  0.06450  1.0000
  H   H2        1.0  0.06450  0.78219  0.19834  1.0000
  H   H3        1.0  0.19834  0.06450  0.78219  1.0000
  H   H4        1.0  0.21761  0.80183  0.93539  1.0000
  H   H5        1.0  0.93539  0.21761  0.80183  1.0000
  H   H6        1.0  0.80184  0.93538  0.21761  1.0000
  H   H7        1.0  0.55093  0.15912  0.90585  1.0000
  H   H8        1.0  0.90584  0.55093  0.15912  1.0000
  H   H9        1.0  0.15912  0.90584  0.55093  1.0000
  H   H10       1.0  0.44896  0.84089  0.09400  1.0000
  H   H11       1.0  0.09400  0.44895  0.84089  1.0000
  H   H12       1.0  0.84090  0.09400  0.44895  1.0000
  H   H13       1.0  0.49984  0.84949  0.63506  1.0000
  H   H14       1.0  0.63506  0.49984  0.84949  1.0000
  H   H15       1.0  0.84948  0.63506  0.49984  1.0000
  H   H16       1.0  0.49997  0.15043  0.36500  1.0000
  H   H17       1.0  0.36499  0.49998  0.15043  1.0000
  H   H18       1.0  0.15043  0.36500  0.49997  1.0000
  H   H19       1.0  0.42726  0.99094  0.68279  1.0000
  H   H20       1.0  0.68279  0.42726  0.99093  1.0000
  H   H21       1.0  0.99093  0.68279  0.42726  1.0000
  H   H22       1.0  0.57272  0.00907  0.31729  1.0000
  H   H23       1.0  0.31729  0.57272  0.00908  1.0000
  H   H24       1.0  0.00907  0.31728  0.57271  1.0000
  C   C1        1.0  0.59991  0.97784  0.80491  1.0000
  C   C2        1.0  0.80490  0.59991  0.97783  1.0000
  C   C3        1.0  0.97783  0.80490  0.59991  1.0000
  C   C4        1.0  0.40011  0.02218  0.19518  1.0000
  C   C5        1.0  0.19518  0.40011  0.02218  1.0000
  C   C6        1.0  0.02218  0.19518  0.40011  1.0000
  C   C7        1.0  0.74145  0.11264  0.98094  1.0000
  C   C8        1.0  0.98095  0.74144  0.11263  1.0000
  C   C9        1.0  0.11263  0.98094  0.74145  1.0000
  C   C10       1.0  0.25853  0.88746  0.01902  1.0000
  C   C11       1.0  0.01902  0.25852  0.88746  1.0000
  C   C12       1.0  0.88747  0.01902  0.25852  1.0000
  N   N1        1.0  0.71160  0.92651  0.82920  1.0000
  N   N2        1.0  0.82920  0.71159  0.92651  1.0000
  N   N3        1.0  0.92651  0.82920  0.71159  1.0000
  N   N4        1.0  0.28855  0.07364  0.17104  1.0000
  N   N5        1.0  0.17104  0.28855  0.07364  1.0000
  N   N6        1.0  0.07364  0.17104  0.28855  1.0000
  N   N7        1.0  0.79928  0.01227  0.93943  1.0000
  N   N8        1.0  0.93943  0.79928  0.01226  1.0000
  N   N9        1.0  0.01227  0.93943  0.79928  1.0000
  N   N10       1.0  0.20054  0.98772  0.06043  1.0000
  N   N11       1.0  0.06043  0.20053  0.98772  1.0000
  N   N12       1.0  0.98773  0.06043  0.20053  1.0000
  N   N13       1.0  0.61638  0.09476  0.90002  1.0000
  N   N14       1.0  0.90002  0.61637  0.09475  1.0000
  N   N15       1.0  0.09475  0.90002  0.61637  1.0000
  N   N16       1.0  0.38355  0.90527  0.09991  1.0000
  N   N17       1.0  0.09991  0.38355  0.90527  1.0000
  N   N18       1.0  0.90528  0.09991  0.38355  1.0000
  N   N19       1.0  0.48784  0.92401  0.70929  1.0000
  N   N20       1.0  0.70929  0.48784  0.92400  1.0000
  N   N21       1.0  0.92400  0.70929  0.48784  1.0000
  N   N22       1.0  0.51220  0.07599  0.29081  1.0000
  N   N23       1.0  0.29081  0.51220  0.07599  1.0000
  N   N24       1.0  0.07599  0.29081  0.51220  1.0000
  O   O1        1.0  0.55380  0.65082  0.76433  1.0000
  O   O2        1.0  0.76433  0.55381  0.65082  1.0000
  O   O3        1.0  0.65082  0.76433  0.55381  1.0000
  O   O4        1.0  0.44618  0.34916  0.23561  1.0000
  O   O5        1.0  0.23562  0.44619  0.34918  1.0000
  O   O6        1.0  0.34916  0.23561  0.44619  1.0000
  O   O7        1.0  0.29836  0.64327  0.58898  1.0000
  O   O8        1.0  0.58896  0.29836  0.64326  1.0000
  O   O9        1.0  0.64326  0.58896  0.29836  1.0000
  O   O10       1.0  0.70165  0.35672  0.41100  1.0000
  O   O11       1.0  0.41099  0.70166  0.35672  1.0000
  O   O12       1.0  0.35672  0.41100  0.70166  1.0000
  O   O13       1.0  0.32400  0.64430  0.86967  1.0000
  O   O14       1.0  0.86967  0.32399  0.64431  1.0000
  O   O15       1.0  0.64431  0.86968  0.32400  1.0000
  O   O16       1.0  0.67610  0.35577  0.13040  1.0000
  O   O17       1.0  0.13041  0.67611  0.35579  1.0000
  O   O18       1.0  0.35577  0.13041  0.67610  1.0000
