data_image0
_chemical_formula_structural       Cu2H28C20I6N8
_chemical_formula_sum              "Cu2 H28 C20 I6 N8"
_cell_length_a       7.09947
_cell_length_b       11.2972
_cell_length_c       11.4059
_cell_angle_alpha    75.6724
_cell_angle_beta     70.976
_cell_angle_gamma    72.5653

_space_group_name_H-M_alt    "P 1"
_space_group_IT_number       1

loop_
  _space_group_symop_operation_xyz
  'x, y, z'

loop_
  _atom_site_type_symbol
  _atom_site_label
  _atom_site_symmetry_multiplicity
  _atom_site_fract_x
  _atom_site_fract_y
  _atom_site_fract_z
  _atom_site_occupancy
  Cu  Cu1       1.0  0.06926  0.59038  0.90947  1.0000
  Cu  Cu2       1.0  0.56591  0.41370  0.08660  1.0000
  H   H1        1.0  0.86346  0.85208  0.79217  1.0000
  H   H2        1.0  0.50642  0.15095  0.21861  1.0000
  H   H3        1.0  0.00819  0.70767  0.64807  1.0000
  H   H4        1.0  0.37626  0.28094  0.34955  1.0000
  H   H5        1.0  0.80469  0.00429  0.83022  1.0000
  H   H6        1.0  0.63392  0.99740  0.18437  1.0000
  H   H7        1.0  0.13963  0.66965  0.49588  1.0000
  H   H8        1.0  0.31607  0.31533  0.50296  1.0000
  H   H9        1.0  0.65541  0.89522  0.92260  1.0000
  H   H10       1.0  0.46683  0.10080  0.09551  1.0000
  H   H11       1.0  0.97357  0.57730  0.60487  1.0000
  H   H12       1.0  0.16347  0.40427  0.39960  1.0000
  H   H13       1.0  0.24247  0.80132  0.24807  1.0000
  H   H14       1.0  0.29795  0.20812  0.75214  1.0000
  H   H15       1.0  0.79255  0.25155  0.69906  1.0000
  H   H16       1.0  0.75771  0.74805  0.29228  1.0000
  H   H17       1.0  0.19671  0.96344  0.18152  1.0000
  H   H18       1.0  0.33872  0.04457  0.81366  1.0000
  H   H19       1.0  0.84216  0.31774  0.53690  1.0000
  H   H20       1.0  0.69719  0.68610  0.45568  1.0000
  H   H21       1.0  0.42352  0.85570  0.11189  1.0000
  H   H22       1.0  0.38989  0.14864  0.88757  1.0000
  H   H23       1.0  0.89171  0.38782  0.64417  1.0000
  H   H24       1.0  0.92627  0.61256  0.35131  1.0000
  H   H25       1.0  0.24145  0.64737  0.09052  1.0000
  H   H26       1.0  0.97674  0.35830  0.90160  1.0000
  H   H27       1.0  0.47966  0.40903  0.85270  1.0000
  H   H28       1.0  0.73605  0.59863  0.14198  1.0000
  C   C1        1.0  0.81179  0.90479  0.87024  1.0000
  C   C2        1.0  0.58297  0.09563  0.14221  1.0000
  C   C3        1.0  0.08727  0.62959  0.59535  1.0000
  C   C4        1.0  0.32118  0.35747  0.40475  1.0000
  C   C5        1.0  0.95297  0.85941  0.95236  1.0000
  C   C6        1.0  0.76123  0.14234  0.05298  1.0000
  C   C7        1.0  0.26520  0.54733  0.64065  1.0000
  C   C8        1.0  0.45699  0.44667  0.35799  1.0000
  C   C9        1.0  0.01770  0.93311  0.00880  1.0000
  C   C10       1.0  0.95619  0.07010  0.99578  1.0000
  C   C11       1.0  0.46018  0.49084  0.56703  1.0000
  C   C12       1.0  0.52271  0.50386  0.43011  1.0000
  C   C13       1.0  0.14725  0.84785  0.07802  1.0000
  C   C14       1.0  0.07084  0.15702  0.92137  1.0000
  C   C15       1.0  0.57360  0.42157  0.65226  1.0000
  C   C16       1.0  0.64947  0.57851  0.34316  1.0000
  C   C17       1.0  0.25840  0.86788  0.15901  1.0000
  C   C18       1.0  0.28516  0.13889  0.83935  1.0000
  C   C19       1.0  0.78584  0.34052  0.63231  1.0000
  C   C20       1.0  0.76344  0.66067  0.36129  1.0000
  I   I1        1.0  0.18876  0.40779  0.09221  1.0000
  I   I2        1.0  0.69239  0.59618  0.90410  1.0000
  I   I3        1.0  0.97577  0.21249  0.28768  1.0000
  I   I4        1.0  0.48622  0.80026  0.69978  1.0000
  I   I5        1.0  0.76335  0.03588  0.46453  1.0000
  I   I6        1.0  0.21582  0.94519  0.55452  1.0000
  N   N1        1.0  0.03980  0.73658  0.98351  1.0000
  N   N2        1.0  0.75682  0.26583  0.01651  1.0000
  N   N3        1.0  0.26027  0.51614  0.76345  1.0000
  N   N4        1.0  0.53913  0.48339  0.23453  1.0000
  N   N5        1.0  0.15486  0.73238  0.05999  1.0000
  N   N6        1.0  0.94485  0.27197  0.93664  1.0000
  N   N7        1.0  0.44759  0.43960  0.76771  1.0000
  N   N8        1.0  0.65334  0.56336  0.22832  1.0000
