data_image0
_chemical_formula_structural       Cu2H28C20I2N8
_chemical_formula_sum              "Cu2 H28 C20 I2 N8"
_cell_length_a       6.79747
_cell_length_b       11.2305
_cell_length_c       11.2304
_cell_angle_alpha    69.7245
_cell_angle_beta     72.4292
_cell_angle_gamma    72.4289

_space_group_name_H-M_alt    "P 1"
_space_group_IT_number       1

loop_
  _space_group_symop_operation_xyz
  'x, y, z'

loop_
  _atom_site_type_symbol
  _atom_site_label
  _atom_site_symmetry_multiplicity
  _atom_site_fract_x
  _atom_site_fract_y
  _atom_site_fract_z
  _atom_site_occupancy
  Cu  Cu1       1.0  0.93408  0.41096  0.08917  1.0000
  Cu  Cu2       1.0  0.43409  0.58916  0.91097  1.0000
  H   H1        1.0  0.05027  0.09967  0.26291  1.0000
  H   H2        1.0  0.41199  0.90044  0.73688  1.0000
  H   H3        1.0  0.55027  0.76291  0.59968  1.0000
  H   H4        1.0  0.91199  0.23689  0.40044  1.0000
  H   H5        1.0  0.28891  0.11465  0.14597  1.0000
  H   H6        1.0  0.54931  0.88549  0.85364  1.0000
  H   H7        1.0  0.78890  0.64596  0.61466  1.0000
  H   H8        1.0  0.04931  0.35365  0.38550  1.0000
  H   H9        1.0  0.19102  0.97021  0.19153  1.0000
  H   H10       1.0  0.35298  0.03001  0.80803  1.0000
  H   H11       1.0  0.69101  0.69154  0.47022  1.0000
  H   H12       1.0  0.85297  0.30803  0.53002  1.0000
  H   H13       1.0  0.73408  0.24431  0.73794  1.0000
  H   H14       1.0  0.71728  0.75555  0.26200  1.0000
  H   H15       1.0  0.23407  0.23794  0.74431  1.0000
  H   H16       1.0  0.21726  0.76199  0.25556  1.0000
  H   H17       1.0  0.58230  0.14357  0.86826  1.0000
  H   H18       1.0  0.59507  0.85616  0.13171  1.0000
  H   H19       1.0  0.08229  0.36827  0.64357  1.0000
  H   H20       1.0  0.09505  0.63172  0.35617  1.0000
  H   H21       1.0  0.83150  0.07212  0.78407  1.0000
  H   H22       1.0  0.68855  0.92781  0.21598  1.0000
  H   H23       1.0  0.33149  0.28409  0.57211  1.0000
  H   H24       1.0  0.18854  0.71598  0.42781  1.0000
  H   H25       1.0  0.74748  0.37046  0.90299  1.0000
  H   H26       1.0  0.02154  0.62957  0.09709  1.0000
  H   H27       1.0  0.24749  0.40298  0.87046  1.0000
  H   H28       1.0  0.52152  0.59709  0.12957  1.0000
  C   C1        1.0  0.14574  0.07638  0.17221  1.0000
  C   C2        1.0  0.39414  0.92386  0.82746  1.0000
  C   C3        1.0  0.64572  0.67221  0.57638  1.0000
  C   C4        1.0  0.89413  0.32747  0.42386  1.0000
  C   C5        1.0  0.02379  0.13424  0.06785  1.0000
  C   C6        1.0  0.22590  0.86607  0.93203  1.0000
  C   C7        1.0  0.52377  0.56784  0.63424  1.0000
  C   C8        1.0  0.72590  0.43203  0.36607  1.0000
  C   C9        1.0  0.97457  0.06952  0.99568  1.0000
  C   C10       1.0  0.04001  0.93070  0.00411  1.0000
  C   C11       1.0  0.47456  0.49568  0.56953  1.0000
  C   C12       1.0  0.54001  0.50412  0.43068  1.0000
  C   C13       1.0  0.85037  0.16656  0.91405  1.0000
  C   C14       1.0  0.93156  0.83353  0.08594  1.0000
  C   C15       1.0  0.35036  0.41405  0.66655  1.0000
  C   C16       1.0  0.43157  0.58593  0.33353  1.0000
  C   C17       1.0  0.74464  0.15658  0.82076  1.0000
  C   C18       1.0  0.72288  0.84334  0.17921  1.0000
  C   C19       1.0  0.24462  0.32077  0.65658  1.0000
  C   C20       1.0  0.22287  0.67921  0.34334  1.0000
  I   I1        1.0  0.82010  0.61301  0.88731  1.0000
  I   I2        1.0  0.32010  0.38730  0.11302  1.0000
  N   N1        1.0  0.93724  0.26258  0.03120  1.0000
  N   N2        1.0  0.23121  0.73765  0.96880  1.0000
  N   N3        1.0  0.43723  0.53119  0.76258  1.0000
  N   N4        1.0  0.73121  0.46879  0.23765  1.0000
  N   N5        1.0  0.83528  0.27940  0.93780  1.0000
  N   N6        1.0  0.05301  0.72071  0.06227  1.0000
  N   N7        1.0  0.33528  0.43779  0.77940  1.0000
  N   N8        1.0  0.55300  0.56227  0.22070  1.0000
