data_image0
_chemical_formula_structural       Cu2H42C42N6O18
_chemical_formula_sum              "Cu2 H42 C42 N6 O18"
_cell_length_a       6.74177
_cell_length_b       12.9241
_cell_length_c       13.3299
_cell_angle_alpha    97.3994
_cell_angle_beta     93.6084
_cell_angle_gamma    98.441

_space_group_name_H-M_alt    "P 1"
_space_group_IT_number       1

loop_
  _space_group_symop_operation_xyz
  'x, y, z'

loop_
  _atom_site_type_symbol
  _atom_site_label
  _atom_site_symmetry_multiplicity
  _atom_site_fract_x
  _atom_site_fract_y
  _atom_site_fract_z
  _atom_site_occupancy
  Cu  Cu1       1.0  0.38233  0.75997  0.21753  1.0000
  Cu  Cu2       1.0  0.61766  0.24003  0.78247  1.0000
  H   H1        1.0  0.82771  0.95444  0.26368  1.0000
  H   H2        1.0  0.17229  0.04557  0.73634  1.0000
  H   H3        1.0  0.70260  0.89813  0.16570  1.0000
  H   H4        1.0  0.29733  0.10189  0.83433  1.0000
  H   H5        1.0  0.02369  0.76524  0.23135  1.0000
  H   H6        1.0  0.97629  0.23475  0.76867  1.0000
  H   H7        1.0  0.11165  0.88990  0.23654  1.0000
  H   H8        1.0  0.88833  0.11008  0.76346  1.0000
  H   H9        1.0  0.71773  0.70332  0.28977  1.0000
  H   H10       1.0  0.28226  0.29668  0.71024  1.0000
  H   H11       1.0  0.54971  0.60696  0.23084  1.0000
  H   H12       1.0  0.45028  0.39304  0.76917  1.0000
  H   H13       1.0  0.32958  0.93099  0.37568  1.0000
  H   H14       1.0  0.67038  0.06901  0.62433  1.0000
  H   H15       1.0  0.33316  0.95917  0.56378  1.0000
  H   H16       1.0  0.66682  0.04083  0.43623  1.0000
  H   H17       1.0  0.39526  0.62957  0.55873  1.0000
  H   H18       1.0  0.60477  0.37044  0.44126  1.0000
  H   H19       1.0  0.40197  0.61692  0.37377  1.0000
  H   H20       1.0  0.59804  0.38308  0.62622  1.0000
  H   H21       1.0  0.35504  0.89474  0.72318  1.0000
  H   H22       1.0  0.64491  0.10527  0.27681  1.0000
  H   H23       1.0  0.43946  0.66513  0.71656  1.0000
  H   H24       1.0  0.56055  0.33489  0.28345  1.0000
  H   H25       1.0  0.31236  0.91104  0.88425  1.0000
  H   H26       1.0  0.68756  0.08897  0.11576  1.0000
  H   H27       1.0  0.31013  0.91407  0.07052  1.0000
  H   H28       1.0  0.68982  0.08593  0.92949  1.0000
  H   H29       1.0  0.51950  0.62595  0.05781  1.0000
  H   H30       1.0  0.48062  0.37409  0.94219  1.0000
  H   H31       1.0  0.51406  0.60684  0.86833  1.0000
  H   H32       1.0  0.48601  0.39320  0.13166  1.0000
  H   H33       1.0  0.91009  0.48436  0.25895  1.0000
  H   H34       1.0  0.08990  0.51560  0.74102  1.0000
  H   H35       1.0  0.94956  0.40275  0.14480  1.0000
  H   H36       1.0  0.05052  0.59723  0.85517  1.0000
  H   H37       1.0  0.05157  0.46037  0.41355  1.0000
  H   H38       1.0  0.94846  0.53961  0.58642  1.0000
  H   H39       1.0  0.14738  0.14304  0.44456  1.0000
  H   H40       1.0  0.85264  0.85695  0.55544  1.0000
  H   H41       1.0  0.08179  0.24938  0.15219  1.0000
  H   H42       1.0  0.91820  0.75059  0.84780  1.0000
  C   C1        1.0  0.35015  0.86730  0.41953  1.0000
  C   C2        1.0  0.64983  0.13271  0.58047  1.0000
  C   C3        1.0  0.35062  0.88214  0.52447  1.0000
  C   C4        1.0  0.64935  0.11787  0.47552  1.0000
  C   C5        1.0  0.37151  0.79816  0.57958  1.0000
  C   C6        1.0  0.62850  0.20185  0.42042  1.0000
  C   C7        1.0  0.38596  0.70008  0.52291  1.0000
  C   C8        1.0  0.61405  0.29993  0.47709  1.0000
  C   C9        1.0  0.38663  0.69151  0.41852  1.0000
  C   C10       1.0  0.61338  0.30850  0.58148  1.0000
  C   C11       1.0  0.37559  0.81569  0.68944  1.0000
  C   C12       1.0  0.62438  0.18432  0.31056  1.0000
  C   C13       1.0  0.40960  0.74265  0.74987  1.0000
  C   C14       1.0  0.59039  0.25737  0.25014  1.0000
  C   C15       1.0  0.41291  0.75726  0.85976  1.0000
  C   C16       1.0  0.58707  0.24276  0.14025  1.0000
  C   C17       1.0  0.35758  0.84528  0.91888  1.0000
  C   C18       1.0  0.64236  0.15473  0.08112  1.0000
  C   C19       1.0  0.35838  0.84824  0.02337  1.0000
  C   C20       1.0  0.64158  0.15176  0.97664  1.0000
  C   C21       1.0  0.47241  0.68611  0.01575  1.0000
  C   C22       1.0  0.52764  0.31392  0.98425  1.0000
  C   C23       1.0  0.47052  0.67657  0.91117  1.0000
  C   C24       1.0  0.52950  0.32346  0.08882  1.0000
  C   C25       1.0  0.20561  0.51981  0.20820  1.0000
  C   C26       1.0  0.79440  0.48018  0.79181  1.0000
  C   C27       1.0  0.01744  0.44035  0.21999  1.0000
  C   C28       1.0  0.98258  0.55963  0.77999  1.0000
  C   C29       1.0  0.07749  0.38153  0.38308  1.0000
  C   C30       1.0  0.92253  0.61845  0.61691  1.0000
  C   C31       1.0  0.11505  0.30636  0.44428  1.0000
  C   C32       1.0  0.88497  0.69363  0.55571  1.0000
  C   C33       1.0  0.12877  0.20468  0.39783  1.0000
  C   C34       1.0  0.87123  0.79530  0.60217  1.0000
  C   C35       1.0  0.12008  0.18270  0.29196  1.0000
  C   C36       1.0  0.87991  0.81728  0.70803  1.0000
  C   C37       1.0  0.08926  0.26218  0.23474  1.0000
  C   C38       1.0  0.91073  0.73779  0.76525  1.0000
  C   C39       1.0  0.14104  0.33738  0.55915  1.0000
  C   C40       1.0  0.85897  0.66261  0.44084  1.0000
  C   C41       1.0  0.13885  0.07461  0.23715  1.0000
  C   C42       1.0  0.86114  0.92536  0.76286  1.0000
  N   N1        1.0  0.37062  0.77380  0.36697  1.0000
  N   N2        1.0  0.62936  0.22621  0.63303  1.0000
  N   N3        1.0  0.41595  0.76988  0.07132  1.0000
  N   N4        1.0  0.58405  0.23013  0.92868  1.0000
  N   N5        1.0  0.06064  0.35772  0.28051  1.0000
  N   N6        1.0  0.93937  0.64226  0.71948  1.0000
  O   O1        1.0  0.16727  0.60000  0.17119  1.0000
  O   O2        1.0  0.83274  0.39999  0.82882  1.0000
  O   O3        1.0  0.68857  0.93871  0.23096  1.0000
  O   O4        1.0  0.31142  0.06131  0.76908  1.0000
  O   O5        1.0  0.11708  0.81460  0.20024  1.0000
  O   O6        1.0  0.88288  0.18538  0.79977  1.0000
  O   O7        1.0  0.37739  0.49915  0.23724  1.0000
  O   O8        1.0  0.62262  0.50085  0.76277  1.0000
  O   O9        1.0  0.16706  0.43473  0.59169  1.0000
  O   O10       1.0  0.83301  0.56527  0.40829  1.0000
  O   O11       1.0  0.62033  0.68043  0.22570  1.0000
  O   O12       1.0  0.37966  0.31957  0.77431  1.0000
  O   O13       1.0  0.14025  0.26102  0.61117  1.0000
  O   O14       1.0  0.85973  0.73898  0.38883  1.0000
  O   O15       1.0  0.09605  0.99867  0.29073  1.0000
  O   O16       1.0  0.90396  0.00131  0.70928  1.0000
  O   O17       1.0  0.18900  0.06743  0.14861  1.0000
  O   O18       1.0  0.81102  0.93254  0.85139  1.0000
