data_image0
_chemical_formula_structural       As2H20Pb2C30N2O24
_chemical_formula_sum              "As2 H20 Pb2 C30 N2 O24"
_cell_length_a       5.0798
_cell_length_b       11.9441
_cell_length_c       14.952
_cell_angle_alpha    99.0648
_cell_angle_beta     94.9427
_cell_angle_gamma    97.9019

_space_group_name_H-M_alt    "P 1"
_space_group_IT_number       1

loop_
  _space_group_symop_operation_xyz
  'x, y, z'

loop_
  _atom_site_type_symbol
  _atom_site_label
  _atom_site_symmetry_multiplicity
  _atom_site_fract_x
  _atom_site_fract_y
  _atom_site_fract_z
  _atom_site_occupancy
  As  As1       1.0  0.00156  0.13814  0.42816  1.0000
  As  As2       1.0  0.99844  0.86186  0.57184  1.0000
  H   H1        1.0  0.41666  0.33438  0.22865  1.0000
  H   H2        1.0  0.58335  0.66561  0.77135  1.0000
  H   H3        1.0  0.24479  0.38137  0.44435  1.0000
  H   H4        1.0  0.75520  0.61862  0.55565  1.0000
  H   H5        1.0  0.54260  0.16727  0.29399  1.0000
  H   H6        1.0  0.45739  0.83273  0.70601  1.0000
  H   H7        1.0  0.87132  0.26406  0.11404  1.0000
  H   H8        1.0  0.12868  0.73594  0.88596  1.0000
  H   H9        1.0  0.95842  0.31142  0.83750  1.0000
  H   H10       1.0  0.04159  0.68858  0.16250  1.0000
  H   H11       1.0  0.37412  0.07022  0.95588  1.0000
  H   H12       1.0  0.62589  0.92978  0.04412  1.0000
  H   H13       1.0  0.79802  0.61011  0.28313  1.0000
  H   H14       1.0  0.20198  0.38988  0.71687  1.0000
  H   H15       1.0  0.56721  0.50068  0.92829  1.0000
  H   H16       1.0  0.43279  0.49932  0.07170  1.0000
  H   H17       1.0  0.45633  0.99483  0.15708  1.0000
  H   H18       1.0  0.54366  0.00518  0.84292  1.0000
  H   H19       1.0  0.12001  0.06824  0.28430  1.0000
  H   H20       1.0  0.87999  0.93176  0.71570  1.0000
  Pb  Pb1       1.0  0.54079  0.12590  0.61259  1.0000
  Pb  Pb2       1.0  0.45920  0.87410  0.38741  1.0000
  C   C1        1.0  0.59709  0.34305  0.27564  1.0000
  C   C2        1.0  0.40291  0.65695  0.72436  1.0000
  C   C3        1.0  0.75578  0.45234  0.29852  1.0000
  C   C4        1.0  0.24421  0.54766  0.70148  1.0000
  C   C5        1.0  0.99340  0.46285  0.35914  1.0000
  C   C6        1.0  0.00659  0.53715  0.64086  1.0000
  C   C7        1.0  0.06446  0.36923  0.39670  1.0000
  C   C8        1.0  0.93554  0.63077  0.60330  1.0000
  C   C9        1.0  0.90256  0.26392  0.37268  1.0000
  C   C10       1.0  0.09744  0.73608  0.62732  1.0000
  C   C11       1.0  0.66889  0.25057  0.31179  1.0000
  C   C12       1.0  0.33110  0.74942  0.68821  1.0000
  C   C13       1.0  0.95778  0.24250  0.05057  1.0000
  C   C14       1.0  0.04222  0.75750  0.94943  1.0000
  C   C15       1.0  0.89822  0.29726  0.97683  1.0000
  C   C16       1.0  0.10179  0.70274  0.02317  1.0000
  C   C17       1.0  0.00705  0.26911  0.89478  1.0000
  C   C18       1.0  0.99295  0.73089  0.10522  1.0000
  C   C19       1.0  0.17825  0.18656  0.88583  1.0000
  C   C20       1.0  0.82176  0.81345  0.11417  1.0000
  C   C21       1.0  0.24047  0.13379  0.96025  1.0000
  C   C22       1.0  0.75954  0.86622  0.03976  1.0000
  C   C23       1.0  0.13106  0.16132  0.04228  1.0000
  C   C24       1.0  0.86894  0.83868  0.95772  1.0000
  C   C25       1.0  0.20274  0.10440  0.12086  1.0000
  C   C26       1.0  0.79726  0.89560  0.87914  1.0000
  C   C27       1.0  0.72127  0.38651  0.98755  1.0000
  C   C28       1.0  0.27874  0.61349  0.01244  1.0000
  C   C29       1.0  0.29236  0.15785  0.79684  1.0000
  C   C30       1.0  0.70765  0.84216  0.20316  1.0000
  N   N1        1.0  0.16840  0.57025  0.38471  1.0000
  N   N2        1.0  0.83160  0.42975  0.61529  1.0000
  O   O1        1.0  0.11788  0.65183  0.34454  1.0000
  O   O2        1.0  0.88212  0.34816  0.65546  1.0000
  O   O3        1.0  0.35995  0.58036  0.44373  1.0000
  O   O4        1.0  0.64005  0.41964  0.55626  1.0000
  O   O5        1.0  0.66843  0.53776  0.26310  1.0000
  O   O6        1.0  0.33157  0.46223  0.73690  1.0000
  O   O7        1.0  0.69528  0.44021  0.91754  1.0000
  O   O8        1.0  0.30472  0.55979  0.08246  1.0000
  O   O9        1.0  0.61061  0.40717  0.05849  1.0000
  O   O10       1.0  0.38939  0.59284  0.94151  1.0000
  O   O11       1.0  0.23804  0.21374  0.73432  1.0000
  O   O12       1.0  0.76197  0.78626  0.26568  1.0000
  O   O13       1.0  0.44093  0.07856  0.78576  1.0000
  O   O14       1.0  0.55908  0.92144  0.21425  1.0000
  O   O15       1.0  0.39805  0.04431  0.10788  1.0000
  O   O16       1.0  0.60194  0.95569  0.89211  1.0000
  O   O17       1.0  0.08588  0.11634  0.19087  1.0000
  O   O18       1.0  0.91413  0.88366  0.80913  1.0000
  O   O19       1.0  0.72457  0.05807  0.45576  1.0000
  O   O20       1.0  0.27542  0.94192  0.54424  1.0000
  O   O21       1.0  0.22668  0.19678  0.51828  1.0000
  O   O22       1.0  0.77331  0.80322  0.48173  1.0000
  O   O23       1.0  0.14039  0.04498  0.34674  1.0000
  O   O24       1.0  0.85962  0.95502  0.65326  1.0000
