data_image0
_chemical_formula_structural       Li16H16C16N64
_chemical_formula_sum              "Li16 H16 C16 N64"
_cell_length_a       9.89857
_cell_length_b       9.89857
_cell_length_c       13.946
_cell_angle_alpha    90.0002
_cell_angle_beta     89.9998
_cell_angle_gamma    93.8695

_space_group_name_H-M_alt    "P 1"
_space_group_IT_number       1

loop_
  _space_group_symop_operation_xyz
  'x, y, z'

loop_
  _atom_site_type_symbol
  _atom_site_label
  _atom_site_symmetry_multiplicity
  _atom_site_fract_x
  _atom_site_fract_y
  _atom_site_fract_z
  _atom_site_occupancy
  Li  Li1       1.0  0.52622  0.47378  0.75000  1.0000
  Li  Li2       1.0  0.47378  0.52622  0.25000  1.0000
  Li  Li3       1.0  0.08361  0.91639  0.25000  1.0000
  Li  Li4       1.0  0.91640  0.08361  0.75000  1.0000
  Li  Li5       1.0  0.97628  0.97628  0.50000  1.0000
  Li  Li6       1.0  0.02372  0.02372  1.00000  1.0000
  Li  Li7       1.0  0.58963  0.97918  0.50002  1.0000
  Li  Li8       1.0  0.41037  0.02082  0.00002  1.0000
  Li  Li9       1.0  0.97918  0.58963  0.49998  1.0000
  Li  Li10      1.0  0.02082  0.41037  0.99998  1.0000
  Li  Li11      1.0  0.59051  0.59051  0.50000  1.0000
  Li  Li12      1.0  0.40949  0.40949  0.00000  1.0000
  Li  Li13      1.0  0.91286  0.47277  0.74965  1.0000
  Li  Li14      1.0  0.08714  0.52723  0.24965  1.0000
  Li  Li15      1.0  0.47277  0.91286  0.25035  1.0000
  Li  Li16      1.0  0.52723  0.08714  0.75035  1.0000
  H   H1        1.0  0.67260  0.29328  0.42883  1.0000
  H   H2        1.0  0.32740  0.70672  0.92883  1.0000
  H   H3        1.0  0.29327  0.67262  0.57117  1.0000
  H   H4        1.0  0.70672  0.32740  0.07117  1.0000
  H   H5        1.0  0.77445  0.83098  0.17905  1.0000
  H   H6        1.0  0.22555  0.16902  0.67905  1.0000
  H   H7        1.0  0.83098  0.77445  0.82095  1.0000
  H   H8        1.0  0.16902  0.22555  0.32095  1.0000
  H   H9        1.0  0.21986  0.51017  0.67219  1.0000
  H   H10       1.0  0.78014  0.48984  0.17218  1.0000
  H   H11       1.0  0.51016  0.21986  0.32781  1.0000
  H   H12       1.0  0.48983  0.78014  0.82781  1.0000
  H   H13       1.0  0.28713  0.01196  0.57851  1.0000
  H   H14       1.0  0.71288  0.98804  0.07851  1.0000
  H   H15       1.0  0.01197  0.28712  0.42149  1.0000
  H   H16       1.0  0.98804  0.71287  0.92149  1.0000
  C   C1        1.0  0.77597  0.87146  0.25125  1.0000
  C   C2        1.0  0.22404  0.12853  0.75125  1.0000
  C   C3        1.0  0.87146  0.77597  0.74875  1.0000
  C   C4        1.0  0.12853  0.22403  0.24875  1.0000
  C   C5        1.0  0.21918  0.48024  0.74692  1.0000
  C   C6        1.0  0.78082  0.51977  0.24692  1.0000
  C   C7        1.0  0.48023  0.21918  0.25308  1.0000
  C   C8        1.0  0.51976  0.78082  0.75308  1.0000
  C   C9        1.0  0.63242  0.28874  0.50113  1.0000
  C   C10       1.0  0.36758  0.71126  0.00113  1.0000
  C   C11       1.0  0.28874  0.63243  0.49887  1.0000
  C   C12       1.0  0.71126  0.36758  0.99887  1.0000
  C   C13       1.0  0.28382  0.98322  0.50354  1.0000
  C   C14       1.0  0.71618  0.01678  0.00354  1.0000
  C   C15       1.0  0.98322  0.28381  0.49646  1.0000
  C   C16       1.0  0.01678  0.71618  0.99646  1.0000
  N   N1        1.0  0.60329  0.39770  0.55221  1.0000
  N   N2        1.0  0.39671  0.60230  0.05221  1.0000
  N   N3        1.0  0.39770  0.60330  0.44779  1.0000
  N   N4        1.0  0.60230  0.39671  0.94779  1.0000
  N   N5        1.0  0.66546  0.89914  0.30111  1.0000
  N   N6        1.0  0.33455  0.10086  0.80111  1.0000
  N   N7        1.0  0.89914  0.66546  0.69890  1.0000
  N   N8        1.0  0.10086  0.33454  0.19889  1.0000
  N   N9        1.0  0.28295  0.41839  0.88489  1.0000
  N   N10       1.0  0.71705  0.58160  0.38489  1.0000
  N   N11       1.0  0.41839  0.28295  0.11511  1.0000
  N   N12       1.0  0.58160  0.71705  0.61511  1.0000
  N   N13       1.0  0.71291  0.94308  0.38682  1.0000
  N   N14       1.0  0.28709  0.05692  0.88683  1.0000
  N   N15       1.0  0.94308  0.71291  0.61318  1.0000
  N   N16       1.0  0.05692  0.28709  0.11317  1.0000
  N   N17       1.0  0.88915  0.89750  0.30259  1.0000
  N   N18       1.0  0.11085  0.10250  0.80259  1.0000
  N   N19       1.0  0.89750  0.88915  0.69741  1.0000
  N   N20       1.0  0.10250  0.11085  0.19741  1.0000
  N   N21       1.0  0.84630  0.94196  0.38759  1.0000
  N   N22       1.0  0.15370  0.05803  0.88759  1.0000
  N   N23       1.0  0.94196  0.84630  0.61241  1.0000
  N   N24       1.0  0.05804  0.15370  0.11241  1.0000
  N   N25       1.0  0.32986  0.45479  0.79733  1.0000
  N   N26       1.0  0.67014  0.54522  0.29733  1.0000
  N   N27       1.0  0.45478  0.32986  0.20267  1.0000
  N   N28       1.0  0.54521  0.67014  0.70267  1.0000
  N   N29       1.0  0.39350  0.96082  0.45115  1.0000
  N   N30       1.0  0.60650  0.03918  0.95115  1.0000
  N   N31       1.0  0.96083  0.39350  0.54885  1.0000
  N   N32       1.0  0.03918  0.60650  0.04885  1.0000
  N   N33       1.0  0.34487  0.92483  0.36420  1.0000
  N   N34       1.0  0.65513  0.07517  0.86420  1.0000
  N   N35       1.0  0.92483  0.34487  0.63580  1.0000
  N   N36       1.0  0.07518  0.65513  0.13580  1.0000
  N   N37       1.0  0.10667  0.46141  0.80001  1.0000
  N   N38       1.0  0.89333  0.53859  0.30000  1.0000
  N   N39       1.0  0.46141  0.10667  0.20000  1.0000
  N   N40       1.0  0.53858  0.89333  0.70000  1.0000
  N   N41       1.0  0.60809  0.17424  0.55130  1.0000
  N   N42       1.0  0.39191  0.82575  0.05130  1.0000
  N   N43       1.0  0.17424  0.60810  0.44870  1.0000
  N   N44       1.0  0.82576  0.39191  0.94870  1.0000
  N   N45       1.0  0.56037  0.34821  0.63737  1.0000
  N   N46       1.0  0.43963  0.65179  0.13737  1.0000
  N   N47       1.0  0.34821  0.56037  0.36264  1.0000
  N   N48       1.0  0.65179  0.43963  0.86264  1.0000
  N   N49       1.0  0.21177  0.92629  0.36458  1.0000
  N   N50       1.0  0.78823  0.07370  0.86458  1.0000
  N   N51       1.0  0.92630  0.21177  0.63542  1.0000
  N   N52       1.0  0.07371  0.78823  0.13542  1.0000
  N   N53       1.0  0.15007  0.42240  0.88631  1.0000
  N   N54       1.0  0.84993  0.57760  0.38630  1.0000
  N   N55       1.0  0.42240  0.15007  0.11370  1.0000
  N   N56       1.0  0.57759  0.84993  0.61370  1.0000
  N   N57       1.0  0.56314  0.21492  0.63698  1.0000
  N   N58       1.0  0.43686  0.78508  0.13698  1.0000
  N   N59       1.0  0.21491  0.56314  0.36302  1.0000
  N   N60       1.0  0.78508  0.43686  0.86302  1.0000
  N   N61       1.0  0.16993  0.96294  0.45209  1.0000
  N   N62       1.0  0.83007  0.03705  0.95209  1.0000
  N   N63       1.0  0.96295  0.16993  0.54791  1.0000
  N   N64       1.0  0.03706  0.83007  0.04791  1.0000
