data_image0
_chemical_formula_structural       Rb6H6C6N24
_chemical_formula_sum              "Rb6 H6 C6 N24"
_cell_length_a       8.24664
_cell_length_b       8.24667
_cell_length_c       11.263
_cell_angle_alpha    89.9997
_cell_angle_beta     90.0001
_cell_angle_gamma    120

_space_group_name_H-M_alt    "P 1"
_space_group_IT_number       1

loop_
  _space_group_symop_operation_xyz
  'x, y, z'

loop_
  _atom_site_type_symbol
  _atom_site_label
  _atom_site_symmetry_multiplicity
  _atom_site_fract_x
  _atom_site_fract_y
  _atom_site_fract_z
  _atom_site_occupancy
  Rb  Rb1       1.0  0.66667  0.33333  0.03248  1.0000
  Rb  Rb2       1.0  0.33333  0.66667  0.53248  1.0000
  Rb  Rb3       1.0  0.33333  0.66667  0.96752  1.0000
  Rb  Rb4       1.0  0.66667  0.33333  0.46751  1.0000
  Rb  Rb5       1.0  0.00000  0.00000  0.00000  1.0000
  Rb  Rb6       1.0  0.00000  1.00000  0.50000  1.0000
  H   H1        1.0  0.40597  0.36346  0.75000  1.0000
  H   H2        1.0  0.63654  0.04250  0.75000  1.0000
  H   H3        1.0  0.95749  0.59403  0.74999  1.0000
  H   H4        1.0  0.36346  0.95750  0.25000  1.0000
  H   H5        1.0  0.04251  0.40597  0.25000  1.0000
  H   H6        1.0  0.59403  0.63654  0.25001  1.0000
  C   C1        1.0  0.37337  0.21869  0.75000  1.0000
  C   C2        1.0  0.78130  0.15467  0.75000  1.0000
  C   C3        1.0  0.84532  0.62663  0.75000  1.0000
  C   C4        1.0  0.21870  0.84533  0.25000  1.0000
  C   C5        1.0  0.15467  0.37337  0.25000  1.0000
  C   C6        1.0  0.62664  0.78130  0.25000  1.0000
  N   N1        1.0  0.34948  0.11817  0.84884  1.0000
  N   N2        1.0  0.88182  0.23130  0.84884  1.0000
  N   N3        1.0  0.76869  0.65052  0.84884  1.0000
  N   N4        1.0  0.11817  0.76870  0.34884  1.0000
  N   N5        1.0  0.23130  0.34948  0.34884  1.0000
  N   N6        1.0  0.65053  0.88183  0.34884  1.0000
  N   N7        1.0  0.65053  0.88183  0.15116  1.0000
  N   N8        1.0  0.11817  0.76870  0.15116  1.0000
  N   N9        1.0  0.23131  0.34948  0.15116  1.0000
  N   N10       1.0  0.88183  0.23130  0.65116  1.0000
  N   N11       1.0  0.76869  0.65052  0.65116  1.0000
  N   N12       1.0  0.34947  0.11817  0.65116  1.0000
  N   N13       1.0  0.30814  0.94693  0.80869  1.0000
  N   N14       1.0  0.05306  0.36121  0.80869  1.0000
  N   N15       1.0  0.63879  0.69186  0.80869  1.0000
  N   N16       1.0  0.94694  0.63879  0.30869  1.0000
  N   N17       1.0  0.36121  0.30814  0.30869  1.0000
  N   N18       1.0  0.69186  0.05307  0.30869  1.0000
  N   N19       1.0  0.69186  0.05307  0.19131  1.0000
  N   N20       1.0  0.94694  0.63879  0.19131  1.0000
  N   N21       1.0  0.36121  0.30814  0.19131  1.0000
  N   N22       1.0  0.05307  0.36121  0.69131  1.0000
  N   N23       1.0  0.63879  0.69186  0.69131  1.0000
  N   N24       1.0  0.30814  0.94693  0.69131  1.0000
