data_image0
_chemical_formula_structural       Zn4H36C44N12O8
_chemical_formula_sum              "Zn4 H36 C44 N12 O8"
_cell_length_a       9.44821
_cell_length_b       9.60103
_cell_length_c       14.4067
_cell_angle_alpha    96.8118
_cell_angle_beta     90.0007
_cell_angle_gamma    90.0005

_space_group_name_H-M_alt    "P 1"
_space_group_IT_number       1

loop_
  _space_group_symop_operation_xyz
  'x, y, z'

loop_
  _atom_site_type_symbol
  _atom_site_label
  _atom_site_symmetry_multiplicity
  _atom_site_fract_x
  _atom_site_fract_y
  _atom_site_fract_z
  _atom_site_occupancy
  Zn  Zn1       1.0  0.94565  0.39694  0.59782  1.0000
  Zn  Zn2       1.0  0.44565  0.10306  0.40218  1.0000
  Zn  Zn3       1.0  0.05435  0.60305  0.40218  1.0000
  Zn  Zn4       1.0  0.55436  0.89694  0.59782  1.0000
  H   H1        1.0  0.31204  0.38584  0.33474  1.0000
  H   H2        1.0  0.81206  0.11416  0.66525  1.0000
  H   H3        1.0  0.68797  0.61417  0.66527  1.0000
  H   H4        1.0  0.18795  0.88583  0.33474  1.0000
  H   H5        1.0  0.19031  0.17317  0.56192  1.0000
  H   H6        1.0  0.69031  0.32683  0.43807  1.0000
  H   H7        1.0  0.80969  0.82683  0.43808  1.0000
  H   H8        1.0  0.30969  0.67318  0.56193  1.0000
  H   H9        1.0  0.00996  0.39509  0.90011  1.0000
  H   H10       1.0  0.50994  0.10492  0.09988  1.0000
  H   H11       1.0  0.99003  0.60491  0.09989  1.0000
  H   H12       1.0  0.49005  0.89508  0.90012  1.0000
  H   H13       1.0  0.12344  0.09571  0.84505  1.0000
  H   H14       1.0  0.62344  0.40428  0.15495  1.0000
  H   H15       1.0  0.87655  0.90428  0.15495  1.0000
  H   H16       1.0  0.37656  0.59572  0.84504  1.0000
  H   H17       1.0  0.22829  0.98400  0.96974  1.0000
  H   H18       1.0  0.72829  0.51601  0.03026  1.0000
  H   H19       1.0  0.77170  0.01599  0.03026  1.0000
  H   H20       1.0  0.27171  0.48399  0.96974  1.0000
  H   H21       1.0  0.25476  0.95877  0.13832  1.0000
  H   H22       1.0  0.75475  0.54123  0.86168  1.0000
  H   H23       1.0  0.74524  0.04123  0.86168  1.0000
  H   H24       1.0  0.24525  0.45876  0.13832  1.0000
  H   H25       1.0  0.13708  0.12860  0.25793  1.0000
  H   H26       1.0  0.63707  0.37141  0.74207  1.0000
  H   H27       1.0  0.86293  0.87141  0.74207  1.0000
  H   H28       1.0  0.36293  0.62859  0.25793  1.0000
  H   H29       1.0  0.99638  0.32762  0.20770  1.0000
  H   H30       1.0  0.49638  0.17238  0.79230  1.0000
  H   H31       1.0  0.00362  0.67238  0.79230  1.0000
  H   H32       1.0  0.50362  0.82762  0.20770  1.0000
  H   H33       1.0  0.97044  0.35205  0.04050  1.0000
  H   H34       1.0  0.47044  0.14795  0.95949  1.0000
  H   H35       1.0  0.02956  0.64795  0.95950  1.0000
  H   H36       1.0  0.52956  0.85205  0.04050  1.0000
  C   C1        1.0  0.25523  0.35535  0.39462  1.0000
  C   C2        1.0  0.75524  0.14465  0.60538  1.0000
  C   C3        1.0  0.74478  0.64466  0.60539  1.0000
  C   C4        1.0  0.24476  0.85535  0.39462  1.0000
  C   C5        1.0  0.19603  0.24564  0.50953  1.0000
  C   C6        1.0  0.69602  0.25436  0.49047  1.0000
  C   C7        1.0  0.80398  0.75436  0.49048  1.0000
  C   C8        1.0  0.30397  0.74565  0.50953  1.0000
  C   C9        1.0  0.02676  0.30317  0.75508  1.0000
  C   C10       1.0  0.52675  0.19684  0.24491  1.0000
  C   C11       1.0  0.97324  0.69683  0.24492  1.0000
  C   C12       1.0  0.47325  0.80316  0.75509  1.0000
  C   C13       1.0  0.04291  0.30004  0.85650  1.0000
  C   C14       1.0  0.54289  0.19996  0.14349  1.0000
  C   C15       1.0  0.95709  0.69996  0.14350  1.0000
  C   C16       1.0  0.45711  0.80004  0.85650  1.0000
  C   C17       1.0  0.09055  0.18628  0.89361  1.0000
  C   C18       1.0  0.59054  0.31372  0.10639  1.0000
  C   C19       1.0  0.90944  0.81372  0.10639  1.0000
  C   C20       1.0  0.40946  0.68628  0.89361  1.0000
  C   C21       1.0  0.10200  0.17280  0.99304  1.0000
  C   C22       1.0  0.60200  0.32720  0.00695  1.0000
  C   C23       1.0  0.89799  0.82720  0.00696  1.0000
  C   C24       1.0  0.39800  0.67280  0.99304  1.0000
  C   C25       1.0  0.17961  0.06054  0.02228  1.0000
  C   C26       1.0  0.67961  0.43947  0.97771  1.0000
  C   C27       1.0  0.82038  0.93946  0.97772  1.0000
  C   C28       1.0  0.32039  0.56053  0.02229  1.0000
  C   C29       1.0  0.19314  0.04534  0.11691  1.0000
  C   C30       1.0  0.69313  0.45467  0.88309  1.0000
  C   C31       1.0  0.80686  0.95467  0.88310  1.0000
  C   C32       1.0  0.30686  0.54533  0.11690  1.0000
  C   C33       1.0  0.12747  0.14105  0.18393  1.0000
  C   C34       1.0  0.62747  0.35896  0.81607  1.0000
  C   C35       1.0  0.87254  0.85896  0.81607  1.0000
  C   C36       1.0  0.37254  0.64104  0.18393  1.0000
  C   C37       1.0  0.04774  0.25179  0.15617  1.0000
  C   C38       1.0  0.54773  0.24820  0.84382  1.0000
  C   C39       1.0  0.95227  0.74821  0.84383  1.0000
  C   C40       1.0  0.45227  0.75179  0.15618  1.0000
  C   C41       1.0  0.03532  0.26732  0.06169  1.0000
  C   C42       1.0  0.53532  0.23267  0.93831  1.0000
  C   C43       1.0  0.96468  0.73268  0.93831  1.0000
  C   C44       1.0  0.46468  0.76732  0.06169  1.0000
  N   N1        1.0  0.10723  0.35318  0.50933  1.0000
  N   N2        1.0  0.60723  0.14682  0.49067  1.0000
  N   N3        1.0  0.89277  0.64682  0.49067  1.0000
  N   N4        1.0  0.39277  0.85318  0.50933  1.0000
  N   N5        1.0  0.14467  0.42330  0.43536  1.0000
  N   N6        1.0  0.64467  0.07670  0.56464  1.0000
  N   N7        1.0  0.85534  0.57670  0.56464  1.0000
  N   N8        1.0  0.35533  0.92330  0.43536  1.0000
  N   N9        1.0  0.29028  0.24331  0.43871  1.0000
  N   N10       1.0  0.79029  0.25669  0.56129  1.0000
  N   N11       1.0  0.70972  0.75670  0.56130  1.0000
  N   N12       1.0  0.20971  0.74331  0.43871  1.0000
  O   O1        1.0  0.98186  0.42359  0.73127  1.0000
  O   O2        1.0  0.48185  0.07642  0.26873  1.0000
  O   O3        1.0  0.01815  0.57641  0.26873  1.0000
  O   O4        1.0  0.51816  0.92358  0.73127  1.0000
  O   O5        1.0  0.04987  0.19861  0.69562  1.0000
  O   O6        1.0  0.54986  0.30140  0.30437  1.0000
  O   O7        1.0  0.95014  0.80140  0.30438  1.0000
  O   O8        1.0  0.45013  0.69860  0.69562  1.0000
