data_image0
_chemical_formula_structural       Ag4H12C16O12
_chemical_formula_sum              "Ag4 H12 C16 O12"
_cell_length_a       6.70849
_cell_length_b       8.50454
_cell_length_c       9.77458
_cell_angle_alpha    98.1075
_cell_angle_beta     104.222
_cell_angle_gamma    113.773

_space_group_name_H-M_alt    "P 1"
_space_group_IT_number       1

loop_
  _space_group_symop_operation_xyz
  'x, y, z'

loop_
  _atom_site_type_symbol
  _atom_site_label
  _atom_site_symmetry_multiplicity
  _atom_site_fract_x
  _atom_site_fract_y
  _atom_site_fract_z
  _atom_site_occupancy
  Ag  Ag1       1.0  0.39280  0.35155  0.05052  1.0000
  Ag  Ag2       1.0  0.60719  0.64845  0.94948  1.0000
  Ag  Ag3       1.0  0.22235  0.62218  0.09167  1.0000
  Ag  Ag4       1.0  0.77766  0.37782  0.90834  1.0000
  H   H1        1.0  0.46637  0.75207  0.43459  1.0000
  H   H2        1.0  0.53364  0.24793  0.56540  1.0000
  H   H3        1.0  0.23936  0.96946  0.04473  1.0000
  H   H4        1.0  0.76063  0.03053  0.95528  1.0000
  H   H5        1.0  0.09649  0.99506  0.13864  1.0000
  H   H6        1.0  0.90350  0.00495  0.86136  1.0000
  H   H7        1.0  0.77784  0.99211  0.63002  1.0000
  H   H8        1.0  0.22217  0.00788  0.36998  1.0000
  H   H9        1.0  0.59899  0.98515  0.17400  1.0000
  H   H10       1.0  0.40101  0.01485  0.82600  1.0000
  H   H11       1.0  0.18809  0.43929  0.49451  1.0000
  H   H12       1.0  0.81191  0.56072  0.50549  1.0000
  C   C1        1.0  0.16294  0.31961  0.73197  1.0000
  C   C2        1.0  0.83706  0.68038  0.26803  1.0000
  C   C3        1.0  0.99869  0.22653  0.57814  1.0000
  C   C4        1.0  0.00131  0.77347  0.42186  1.0000
  C   C5        1.0  0.81167  0.05676  0.54379  1.0000
  C   C6        1.0  0.18833  0.94324  0.45621  1.0000
  C   C7        1.0  0.67189  0.97070  0.39780  1.0000
  C   C8        1.0  0.32812  0.02930  0.60219  1.0000
  C   C9        1.0  0.71175  0.05306  0.28699  1.0000
  C   C10       1.0  0.28825  0.94694  0.71301  1.0000
  C   C11       1.0  0.89715  0.22192  0.32147  1.0000
  C   C12       1.0  0.10285  0.77808  0.67852  1.0000
  C   C13       1.0  0.04181  0.30839  0.46704  1.0000
  C   C14       1.0  0.95819  0.69160  0.53297  1.0000
  C   C15       1.0  0.93916  0.31047  0.20303  1.0000
  C   C16       1.0  0.06084  0.68954  0.79698  1.0000
  O   O1        1.0  0.13357  0.23433  0.82961  1.0000
  O   O2        1.0  0.86642  0.76567  0.17039  1.0000
  O   O3        1.0  0.32124  0.47533  0.75150  1.0000
  O   O4        1.0  0.67876  0.52467  0.24850  1.0000
  O   O5        1.0  0.49289  0.80136  0.35292  1.0000
  O   O6        1.0  0.50712  0.19863  0.64708  1.0000
  O   O7        1.0  0.78864  0.23035  0.07332  1.0000
  O   O8        1.0  0.21136  0.76966  0.92668  1.0000
  O   O9        1.0  0.11971  0.45805  0.23912  1.0000
  O   O10       1.0  0.88030  0.54196  0.76089  1.0000
  O   O11       1.0  0.23867  0.06165  0.11802  1.0000
  O   O12       1.0  0.76133  0.93834  0.88198  1.0000
