data_image0
_chemical_formula_structural       Y2H30C22N6O18
_chemical_formula_sum              "Y2 H30 C22 N6 O18"
_cell_length_a       7.50887
_cell_length_b       8.99442
_cell_length_c       13.0256
_cell_angle_alpha    92.2519
_cell_angle_beta     94.3449
_cell_angle_gamma    112.101

_space_group_name_H-M_alt    "P 1"
_space_group_IT_number       1

loop_
  _space_group_symop_operation_xyz
  'x, y, z'

loop_
  _atom_site_type_symbol
  _atom_site_label
  _atom_site_symmetry_multiplicity
  _atom_site_fract_x
  _atom_site_fract_y
  _atom_site_fract_z
  _atom_site_occupancy
  Y   Y1        1.0  0.74728  0.49936  0.64965  1.0000
  Y   Y2        1.0  0.25272  0.50064  0.35035  1.0000
  H   H1        1.0  0.71765  0.06016  0.54369  1.0000
  H   H2        1.0  0.28234  0.93984  0.45630  1.0000
  H   H3        1.0  0.19681  0.30904  0.03161  1.0000
  H   H4        1.0  0.80319  0.69094  0.96839  1.0000
  H   H5        1.0  0.23656  0.29936  0.89802  1.0000
  H   H6        1.0  0.76345  0.70062  0.10198  1.0000
  H   H7        1.0  0.08578  0.12320  0.95565  1.0000
  H   H8        1.0  0.91422  0.87679  0.04435  1.0000
  H   H9        1.0  0.29821  0.68117  0.66448  1.0000
  H   H10       1.0  0.70178  0.31883  0.33552  1.0000
  H   H11       1.0  0.60278  0.07494  0.69602  1.0000
  H   H12       1.0  0.39722  0.92506  0.30399  1.0000
  H   H13       1.0  0.58884  0.87209  0.70719  1.0000
  H   H14       1.0  0.41115  0.12790  0.29281  1.0000
  H   H15       1.0  0.59465  0.99402  0.81938  1.0000
  H   H16       1.0  0.40534  0.00597  0.18062  1.0000
  H   H17       1.0  0.07027  0.38104  0.79077  1.0000
  H   H18       1.0  0.92974  0.61896  0.20923  1.0000
  H   H19       1.0  0.33918  0.14088  0.74886  1.0000
  H   H20       1.0  0.66082  0.85912  0.25114  1.0000
  H   H21       1.0  0.21741  0.00496  0.84112  1.0000
  H   H22       1.0  0.78260  0.99505  0.15888  1.0000
  H   H23       1.0  0.10381  0.98830  0.71378  1.0000
  H   H24       1.0  0.89619  0.01170  0.28623  1.0000
  H   H25       1.0  0.88128  0.30949  0.07511  1.0000
  H   H26       1.0  0.11871  0.69051  0.92489  1.0000
  H   H27       1.0  0.74292  0.12626  0.99992  1.0000
  H   H28       1.0  0.25708  0.87374  0.00008  1.0000
  H   H29       1.0  0.70866  0.30768  0.97173  1.0000
  H   H30       1.0  0.29135  0.69232  0.02827  1.0000
  C   C1        1.0  0.84095  0.03205  0.52475  1.0000
  C   C2        1.0  0.15903  0.96795  0.47525  1.0000
  C   C3        1.0  0.62344  0.74229  0.50419  1.0000
  C   C4        1.0  0.37656  0.25772  0.49581  1.0000
  C   C5        1.0  0.81927  0.87323  0.50081  1.0000
  C   C6        1.0  0.18073  0.12676  0.49920  1.0000
  C   C7        1.0  0.03357  0.32696  0.55410  1.0000
  C   C8        1.0  0.96643  0.67304  0.44590  1.0000
  C   C9        1.0  0.13094  0.25460  0.95430  1.0000
  C   C10       1.0  0.86906  0.74539  0.04570  1.0000
  C   C11       1.0  0.01965  0.15935  0.52486  1.0000
  C   C12       1.0  0.98034  0.84065  0.47514  1.0000
  C   C13       1.0  0.22231  0.75592  0.69299  1.0000
  C   C14       1.0  0.77768  0.24408  0.30701  1.0000
  C   C15       1.0  0.54196  0.96548  0.73705  1.0000
  C   C16       1.0  0.45804  0.03452  0.26296  1.0000
  C   C17       1.0  0.94753  0.35928  0.83727  1.0000
  C   C18       1.0  0.05248  0.64072  0.16273  1.0000
  C   C19       1.0  0.24291  0.01724  0.75928  1.0000
  C   C20       1.0  0.75709  0.98277  0.24071  1.0000
  C   C21       1.0  0.81514  0.25762  0.99724  1.0000
  C   C22       1.0  0.18487  0.74238  0.00275  1.0000
  N   N1        1.0  0.33202  0.90760  0.72513  1.0000
  N   N2        1.0  0.66797  0.09240  0.27487  1.0000
  N   N3        1.0  0.96377  0.29439  0.92611  1.0000
  N   N4        1.0  0.03624  0.70561  0.07388  1.0000
  N   N5        1.0  0.52845  0.57469  0.80693  1.0000
  N   N6        1.0  0.47155  0.42531  0.19307  1.0000
  O   O1        1.0  0.59446  0.66031  0.58276  1.0000
  O   O2        1.0  0.40554  0.33969  0.41724  1.0000
  O   O3        1.0  0.15710  0.44486  0.51600  1.0000
  O   O4        1.0  0.84290  0.55514  0.48400  1.0000
  O   O5        1.0  0.91764  0.33862  0.61743  1.0000
  O   O6        1.0  0.08236  0.66138  0.38257  1.0000
  O   O7        1.0  0.49613  0.72715  0.43029  1.0000
  O   O8        1.0  0.50387  0.27285  0.56971  1.0000
  O   O9        1.0  0.80541  0.39413  0.80768  1.0000
  O   O10       1.0  0.19461  0.60588  0.19232  1.0000
  O   O11       1.0  0.04129  0.70139  0.69311  1.0000
  O   O12       1.0  0.95871  0.29862  0.30689  1.0000
  O   O13       1.0  0.45477  0.44492  0.74728  1.0000
  O   O14       1.0  0.54523  0.55508  0.25272  1.0000
  O   O15       1.0  0.70341  0.66579  0.79621  1.0000
  O   O16       1.0  0.29659  0.33421  0.20379  1.0000
  O   O17       1.0  0.43457  0.61077  0.87128  1.0000
  O   O18       1.0  0.56543  0.38923  0.12872  1.0000
