data_image0
_chemical_formula_structural       Ge6H28C12N4O12
_chemical_formula_sum              "Ge6 H28 C12 N4 O12"
_cell_length_a       5.33634
_cell_length_b       7.43324
_cell_length_c       14.7622
_cell_angle_alpha    90.9345
_cell_angle_beta     89.9964
_cell_angle_gamma    89.9995

_space_group_name_H-M_alt    "P 1"
_space_group_IT_number       1

loop_
  _space_group_symop_operation_xyz
  'x, y, z'

loop_
  _atom_site_type_symbol
  _atom_site_label
  _atom_site_symmetry_multiplicity
  _atom_site_fract_x
  _atom_site_fract_y
  _atom_site_fract_z
  _atom_site_occupancy
  Ge  Ge1       1.0  0.72253  0.61889  0.91560  1.0000
  Ge  Ge2       1.0  0.25193  0.37762  0.91654  1.0000
  Ge  Ge3       1.0  0.75192  0.12240  0.08347  1.0000
  Ge  Ge4       1.0  0.22251  0.88112  0.08441  1.0000
  Ge  Ge5       1.0  0.99329  0.99541  0.88945  1.0000
  Ge  Ge6       1.0  0.49325  0.50461  0.11056  1.0000
  H   H1        1.0  0.73690  0.92413  0.69378  1.0000
  H   H2        1.0  0.26766  0.07374  0.70137  1.0000
  H   H3        1.0  0.76756  0.42625  0.29862  1.0000
  H   H4        1.0  0.23681  0.57589  0.30622  1.0000
  H   H5        1.0  0.65013  0.21966  0.61723  1.0000
  H   H6        1.0  0.36756  0.78782  0.61432  1.0000
  H   H7        1.0  0.86744  0.71215  0.38567  1.0000
  H   H8        1.0  0.15000  0.28036  0.38278  1.0000
  H   H9        1.0  0.97296  0.27074  0.62257  1.0000
  H   H10       1.0  0.04584  0.73223  0.61337  1.0000
  H   H11       1.0  0.54572  0.76775  0.38663  1.0000
  H   H12       1.0  0.47283  0.22926  0.37743  1.0000
  H   H13       1.0  0.86644  0.13953  0.46971  1.0000
  H   H14       1.0  0.16134  0.87447  0.46710  1.0000
  H   H15       1.0  0.66127  0.62548  0.53289  1.0000
  H   H16       1.0  0.36631  0.36046  0.53029  1.0000
  H   H17       1.0  0.73490  0.94922  0.52085  1.0000
  H   H18       1.0  0.28816  0.06164  0.52552  1.0000
  H   H19       1.0  0.78804  0.43831  0.47445  1.0000
  H   H20       1.0  0.23481  0.55078  0.47916  1.0000
  H   H21       1.0  0.62274  0.12933  0.80266  1.0000
  H   H22       1.0  0.36851  0.85655  0.80286  1.0000
  H   H23       1.0  0.86845  0.64345  0.19713  1.0000
  H   H24       1.0  0.12267  0.37068  0.19734  1.0000
  H   H25       1.0  0.86882  0.26284  0.78945  1.0000
  H   H26       1.0  0.11751  0.72992  0.78215  1.0000
  H   H27       1.0  0.61744  0.77008  0.21785  1.0000
  H   H28       1.0  0.36876  0.23716  0.21055  1.0000
  C   C1        1.0  0.86769  0.03863  0.69904  1.0000
  C   C2        1.0  0.13665  0.95912  0.69979  1.0000
  C   C3        1.0  0.63655  0.54088  0.30021  1.0000
  C   C4        1.0  0.36761  0.46138  0.30096  1.0000
  C   C5        1.0  0.83793  0.15851  0.61659  1.0000
  C   C6        1.0  0.17819  0.84648  0.61345  1.0000
  C   C7        1.0  0.67809  0.65350  0.38654  1.0000
  C   C8        1.0  0.33782  0.34150  0.38340  1.0000
  C   C9        1.0  0.88320  0.05158  0.52866  1.0000
  C   C10       1.0  0.13957  0.95888  0.52858  1.0000
  C   C11       1.0  0.63949  0.54110  0.47141  1.0000
  C   C12       1.0  0.38309  0.44842  0.47134  1.0000
  N   N1        1.0  0.80998  0.13106  0.78522  1.0000
  N   N2        1.0  0.18249  0.85994  0.78352  1.0000
  N   N3        1.0  0.68243  0.64007  0.21648  1.0000
  N   N4        1.0  0.30992  0.36894  0.21478  1.0000
  O   O1        1.0  0.48119  0.50121  0.85616  1.0000
  O   O2        1.0  0.98117  0.99882  0.14385  1.0000
  O   O3        1.0  0.73295  0.82853  0.86305  1.0000
  O   O4        1.0  0.25557  0.16102  0.86760  1.0000
  O   O5        1.0  0.75553  0.33900  0.13240  1.0000
  O   O6        1.0  0.23290  0.67148  0.13696  1.0000
  O   O7        1.0  0.81096  0.14008  0.96753  1.0000
  O   O8        1.0  0.16679  0.85056  0.96813  1.0000
  O   O9        1.0  0.66679  0.64944  0.03187  1.0000
  O   O10       1.0  0.31095  0.35994  0.03248  1.0000
  O   O11       1.0  0.98075  0.48869  0.87474  1.0000
  O   O12       1.0  0.48073  0.01131  0.12527  1.0000
