data_image0
_chemical_formula_structural       Cd2H16C12N4Cl4
_chemical_formula_sum              "Cd2 H16 C12 N4 Cl4"
_cell_length_a       6.02458
_cell_length_b       7.5843
_cell_length_c       10.0497
_cell_angle_alpha    89.9999
_cell_angle_beta     107.137
_cell_angle_gamma    90.0004

_space_group_name_H-M_alt    "P 1"
_space_group_IT_number       1

loop_
  _space_group_symop_operation_xyz
  'x, y, z'

loop_
  _atom_site_type_symbol
  _atom_site_label
  _atom_site_symmetry_multiplicity
  _atom_site_fract_x
  _atom_site_fract_y
  _atom_site_fract_z
  _atom_site_occupancy
  Cd  Cd1       1.0  0.50000  0.00001  0.50000  1.0000
  Cd  Cd2       1.0  0.50001  0.50000  0.50000  1.0000
  H   H1        1.0  0.90104  0.93508  0.72003  1.0000
  H   H2        1.0  0.09897  0.43508  0.27998  1.0000
  H   H3        1.0  0.09897  0.06492  0.27997  1.0000
  H   H4        1.0  0.90104  0.56492  0.72003  1.0000
  H   H5        1.0  0.96269  0.11528  0.64627  1.0000
  H   H6        1.0  0.03732  0.61528  0.35373  1.0000
  H   H7        1.0  0.03731  0.88472  0.35373  1.0000
  H   H8        1.0  0.96270  0.38472  0.64627  1.0000
  H   H9        1.0  0.75373  0.92337  0.90896  1.0000
  H   H10       1.0  0.24628  0.42337  0.09104  1.0000
  H   H11       1.0  0.24625  0.07662  0.09104  1.0000
  H   H12       1.0  0.75374  0.57662  0.90896  1.0000
  H   H13       1.0  0.67434  0.08566  0.10520  1.0000
  H   H14       1.0  0.32567  0.58566  0.89480  1.0000
  H   H15       1.0  0.32565  0.91434  0.89480  1.0000
  H   H16       1.0  0.67434  0.41434  0.10520  1.0000
  C   C1        1.0  0.80694  0.15711  0.80194  1.0000
  C   C2        1.0  0.19305  0.65712  0.19806  1.0000
  C   C3        1.0  0.19305  0.84288  0.19807  1.0000
  C   C4        1.0  0.80695  0.34288  0.80193  1.0000
  C   C5        1.0  0.75678  0.06707  0.91093  1.0000
  C   C6        1.0  0.24323  0.56706  0.08907  1.0000
  C   C7        1.0  0.24322  0.93293  0.08906  1.0000
  C   C8        1.0  0.75677  0.43293  0.91094  1.0000
  C   C9        1.0  0.71182  0.15801  0.02067  1.0000
  C   C10       1.0  0.28818  0.65801  0.97933  1.0000
  C   C11       1.0  0.28817  0.84199  0.97934  1.0000
  C   C12       1.0  0.71182  0.34200  0.02065  1.0000
  N   N1        1.0  0.84356  0.05945  0.68896  1.0000
  N   N2        1.0  0.15644  0.55944  0.31104  1.0000
  N   N3        1.0  0.15644  0.94056  0.31104  1.0000
  N   N4        1.0  0.84356  0.44055  0.68896  1.0000
  Cl  Cl1       1.0  0.25269  0.25000  0.57969  1.0000
  Cl  Cl2       1.0  0.74731  0.75000  0.42031  1.0000
  Cl  Cl3       1.0  0.61112  0.25000  0.34828  1.0000
  Cl  Cl4       1.0  0.38889  0.75000  0.65172  1.0000
