data_image0
_chemical_formula_structural       Cd2H36C48S2N6O8
_chemical_formula_sum              "Cd2 H36 C48 S2 N6 O8"
_cell_length_a       9.48061
_cell_length_b       11.0639
_cell_length_c       11.4492
_cell_angle_alpha    96.1931
_cell_angle_beta     103.805
_cell_angle_gamma    106.091

_space_group_name_H-M_alt    "P 1"
_space_group_IT_number       1

loop_
  _space_group_symop_operation_xyz
  'x, y, z'

loop_
  _atom_site_type_symbol
  _atom_site_label
  _atom_site_symmetry_multiplicity
  _atom_site_fract_x
  _atom_site_fract_y
  _atom_site_fract_z
  _atom_site_occupancy
  Cd  Cd1       1.0  0.45150  0.95674  0.83486  1.0000
  Cd  Cd2       1.0  0.54850  0.04326  0.16515  1.0000
  H   H1        1.0  0.10580  0.83299  0.58593  1.0000
  H   H2        1.0  0.89419  0.16701  0.41407  1.0000
  H   H3        1.0  0.92192  0.80704  0.38165  1.0000
  H   H4        1.0  0.07808  0.19296  0.61835  1.0000
  H   H5        1.0  0.98343  0.95313  0.23814  1.0000
  H   H6        1.0  0.01658  0.04688  0.76186  1.0000
  H   H7        1.0  0.23463  0.12134  0.28656  1.0000
  H   H8        1.0  0.76537  0.87866  0.71345  1.0000
  H   H9        1.0  0.78771  0.35447  0.66570  1.0000
  H   H10       1.0  0.21229  0.64553  0.33430  1.0000
  H   H11       1.0  0.84120  0.16491  0.99983  1.0000
  H   H12       1.0  0.15880  0.83509  0.00017  1.0000
  H   H13       1.0  0.50080  0.20900  0.36274  1.0000
  H   H14       1.0  0.49920  0.79100  0.63726  1.0000
  H   H15       1.0  0.66108  0.25646  0.49014  1.0000
  H   H16       1.0  0.33891  0.74354  0.50986  1.0000
  H   H17       1.0  0.52808  0.38550  0.67466  1.0000
  H   H18       1.0  0.47191  0.61449  0.32534  1.0000
  H   H19       1.0  0.49662  0.39760  0.29435  1.0000
  H   H20       1.0  0.50338  0.60240  0.70564  1.0000
  H   H21       1.0  0.14823  0.53847  0.81511  1.0000
  H   H22       1.0  0.85177  0.46153  0.18488  1.0000
  H   H23       1.0  0.99602  0.60794  0.79670  1.0000
  H   H24       1.0  0.00399  0.39206  0.20330  1.0000
  H   H25       1.0  0.21222  0.44854  0.63700  1.0000
  H   H26       1.0  0.78778  0.55146  0.36300  1.0000
  H   H27       1.0  0.85990  0.62938  0.58693  1.0000
  H   H28       1.0  0.14011  0.37062  0.41307  1.0000
  H   H29       1.0  0.71516  0.80486  0.16569  1.0000
  H   H30       1.0  0.28484  0.19514  0.83432  1.0000
  H   H31       1.0  0.82906  0.76251  0.07418  1.0000
  H   H32       1.0  0.17095  0.23749  0.92583  1.0000
  H   H33       1.0  0.74208  0.55313  0.94044  1.0000
  H   H34       1.0  0.25792  0.44687  0.05956  1.0000
  H   H35       1.0  0.43970  0.66749  0.12277  1.0000
  H   H36       1.0  0.56029  0.33252  0.87722  1.0000
  C   C1        1.0  0.27406  0.99247  0.55091  1.0000
  C   C2        1.0  0.72594  0.00753  0.44909  1.0000
  C   C3        1.0  0.13392  0.89452  0.52134  1.0000
  C   C4        1.0  0.86608  0.10548  0.47866  1.0000
  C   C5        1.0  0.03240  0.88178  0.40737  1.0000
  C   C6        1.0  0.96760  0.11822  0.59263  1.0000
  C   C7        1.0  0.06756  0.96408  0.32523  1.0000
  C   C8        1.0  0.93244  0.03592  0.67477  1.0000
  C   C9        1.0  0.20718  0.06080  0.35230  1.0000
  C   C10       1.0  0.79282  0.93920  0.64770  1.0000
  C   C11       1.0  0.30933  0.07230  0.46629  1.0000
  C   C12       1.0  0.69067  0.92771  0.53371  1.0000
  C   C13       1.0  0.50570  0.12511  0.63418  1.0000
  C   C14       1.0  0.49430  0.87488  0.36582  1.0000
  C   C15       1.0  0.65186  0.18517  0.72641  1.0000
  C   C16       1.0  0.34814  0.81483  0.27359  1.0000
  C   C17       1.0  0.77268  0.29168  0.73132  1.0000
  C   C18       1.0  0.22732  0.70832  0.26867  1.0000
  C   C19       1.0  0.80449  0.19006  0.91023  1.0000
  C   C20       1.0  0.19551  0.80994  0.08977  1.0000
  C   C21       1.0  0.53921  0.24829  0.46096  1.0000
  C   C22       1.0  0.46079  0.75170  0.53904  1.0000
  C   C23       1.0  0.51500  0.37710  0.48209  1.0000
  C   C24       1.0  0.48500  0.62290  0.51791  1.0000
  C   C25       1.0  0.51613  0.43512  0.59735  1.0000
  C   C26       1.0  0.48387  0.56488  0.40265  1.0000
  C   C27       1.0  0.49777  0.44263  0.38434  1.0000
  C   C28       1.0  0.50223  0.55737  0.61566  1.0000
  C   C29       1.0  0.21131  0.73112  0.78603  1.0000
  C   C30       1.0  0.78869  0.26888  0.21396  1.0000
  C   C31       1.0  0.09235  0.59867  0.76299  1.0000
  C   C32       1.0  0.90765  0.40132  0.23701  1.0000
  C   C33       1.0  0.04037  0.54309  0.62790  1.0000
  C   C34       1.0  0.95963  0.45691  0.37210  1.0000
  C   C35       1.0  0.11807  0.47026  0.57703  1.0000
  C   C36       1.0  0.88193  0.52974  0.42297  1.0000
  C   C37       1.0  0.92142  0.57224  0.54911  1.0000
  C   C38       1.0  0.07858  0.42775  0.45088  1.0000
  C   C39       1.0  0.65823  0.83907  0.98060  1.0000
  C   C40       1.0  0.34178  0.16094  0.01941  1.0000
  C   C41       1.0  0.71299  0.76119  0.07417  1.0000
  C   C42       1.0  0.28700  0.23881  0.92583  1.0000
  C   C43       1.0  0.60521  0.62559  0.03840  1.0000
  C   C44       1.0  0.39479  0.37441  0.96160  1.0000
  C   C45       1.0  0.63620  0.53002  0.96751  1.0000
  C   C46       1.0  0.36379  0.46998  0.03249  1.0000
  C   C47       1.0  0.46710  0.59364  0.06974  1.0000
  C   C48       1.0  0.53290  0.40637  0.93026  1.0000
  S   S1        1.0  0.91191  0.32061  0.86635  1.0000
  S   S2        1.0  0.08809  0.67939  0.13365  1.0000
  N   N1        1.0  0.39769  0.02870  0.65441  1.0000
  N   N2        1.0  0.60231  0.97130  0.34559  1.0000
  N   N3        1.0  0.45735  0.15407  0.52112  1.0000
  N   N4        1.0  0.54265  0.84593  0.47888  1.0000
  N   N5        1.0  0.67306  0.12977  0.82938  1.0000
  N   N6        1.0  0.32694  0.87023  0.17063  1.0000
  O   O1        1.0  0.18082  0.83024  0.82505  1.0000
  O   O2        1.0  0.81918  0.16976  0.17494  1.0000
  O   O3        1.0  0.33687  0.73517  0.76212  1.0000
  O   O4        1.0  0.66314  0.26482  0.23788  1.0000
  O   O5        1.0  0.56860  0.90081  0.00873  1.0000
  O   O6        1.0  0.43140  0.09919  0.99127  1.0000
  O   O7        1.0  0.69093  0.83517  0.88157  1.0000
  O   O8        1.0  0.30909  0.16484  0.11844  1.0000
