data_image0
_chemical_formula_structural       Cd2H28C44S2N6O8
_chemical_formula_sum              "Cd2 H28 C44 S2 N6 O8"
_cell_length_a       7.72873
_cell_length_b       9.85552
_cell_length_c       12.6211
_cell_angle_alpha    92.0833
_cell_angle_beta     92.8382
_cell_angle_gamma    99.2902

_space_group_name_H-M_alt    "P 1"
_space_group_IT_number       1

loop_
  _space_group_symop_operation_xyz
  'x, y, z'

loop_
  _atom_site_type_symbol
  _atom_site_label
  _atom_site_symmetry_multiplicity
  _atom_site_fract_x
  _atom_site_fract_y
  _atom_site_fract_z
  _atom_site_occupancy
  Cd  Cd1       1.0  0.30769  0.14780  0.49019  1.0000
  Cd  Cd2       1.0  0.69231  0.85221  0.50981  1.0000
  H   H1        1.0  0.75693  0.31555  0.54553  1.0000
  H   H2        1.0  0.24307  0.68445  0.45447  1.0000
  H   H3        1.0  0.64151  0.59520  0.28375  1.0000
  H   H4        1.0  0.35849  0.40480  0.71624  1.0000
  H   H5        1.0  0.86163  0.11149  0.35490  1.0000
  H   H6        1.0  0.13837  0.88852  0.64510  1.0000
  H   H7        1.0  0.61792  0.15805  0.23334  1.0000
  H   H8        1.0  0.38208  0.84195  0.76666  1.0000
  H   H9        1.0  0.66193  0.34386  0.10570  1.0000
  H   H10       1.0  0.33807  0.65614  0.89430  1.0000
  H   H11       1.0  0.95005  0.49773  0.10021  1.0000
  H   H12       1.0  0.04995  0.50227  0.89979  1.0000
  H   H13       1.0  0.40102  0.64501  0.24121  1.0000
  H   H14       1.0  0.59898  0.35499  0.75879  1.0000
  H   H15       1.0  0.20786  0.62513  0.15984  1.0000
  H   H16       1.0  0.79214  0.37487  0.84016  1.0000
  H   H17       1.0  0.24136  0.33881  0.05353  1.0000
  H   H18       1.0  0.75864  0.66119  0.94647  1.0000
  H   H19       1.0  0.60418  0.71812  0.10522  1.0000
  H   H20       1.0  0.39582  0.28188  0.89477  1.0000
  H   H21       1.0  0.14555  0.15951  0.80327  1.0000
  H   H22       1.0  0.85445  0.84049  0.19674  1.0000
  H   H23       1.0  0.04747  0.14232  0.99011  1.0000
  H   H24       1.0  0.95252  0.85768  0.00989  1.0000
  H   H25       1.0  0.72920  0.08833  0.02019  1.0000
  H   H26       1.0  0.27080  0.91167  0.97981  1.0000
  H   H27       1.0  0.51054  0.05425  0.86611  1.0000
  H   H28       1.0  0.48945  0.94575  0.13389  1.0000
  C   C1        1.0  0.69899  0.36936  0.48294  1.0000
  C   C2        1.0  0.30102  0.63063  0.51705  1.0000
  C   C3        1.0  0.63354  0.51620  0.34138  1.0000
  C   C4        1.0  0.36646  0.48380  0.65862  1.0000
  C   C5        1.0  0.49476  0.41725  0.36565  1.0000
  C   C6        1.0  0.50524  0.58275  0.63435  1.0000
  C   C7        1.0  0.31638  0.38349  0.31949  1.0000
  C   C8        1.0  0.68362  0.61651  0.68051  1.0000
  C   C9        1.0  0.04709  0.27498  0.29266  1.0000
  C   C10       1.0  0.95291  0.72502  0.70735  1.0000
  C   C11       1.0  0.88366  0.19052  0.29674  1.0000
  C   C12       1.0  0.11634  0.80948  0.70326  1.0000
  C   C13       1.0  0.74808  0.21824  0.22828  1.0000
  C   C14       1.0  0.25192  0.78176  0.77172  1.0000
  C   C15       1.0  0.77240  0.32583  0.15713  1.0000
  C   C16       1.0  0.22760  0.67417  0.84287  1.0000
  C   C17       1.0  0.93305  0.41226  0.15318  1.0000
  C   C18       1.0  0.06695  0.58775  0.84682  1.0000
  C   C19       1.0  0.06814  0.38522  0.22279  1.0000
  C   C20       1.0  0.93186  0.61478  0.77721  1.0000
  C   C21       1.0  0.31627  0.57169  0.18556  1.0000
  C   C22       1.0  0.68373  0.42831  0.81444  1.0000
  C   C23       1.0  0.41196  0.53284  0.09036  1.0000
  C   C24       1.0  0.58805  0.46716  0.90964  1.0000
  C   C25       1.0  0.35475  0.41004  0.03031  1.0000
  C   C26       1.0  0.64525  0.58996  0.96969  1.0000
  C   C27       1.0  0.55824  0.62221  0.05906  1.0000
  C   C28       1.0  0.44176  0.37779  0.94094  1.0000
  C   C29       1.0  0.95500  0.12444  0.62146  1.0000
  C   C30       1.0  0.04500  0.87556  0.37854  1.0000
  C   C31       1.0  0.88548  0.11609  0.73127  1.0000
  C   C32       1.0  0.11453  0.88390  0.26873  1.0000
  C   C33       1.0  0.00682  0.13674  0.81927  1.0000
  C   C34       1.0  0.99318  0.86325  0.18073  1.0000
  C   C35       1.0  0.95196  0.12730  0.92250  1.0000
  C   C36       1.0  0.04805  0.87270  0.07750  1.0000
  C   C37       1.0  0.77273  0.09551  0.93943  1.0000
  C   C38       1.0  0.22727  0.90448  0.06057  1.0000
  C   C39       1.0  0.65070  0.07621  0.85300  1.0000
  C   C40       1.0  0.34930  0.92379  0.14700  1.0000
  C   C41       1.0  0.70483  0.08703  0.74863  1.0000
  C   C42       1.0  0.29517  0.91297  0.25137  1.0000
  C   C43       1.0  0.56154  0.07446  0.66133  1.0000
  C   C44       1.0  0.43847  0.92554  0.33867  1.0000
  S   S1        1.0  0.81387  0.50542  0.42188  1.0000
  S   S2        1.0  0.18613  0.49458  0.57812  1.0000
  N   N1        1.0  0.20376  0.27667  0.35117  1.0000
  N   N2        1.0  0.79624  0.72334  0.64883  1.0000
  N   N3        1.0  0.53511  0.33638  0.44739  1.0000
  N   N4        1.0  0.46489  0.66362  0.55261  1.0000
  N   N5        1.0  0.23901  0.45308  0.24249  1.0000
  N   N6        1.0  0.76099  0.54692  0.75751  1.0000
  O   O1        1.0  0.11219  0.18734  0.61621  1.0000
  O   O2        1.0  0.88781  0.81266  0.38379  1.0000
  O   O3        1.0  0.85641  0.07126  0.54235  1.0000
  O   O4        1.0  0.14359  0.92875  0.45765  1.0000
  O   O5        1.0  0.50430  0.95862  0.61557  1.0000
  O   O6        1.0  0.49571  0.04138  0.38444  1.0000
  O   O7        1.0  0.49783  0.18371  0.64449  1.0000
  O   O8        1.0  0.50218  0.81628  0.35551  1.0000
