data_image0
_chemical_formula_structural       Cd3H48C56N8O12
_chemical_formula_sum              "Cd3 H48 C56 N8 O12"
_cell_length_a       8.2283
_cell_length_b       10.947
_cell_length_c       15.3598
_cell_angle_alpha    71.0856
_cell_angle_beta     74.9249
_cell_angle_gamma    70.7535

_space_group_name_H-M_alt    "P 1"
_space_group_IT_number       1

loop_
  _space_group_symop_operation_xyz
  'x, y, z'

loop_
  _atom_site_type_symbol
  _atom_site_label
  _atom_site_symmetry_multiplicity
  _atom_site_fract_x
  _atom_site_fract_y
  _atom_site_fract_z
  _atom_site_occupancy
  Cd  Cd1       1.0  0.08667  0.43380  0.27572  1.0000
  Cd  Cd2       1.0  0.91333  0.56620  0.72428  1.0000
  Cd  Cd3       1.0  0.00000  0.50000  0.50000  1.0000
  H   H1        1.0  0.61110  0.83417  0.27471  1.0000
  H   H2        1.0  0.38891  0.16583  0.72529  1.0000
  H   H3        1.0  0.71979  0.83215  0.36052  1.0000
  H   H4        1.0  0.28021  0.16785  0.63948  1.0000
  H   H5        1.0  0.55241  0.69768  0.48508  1.0000
  H   H6        1.0  0.44759  0.30232  0.51491  1.0000
  H   H7        1.0  0.40572  0.83367  0.42089  1.0000
  H   H8        1.0  0.59428  0.16633  0.57911  1.0000
  H   H9        1.0  0.51219  0.66538  0.25429  1.0000
  H   H10       1.0  0.48781  0.33463  0.74571  1.0000
  H   H11       1.0  0.30639  0.77088  0.28494  1.0000
  H   H12       1.0  0.69361  0.22912  0.71506  1.0000
  H   H13       1.0  0.51155  0.53809  0.42370  1.0000
  H   H14       1.0  0.48845  0.46191  0.57629  1.0000
  H   H15       1.0  0.30143  0.63936  0.45407  1.0000
  H   H16       1.0  0.69857  0.36064  0.54593  1.0000
  H   H17       1.0  0.17311  0.03789  0.58945  1.0000
  H   H18       1.0  0.82689  0.96210  0.41054  1.0000
  H   H19       1.0  0.34015  0.00943  0.49234  1.0000
  H   H20       1.0  0.65985  0.99057  0.50766  1.0000
  H   H21       1.0  0.14029  0.97407  0.41512  1.0000
  H   H22       1.0  0.85971  0.02593  0.58488  1.0000
  H   H23       1.0  0.13702  0.86632  0.52867  1.0000
  H   H24       1.0  0.86299  0.13368  0.47132  1.0000
  H   H25       1.0  0.71062  0.35877  0.38492  1.0000
  H   H26       1.0  0.28938  0.64123  0.61508  1.0000
  H   H27       1.0  0.49155  0.26060  0.36197  1.0000
  H   H28       1.0  0.50845  0.73940  0.63803  1.0000
  H   H29       1.0  0.54047  0.19741  0.21233  1.0000
  H   H30       1.0  0.45952  0.80259  0.78766  1.0000
  H   H31       1.0  0.26116  0.31820  0.88699  1.0000
  H   H32       1.0  0.73884  0.68180  0.11301  1.0000
  H   H33       1.0  0.46510  0.40186  0.93310  1.0000
  H   H34       1.0  0.53490  0.59814  0.06690  1.0000
  H   H35       1.0  0.38566  0.44928  0.09283  1.0000
  H   H36       1.0  0.61434  0.55072  0.90717  1.0000
  H   H37       1.0  0.53047  0.10118  0.96293  1.0000
  H   H38       1.0  0.46953  0.89882  0.03707  1.0000
  H   H39       1.0  0.47376  0.97602  0.86935  1.0000
  H   H40       1.0  0.52624  0.02398  0.13065  1.0000
  H   H41       1.0  0.70764  0.90542  0.73845  1.0000
  H   H42       1.0  0.29236  0.09458  0.26156  1.0000
  H   H43       1.0  0.99263  0.95379  0.70896  1.0000
  H   H44       1.0  0.00737  0.04621  0.29104  1.0000
  H   H45       1.0  0.05199  0.06978  0.80616  1.0000
  H   H46       1.0  0.94801  0.93022  0.19384  1.0000
  H   H47       1.0  0.04098  0.23476  0.86422  1.0000
  H   H48       1.0  0.95902  0.76524  0.13578  1.0000
  C   C1        1.0  0.80080  0.65210  0.32070  1.0000
  C   C2        1.0  0.19920  0.34790  0.67930  1.0000
  C   C3        1.0  0.65728  0.77281  0.34042  1.0000
  C   C4        1.0  0.34272  0.22719  0.65958  1.0000
  C   C5        1.0  0.50621  0.73904  0.41758  1.0000
  C   C6        1.0  0.49379  0.26096  0.58242  1.0000
  C   C7        1.0  0.30306  0.57651  0.29223  1.0000
  C   C8        1.0  0.69694  0.42349  0.70777  1.0000
  C   C9        1.0  0.39125  0.66863  0.30604  1.0000
  C   C10       1.0  0.60875  0.33137  0.69396  1.0000
  C   C11       1.0  0.42499  0.63960  0.40474  1.0000
  C   C12       1.0  0.57501  0.36041  0.59526  1.0000
  C   C13       1.0  0.14703  0.19843  0.46411  1.0000
  C   C14       1.0  0.85297  0.80157  0.53588  1.0000
  C   C15       1.0  0.19880  0.04951  0.51382  1.0000
  C   C16       1.0  0.80120  0.95049  0.48617  1.0000
  C   C17       1.0  0.09904  0.97224  0.48945  1.0000
  C   C18       1.0  0.90096  0.02776  0.51054  1.0000
  C   C19       1.0  0.72582  0.32978  0.32109  1.0000
  C   C20       1.0  0.27418  0.67022  0.67892  1.0000
  C   C21       1.0  0.60505  0.27424  0.30833  1.0000
  C   C22       1.0  0.39495  0.72576  0.69167  1.0000
  C   C23       1.0  0.63095  0.24046  0.22545  1.0000
  C   C24       1.0  0.36905  0.75955  0.77455  1.0000
  C   C25       1.0  0.77603  0.26313  0.15611  1.0000
  C   C26       1.0  0.22397  0.73688  0.84389  1.0000
  C   C27       1.0  0.89217  0.32033  0.17473  1.0000
  C   C28       1.0  0.10783  0.67967  0.82527  1.0000
  C   C29       1.0  0.04714  0.34357  0.10661  1.0000
  C   C30       1.0  0.95286  0.65642  0.89340  1.0000
  C   C31       1.0  0.08229  0.31380  0.01874  1.0000
  C   C32       1.0  0.91772  0.68620  0.98126  1.0000
  C   C33       1.0  0.23377  0.33784  0.95532  1.0000
  C   C34       1.0  0.76623  0.66216  0.04468  1.0000
  C   C35       1.0  0.34547  0.38592  0.98058  1.0000
  C   C36       1.0  0.65454  0.61408  0.01942  1.0000
  C   C37       1.0  0.30274  0.41154  0.06883  1.0000
  C   C38       1.0  0.69726  0.58846  0.93117  1.0000
  C   C39       1.0  0.96311  0.25717  0.00327  1.0000
  C   C40       1.0  0.03688  0.74283  0.99673  1.0000
  C   C41       1.0  0.81675  0.22984  0.06891  1.0000
  C   C42       1.0  0.18325  0.77016  0.93109  1.0000
  C   C43       1.0  0.82697  0.15732  0.95232  1.0000
  C   C44       1.0  0.17303  0.84268  0.04768  1.0000
  C   C45       1.0  0.79368  0.09328  0.89157  1.0000
  C   C46       1.0  0.20632  0.90672  0.10843  1.0000
  C   C47       1.0  0.63084  0.06742  0.90740  1.0000
  C   C48       1.0  0.36916  0.93258  0.09260  1.0000
  C   C49       1.0  0.59903  0.99964  0.85349  1.0000
  C   C50       1.0  0.40097  0.00036  0.14651  1.0000
  C   C51       1.0  0.72908  0.95901  0.78147  1.0000
  C   C52       1.0  0.27092  0.04099  0.21853  1.0000
  C   C53       1.0  0.89052  0.98644  0.76441  1.0000
  C   C54       1.0  0.10948  0.01356  0.23559  1.0000
  C   C55       1.0  0.92374  0.05244  0.81894  1.0000
  C   C56       1.0  0.07626  0.94756  0.18106  1.0000
  N   N1        1.0  0.86422  0.35169  0.25655  1.0000
  N   N2        1.0  0.13578  0.64831  0.74345  1.0000
  N   N3        1.0  0.15855  0.39163  0.12904  1.0000
  N   N4        1.0  0.84146  0.60837  0.87096  1.0000
  N   N5        1.0  0.96727  0.21014  0.93009  1.0000
  N   N6        1.0  0.03273  0.78986  0.06991  1.0000
  N   N7        1.0  0.73364  0.16711  0.03669  1.0000
  N   N8        1.0  0.26636  0.83289  0.96331  1.0000
  O   O1        1.0  0.88757  0.65917  0.23813  1.0000
  O   O2        1.0  0.11243  0.34083  0.76187  1.0000
  O   O3        1.0  0.83261  0.54395  0.38612  1.0000
  O   O4        1.0  0.16739  0.45605  0.61388  1.0000
  O   O5        1.0  0.31780  0.56389  0.21134  1.0000
  O   O6        1.0  0.68220  0.43612  0.78866  1.0000
  O   O7        1.0  0.21117  0.51306  0.36328  1.0000
  O   O8        1.0  0.78883  0.48694  0.63671  1.0000
  O   O9        1.0  0.18657  0.22902  0.37526  1.0000
  O   O10       1.0  0.81342  0.77098  0.62474  1.0000
  O   O11       1.0  0.06536  0.27816  0.51553  1.0000
  O   O12       1.0  0.93464  0.72184  0.48447  1.0000
