data_image0
_chemical_formula_structural       Cd4H44C48N8Cl4O16
_chemical_formula_sum              "Cd4 H44 C48 N8 Cl4 O16"
_cell_length_a       7.23568
_cell_length_b       12.9299
_cell_length_c       13.4922
_cell_angle_alpha    90.0001
_cell_angle_beta     90.0005
_cell_angle_gamma    90.6735

_space_group_name_H-M_alt    "P 1"
_space_group_IT_number       1

loop_
  _space_group_symop_operation_xyz
  'x, y, z'

loop_
  _atom_site_type_symbol
  _atom_site_label
  _atom_site_symmetry_multiplicity
  _atom_site_fract_x
  _atom_site_fract_y
  _atom_site_fract_z
  _atom_site_occupancy
  Cd  Cd1       1.0  0.86234  0.41306  0.05301  1.0000
  Cd  Cd2       1.0  0.63766  0.08694  0.55301  1.0000
  Cd  Cd3       1.0  0.13766  0.58694  0.94699  1.0000
  Cd  Cd4       1.0  0.36234  0.91306  0.44699  1.0000
  H   H1        1.0  0.10510  0.84342  0.93286  1.0000
  H   H2        1.0  0.39490  0.65658  0.43286  1.0000
  H   H3        1.0  0.89490  0.15659  0.06714  1.0000
  H   H4        1.0  0.60510  0.34341  0.56714  1.0000
  H   H5        1.0  0.16813  0.82110  0.11250  1.0000
  H   H6        1.0  0.33187  0.67891  0.61250  1.0000
  H   H7        1.0  0.83187  0.17891  0.88750  1.0000
  H   H8        1.0  0.66812  0.32109  0.38750  1.0000
  H   H9        1.0  0.32027  0.95867  0.21017  1.0000
  H   H10       1.0  0.17973  0.54134  0.71017  1.0000
  H   H11       1.0  0.67973  0.04134  0.78983  1.0000
  H   H12       1.0  0.82027  0.45866  0.28983  1.0000
  H   H13       1.0  0.40896  0.12808  0.13298  1.0000
  H   H14       1.0  0.09104  0.37192  0.63298  1.0000
  H   H15       1.0  0.59105  0.87193  0.86702  1.0000
  H   H16       1.0  0.90895  0.62807  0.36702  1.0000
  H   H17       1.0  0.19624  0.17734  0.68667  1.0000
  H   H18       1.0  0.30376  0.32266  0.18667  1.0000
  H   H19       1.0  0.80376  0.82266  0.31333  1.0000
  H   H20       1.0  0.69624  0.67734  0.81333  1.0000
  H   H21       1.0  0.20134  0.28134  0.77264  1.0000
  H   H22       1.0  0.29866  0.21866  0.27264  1.0000
  H   H23       1.0  0.79866  0.71866  0.22736  1.0000
  H   H24       1.0  0.70134  0.78134  0.72735  1.0000
  H   H25       1.0  0.41255  0.22812  0.72768  1.0000
  H   H26       1.0  0.08744  0.27188  0.22768  1.0000
  H   H27       1.0  0.58745  0.77188  0.27232  1.0000
  H   H28       1.0  0.91255  0.72812  0.77232  1.0000
  H   H29       1.0  0.48334  0.25768  0.01988  1.0000
  H   H30       1.0  0.01666  0.24232  0.51988  1.0000
  H   H31       1.0  0.51666  0.74232  0.98012  1.0000
  H   H32       1.0  0.98333  0.75768  0.48012  1.0000
  H   H33       1.0  0.50036  0.29074  0.89386  1.0000
  H   H34       1.0  0.99964  0.20926  0.39386  1.0000
  H   H35       1.0  0.49964  0.70926  0.10614  1.0000
  H   H36       1.0  0.00035  0.79074  0.60614  1.0000
  H   H37       1.0  0.09648  0.90224  0.77741  1.0000
  H   H38       1.0  0.40352  0.59776  0.27741  1.0000
  H   H39       1.0  0.90352  0.09776  0.22259  1.0000
  H   H40       1.0  0.59649  0.40224  0.72259  1.0000
  H   H41       1.0  0.02509  0.01614  0.71569  1.0000
  H   H42       1.0  0.47491  0.48386  0.21569  1.0000
  H   H43       1.0  0.97492  0.98386  0.28431  1.0000
  H   H44       1.0  0.52509  0.51614  0.78431  1.0000
  C   C1        1.0  0.22224  0.99952  0.93265  1.0000
  C   C2        1.0  0.27776  0.50049  0.43265  1.0000
  C   C3        1.0  0.77776  0.00049  0.06735  1.0000
  C   C4        1.0  0.72224  0.49951  0.56735  1.0000
  C   C5        1.0  0.17046  0.90526  0.97516  1.0000
  C   C6        1.0  0.32954  0.59474  0.47516  1.0000
  C   C7        1.0  0.82954  0.09474  0.02484  1.0000
  C   C8        1.0  0.67046  0.40526  0.52484  1.0000
  C   C9        1.0  0.20617  0.89349  0.07597  1.0000
  C   C10       1.0  0.29384  0.60651  0.57597  1.0000
  C   C11       1.0  0.79383  0.10651  0.92403  1.0000
  C   C12       1.0  0.70616  0.39349  0.42403  1.0000
  C   C13       1.0  0.29083  0.97261  0.13226  1.0000
  C   C14       1.0  0.20917  0.52739  0.63226  1.0000
  C   C15       1.0  0.70917  0.02740  0.86774  1.0000
  C   C16       1.0  0.79083  0.47260  0.36774  1.0000
  C   C17       1.0  0.34044  0.06732  0.09022  1.0000
  C   C18       1.0  0.15957  0.43268  0.59022  1.0000
  C   C19       1.0  0.65957  0.93268  0.90978  1.0000
  C   C20       1.0  0.84043  0.56732  0.40978  1.0000
  C   C21       1.0  0.30201  0.07959  0.98971  1.0000
  C   C22       1.0  0.19799  0.42042  0.48971  1.0000
  C   C23       1.0  0.69799  0.92041  0.01029  1.0000
  C   C24       1.0  0.80201  0.57958  0.51029  1.0000
  C   C25       1.0  0.26951  0.13657  0.83412  1.0000
  C   C26       1.0  0.23049  0.36343  0.33413  1.0000
  C   C27       1.0  0.73049  0.86343  0.16588  1.0000
  C   C28       1.0  0.76951  0.63656  0.66587  1.0000
  C   C29       1.0  0.26983  0.20960  0.75028  1.0000
  C   C30       1.0  0.23016  0.29040  0.25028  1.0000
  C   C31       1.0  0.73017  0.79040  0.24972  1.0000
  C   C32       1.0  0.76983  0.70960  0.74972  1.0000
  C   C33       1.0  0.40320  0.26399  0.95080  1.0000
  C   C34       1.0  0.09679  0.23601  0.45080  1.0000
  C   C35       1.0  0.59680  0.73601  0.04920  1.0000
  C   C36       1.0  0.90320  0.76399  0.54920  1.0000
  C   C37       1.0  0.25163  0.34451  0.96712  1.0000
  C   C38       1.0  0.24836  0.15549  0.46711  1.0000
  C   C39       1.0  0.74837  0.65549  0.03288  1.0000
  C   C40       1.0  0.75162  0.84451  0.53288  1.0000
  C   C41       1.0  0.14365  0.97797  0.75075  1.0000
  C   C42       1.0  0.35636  0.52203  0.25076  1.0000
  C   C43       1.0  0.85636  0.02203  0.24925  1.0000
  C   C44       1.0  0.64365  0.47797  0.74925  1.0000
  C   C45       1.0  0.29082  0.96278  0.66962  1.0000
  C   C46       1.0  0.20918  0.53723  0.16962  1.0000
  C   C47       1.0  0.70918  0.03722  0.33038  1.0000
  C   C48       1.0  0.79083  0.46278  0.83038  1.0000
  N   N1        1.0  0.32939  0.16254  0.92572  1.0000
  N   N2        1.0  0.17061  0.33746  0.42572  1.0000
  N   N3        1.0  0.67061  0.83746  0.07429  1.0000
  N   N4        1.0  0.82939  0.66254  0.57428  1.0000
  N   N5        1.0  0.20628  0.03772  0.83604  1.0000
  N   N6        1.0  0.29372  0.46229  0.33604  1.0000
  N   N7        1.0  0.79372  0.96229  0.16396  1.0000
  N   N8        1.0  0.70629  0.53771  0.66396  1.0000
  Cl  Cl1       1.0  0.69055  0.29961  0.16949  1.0000
  Cl  Cl2       1.0  0.80944  0.20040  0.66949  1.0000
  Cl  Cl3       1.0  0.30944  0.70039  0.83051  1.0000
  Cl  Cl4       1.0  0.19055  0.79960  0.33051  1.0000
  O   O1        1.0  0.10254  0.31190  0.00626  1.0000
  O   O2        1.0  0.39746  0.18810  0.50626  1.0000
  O   O3        1.0  0.89745  0.68810  0.99374  1.0000
  O   O4        1.0  0.60254  0.81190  0.49374  1.0000
  O   O5        1.0  0.29457  0.43583  0.94175  1.0000
  O   O6        1.0  0.20542  0.06417  0.44175  1.0000
  O   O7        1.0  0.70542  0.56417  0.05825  1.0000
  O   O8        1.0  0.79457  0.93583  0.55825  1.0000
  O   O9        1.0  0.24579  0.89666  0.60439  1.0000
  O   O10       1.0  0.25421  0.60334  0.10439  1.0000
  O   O11       1.0  0.75421  0.10334  0.39561  1.0000
  O   O12       1.0  0.74579  0.39666  0.89562  1.0000
  O   O13       1.0  0.43446  0.01912  0.67269  1.0000
  O   O14       1.0  0.06555  0.48089  0.17269  1.0000
  O   O15       1.0  0.56555  0.98088  0.32731  1.0000
  O   O16       1.0  0.93445  0.51911  0.82731  1.0000
