data_image0
_chemical_formula_structural       Cd2H24C24N4Cl4F4
_chemical_formula_sum              "Cd2 H24 C24 N4 Cl4 F4"
_cell_length_a       6.60792
_cell_length_b       7.36769
_cell_length_c       14.7879
_cell_angle_alpha    83.682
_cell_angle_beta     82.0029
_cell_angle_gamma    72.3048

_space_group_name_H-M_alt    "P 1"
_space_group_IT_number       1

loop_
  _space_group_symop_operation_xyz
  'x, y, z'

loop_
  _atom_site_type_symbol
  _atom_site_label
  _atom_site_symmetry_multiplicity
  _atom_site_fract_x
  _atom_site_fract_y
  _atom_site_fract_z
  _atom_site_occupancy
  Cd  Cd1       1.0  0.25087  0.57016  0.44391  1.0000
  Cd  Cd2       1.0  0.74912  0.42985  0.55609  1.0000
  H   H1        1.0  0.95896  0.99618  0.33497  1.0000
  H   H2        1.0  0.04104  0.00383  0.66503  1.0000
  H   H3        1.0  0.50681  0.50929  0.20027  1.0000
  H   H4        1.0  0.49319  0.49071  0.79973  1.0000
  H   H5        1.0  0.63187  0.94601  0.27259  1.0000
  H   H6        1.0  0.36814  0.05398  0.72741  1.0000
  H   H7        1.0  0.82216  0.61330  0.23631  1.0000
  H   H8        1.0  0.17784  0.38671  0.76369  1.0000
  H   H9        1.0  0.79768  0.79241  0.08382  1.0000
  H   H10       1.0  0.20233  0.20759  0.91617  1.0000
  H   H11       1.0  0.56201  0.11672  0.12043  1.0000
  H   H12       1.0  0.43799  0.88328  0.87957  1.0000
  H   H13       1.0  0.19072  0.23155  0.07578  1.0000
  H   H14       1.0  0.80928  0.76844  0.92422  1.0000
  H   H15       1.0  0.13122  0.82984  0.98836  1.0000
  H   H16       1.0  0.86879  0.17016  0.01163  1.0000
  H   H17       1.0  0.25055  0.94714  0.45231  1.0000
  H   H18       1.0  0.74945  0.05286  0.54769  1.0000
  H   H19       1.0  0.03950  0.41118  0.33746  1.0000
  H   H20       1.0  0.96050  0.58882  0.66254  1.0000
  H   H21       1.0  0.49602  0.82941  0.41229  1.0000
  H   H22       1.0  0.50398  0.17059  0.58772  1.0000
  H   H23       1.0  0.30120  0.32188  0.31138  1.0000
  H   H24       1.0  0.69879  0.67812  0.68862  1.0000
  C   C1        1.0  0.16376  0.55201  0.22815  1.0000
  C   C2        1.0  0.83624  0.44798  0.77185  1.0000
  C   C3        1.0  0.09294  0.02036  0.28863  1.0000
  C   C4        1.0  0.90705  0.97964  0.71138  1.0000
  C   C5        1.0  0.35035  0.57308  0.17621  1.0000
  C   C6        1.0  0.64965  0.42692  0.82379  1.0000
  C   C7        1.0  0.47052  0.99169  0.25250  1.0000
  C   C8        1.0  0.52948  0.00831  0.74750  1.0000
  C   C9        1.0  0.96513  0.63334  0.19527  1.0000
  C   C10       1.0  0.03487  0.36666  0.80472  1.0000
  C   C11       1.0  0.06138  0.11547  0.20315  1.0000
  C   C12       1.0  0.93861  0.88453  0.79685  1.0000
  C   C13       1.0  0.30145  0.95805  0.31348  1.0000
  C   C14       1.0  0.69855  0.04195  0.68652  1.0000
  C   C15       1.0  0.95287  0.73301  0.10943  1.0000
  C   C16       1.0  0.04714  0.26699  0.89057  1.0000
  C   C17       1.0  0.43114  0.08727  0.16685  1.0000
  C   C18       1.0  0.56886  0.91273  0.83315  1.0000
  C   C19       1.0  0.33053  0.67405  0.09156  1.0000
  C   C20       1.0  0.66948  0.32595  0.90844  1.0000
  C   C21       1.0  0.22486  0.15143  0.14094  1.0000
  C   C22       1.0  0.77513  0.84857  0.85907  1.0000
  C   C23       1.0  0.13652  0.75459  0.05594  1.0000
  C   C24       1.0  0.86349  0.24540  0.94406  1.0000
  N   N1        1.0  0.17782  0.44614  0.31484  1.0000
  N   N2        1.0  0.82218  0.55386  0.68516  1.0000
  N   N3        1.0  0.33818  0.86146  0.40148  1.0000
  N   N4        1.0  0.66182  0.13855  0.59852  1.0000
  Cl  Cl1       1.0  0.83817  0.75755  0.47443  1.0000
  Cl  Cl2       1.0  0.16181  0.24246  0.52557  1.0000
  Cl  Cl3       1.0  0.33952  0.61776  0.60651  1.0000
  Cl  Cl4       1.0  0.66047  0.38223  0.39350  1.0000
  F   F1        1.0  0.85716  0.17900  0.17937  1.0000
  F   F2        1.0  0.14284  0.82100  0.82063  1.0000
  F   F3        1.0  0.51249  0.69459  0.04015  1.0000
  F   F4        1.0  0.48751  0.30541  0.95985  1.0000
