data_image0
_chemical_formula_structural       Li2H20C20N2O6
_chemical_formula_sum              "Li2 H20 C20 N2 O6"
_cell_length_a       4.96374
_cell_length_b       7.84031
_cell_length_c       12.858
_cell_angle_alpha    86.3227
_cell_angle_beta     78.8993
_cell_angle_gamma    71.561

_space_group_name_H-M_alt    "P 1"
_space_group_IT_number       1

loop_
  _space_group_symop_operation_xyz
  'x, y, z'

loop_
  _atom_site_type_symbol
  _atom_site_label
  _atom_site_symmetry_multiplicity
  _atom_site_fract_x
  _atom_site_fract_y
  _atom_site_fract_z
  _atom_site_occupancy
  Li  Li1       1.0  0.76810  0.87828  0.51049  1.0000
  Li  Li2       1.0  0.15694  0.12150  0.48950  1.0000
  H   H1        1.0  0.71666  0.43030  0.63204  1.0000
  H   H2        1.0  0.77822  0.56961  0.36788  1.0000
  H   H3        1.0  0.68718  0.34401  0.82768  1.0000
  H   H4        1.0  0.85691  0.65598  0.17222  1.0000
  H   H5        1.0  0.89676  0.16963  0.73706  1.0000
  H   H6        1.0  0.80260  0.83014  0.26288  1.0000
  H   H7        1.0  0.54613  0.16971  0.80263  1.0000
  H   H8        1.0  0.51711  0.83037  0.19742  1.0000
  H   H9        1.0  0.20200  0.43743  0.86166  1.0000
  H   H10       1.0  0.49914  0.56270  0.13844  1.0000
  H   H11       1.0  0.31559  0.94779  0.69858  1.0000
  H   H12       1.0  0.96057  0.05193  0.30135  1.0000
  H   H13       1.0  0.04161  0.96166  0.88218  1.0000
  H   H14       1.0  0.88285  0.03853  0.11768  1.0000
  H   H15       1.0  0.26868  0.78054  0.02669  1.0000
  H   H16       1.0  0.07245  0.22028  0.97335  1.0000
  H   H17       1.0  0.77820  0.57586  0.98436  1.0000
  H   H18       1.0  0.33579  0.42449  0.01573  1.0000
  H   H19       1.0  0.18116  0.58653  0.64700  1.0000
  H   H20       1.0  0.41449  0.41304  0.35299  1.0000
  C   C1        1.0  0.52752  0.23255  0.59430  1.0000
  C   C2        1.0  0.35383  0.76732  0.40573  1.0000
  C   C3        1.0  0.56096  0.36368  0.67314  1.0000
  C   C4        1.0  0.59683  0.63619  0.32685  1.0000
  C   C5        1.0  0.67711  0.25542  0.76682  1.0000
  C   C6        1.0  0.69802  0.74450  0.23317  1.0000
  C   C7        1.0  0.11782  0.52265  0.79741  1.0000
  C   C8        1.0  0.43619  0.47736  0.20267  1.0000
  C   C9        1.0  0.83600  0.64771  0.81860  1.0000
  C   C10       1.0  0.30042  0.35236  0.18145  1.0000
  C   C11       1.0  0.70872  0.75528  0.73400  1.0000
  C   C12       1.0  0.19637  0.24460  0.26598  1.0000
  C   C13       1.0  0.41647  0.86908  0.76179  1.0000
  C   C14       1.0  0.04542  0.13088  0.23813  1.0000
  C   C15       1.0  0.26586  0.87598  0.86426  1.0000
  C   C16       1.0  0.00348  0.12423  0.13569  1.0000
  C   C17       1.0  0.39311  0.77144  0.94645  1.0000
  C   C18       1.0  0.10795  0.22911  0.05360  1.0000
  C   C19       1.0  0.67408  0.65957  0.92306  1.0000
  C   C20       1.0  0.25406  0.34079  0.07702  1.0000
  N   N1        1.0  0.28382  0.50218  0.70381  1.0000
  N   N2        1.0  0.48881  0.49765  0.29622  1.0000
  O   O1        1.0  0.27533  0.23115  0.59320  1.0000
  O   O2        1.0  0.09913  0.76886  0.40672  1.0000
  O   O3        1.0  0.75860  0.13034  0.54053  1.0000
  O   O4        1.0  0.42923  0.86933  0.45963  1.0000
  O   O5        1.0  0.85188  0.74478  0.63829  1.0000
  O   O6        1.0  0.23430  0.25465  0.36164  1.0000
