data_image0
_chemical_formula_structural       Zn2H28C28N8O8
_chemical_formula_sum              "Zn2 H28 C28 N8 O8"
_cell_length_a       7.17663
_cell_length_b       9.94667
_cell_length_c       10.7971
_cell_angle_alpha    90
_cell_angle_beta     111.781
_cell_angle_gamma    89.9993

_space_group_name_H-M_alt    "P 1"
_space_group_IT_number       1

loop_
  _space_group_symop_operation_xyz
  'x, y, z'

loop_
  _atom_site_type_symbol
  _atom_site_label
  _atom_site_symmetry_multiplicity
  _atom_site_fract_x
  _atom_site_fract_y
  _atom_site_fract_z
  _atom_site_occupancy
  Zn  Zn1       1.0  0.48022  0.38364  0.76308  1.0000
  Zn  Zn2       1.0  0.51978  0.88365  0.23692  1.0000
  H   H1        1.0  0.46699  0.12696  0.90005  1.0000
  H   H2        1.0  0.53301  0.62697  0.09995  1.0000
  H   H3        1.0  0.43430  0.88206  0.85608  1.0000
  H   H4        1.0  0.56570  0.38206  0.14392  1.0000
  H   H5        1.0  0.30852  0.18907  0.38377  1.0000
  H   H6        1.0  0.69147  0.68906  0.61623  1.0000
  H   H7        1.0  0.35451  0.80228  0.61876  1.0000
  H   H8        1.0  0.64549  0.30228  0.38124  1.0000
  H   H9        1.0  0.29261  0.97322  0.43834  1.0000
  H   H10       1.0  0.70739  0.47323  0.56165  1.0000
  H   H11       1.0  0.80392  0.26607  0.95049  1.0000
  H   H12       1.0  0.19610  0.76607  0.04952  1.0000
  H   H13       1.0  0.84589  0.30771  0.81480  1.0000
  H   H14       1.0  0.15412  0.80771  0.18520  1.0000
  H   H15       1.0  0.12447  0.35321  0.25084  1.0000
  H   H16       1.0  0.87553  0.85320  0.74916  1.0000
  H   H17       1.0  0.00592  0.59507  0.22845  1.0000
  H   H18       1.0  0.99408  0.09507  0.77155  1.0000
  H   H19       1.0  0.05359  0.72696  0.43380  1.0000
  H   H20       1.0  0.94640  0.22695  0.56620  1.0000
  H   H21       1.0  0.23690  0.61577  0.65729  1.0000
  H   H22       1.0  0.76310  0.11577  0.34271  1.0000
  H   H23       1.0  0.19544  0.52800  0.04676  1.0000
  H   H24       1.0  0.80456  0.02801  0.95324  1.0000
  H   H25       1.0  0.15846  0.35389  0.05948  1.0000
  H   H26       1.0  0.84155  0.85389  0.94053  1.0000
  H   H27       1.0  0.84781  0.48570  0.02783  1.0000
  H   H28       1.0  0.15219  0.98570  0.97217  1.0000
  C   C1        1.0  0.42892  0.08849  0.79890  1.0000
  C   C2        1.0  0.57108  0.58849  0.20110  1.0000
  C   C3        1.0  0.40963  0.95177  0.77390  1.0000
  C   C4        1.0  0.59036  0.45178  0.22610  1.0000
  C   C5        1.0  0.36460  0.90892  0.64249  1.0000
  C   C6        1.0  0.63539  0.40892  0.35751  1.0000
  C   C7        1.0  0.33392  0.00261  0.54229  1.0000
  C   C8        1.0  0.66608  0.50261  0.45771  1.0000
  C   C9        1.0  0.35484  0.14034  0.57573  1.0000
  C   C10       1.0  0.64516  0.64034  0.42427  1.0000
  C   C11       1.0  0.25430  0.36456  0.46492  1.0000
  C   C12       1.0  0.74571  0.86456  0.53508  1.0000
  C   C13       1.0  0.15171  0.41867  0.33692  1.0000
  C   C14       1.0  0.84829  0.91867  0.66309  1.0000
  C   C15       1.0  0.08473  0.55004  0.32598  1.0000
  C   C16       1.0  0.91527  0.05004  0.67403  1.0000
  C   C17       1.0  0.11150  0.62495  0.44132  1.0000
  C   C18       1.0  0.88850  0.12494  0.55868  1.0000
  C   C19       1.0  0.21227  0.56450  0.56328  1.0000
  C   C20       1.0  0.78772  0.06450  0.43672  1.0000
  C   C21       1.0  0.18824  0.41073  0.87755  1.0000
  C   C22       1.0  0.81176  0.91073  0.12245  1.0000
  C   C23       1.0  0.11674  0.44013  0.99075  1.0000
  C   C24       1.0  0.88326  0.94013  0.00925  1.0000
  C   C25       1.0  0.82612  0.58194  0.84649  1.0000
  C   C26       1.0  0.17388  0.08194  0.15351  1.0000
  C   C27       1.0  0.89009  0.46098  0.94224  1.0000
  C   C28       1.0  0.10991  0.96099  0.05777  1.0000
  N   N1        1.0  0.40665  0.18147  0.70316  1.0000
  N   N2        1.0  0.59336  0.68148  0.29684  1.0000
  N   N3        1.0  0.32046  0.23269  0.47355  1.0000
  N   N4        1.0  0.67954  0.73269  0.52645  1.0000
  N   N5        1.0  0.28928  0.43892  0.57574  1.0000
  N   N6        1.0  0.71072  0.93891  0.42426  1.0000
  N   N7        1.0  0.77657  0.33902  0.87846  1.0000
  N   N8        1.0  0.22343  0.83903  0.12154  1.0000
  O   O1        1.0  0.06989  0.36025  0.77062  1.0000
  O   O2        1.0  0.93012  0.86025  0.22938  1.0000
  O   O3        1.0  0.37558  0.43692  0.90199  1.0000
  O   O4        1.0  0.62442  0.93693  0.09801  1.0000
  O   O5        1.0  0.65372  0.57598  0.75086  1.0000
  O   O6        1.0  0.34628  0.07599  0.24914  1.0000
  O   O7        1.0  0.94640  0.67899  0.86887  1.0000
  O   O8        1.0  0.05360  0.17900  0.13113  1.0000
