data_image0
_chemical_formula_structural       Mg4H56C20O32
_chemical_formula_sum              "Mg4 H56 C20 O32"
_cell_length_a       6.87076
_cell_length_b       7.30337
_cell_length_c       21.0204
_cell_angle_alpha    84.8718
_cell_angle_beta     80.6007
_cell_angle_gamma    61.9102

_space_group_name_H-M_alt    "P 1"
_space_group_IT_number       1

loop_
  _space_group_symop_operation_xyz
  'x, y, z'

loop_
  _atom_site_type_symbol
  _atom_site_label
  _atom_site_symmetry_multiplicity
  _atom_site_fract_x
  _atom_site_fract_y
  _atom_site_fract_z
  _atom_site_occupancy
  Mg  Mg1       1.0  0.73324  0.60763  0.68458  1.0000
  Mg  Mg2       1.0  0.97444  0.10798  0.18457  1.0000
  Mg  Mg3       1.0  0.26675  0.39237  0.31542  1.0000
  Mg  Mg4       1.0  0.02556  0.89203  0.81543  1.0000
  H   H1        1.0  0.46081  0.67530  0.90598  1.0000
  H   H2        1.0  0.95790  0.17595  0.40586  1.0000
  H   H3        1.0  0.53919  0.32470  0.09402  1.0000
  H   H4        1.0  0.04210  0.82405  0.59414  1.0000
  H   H5        1.0  0.70788  0.43893  0.90695  1.0000
  H   H6        1.0  0.94695  0.93945  0.40685  1.0000
  H   H7        1.0  0.29212  0.56106  0.09305  1.0000
  H   H8        1.0  0.05305  0.06055  0.59315  1.0000
  H   H9        1.0  0.66470  0.86218  0.93560  1.0000
  H   H10       1.0  0.53760  0.36253  0.43560  1.0000
  H   H11       1.0  0.33531  0.13782  0.06440  1.0000
  H   H12       1.0  0.46240  0.63747  0.56440  1.0000
  H   H13       1.0  0.90391  0.62291  0.93869  1.0000
  H   H14       1.0  0.53501  0.12308  0.43861  1.0000
  H   H15       1.0  0.09609  0.37709  0.06131  1.0000
  H   H16       1.0  0.46499  0.87692  0.56139  1.0000
  H   H17       1.0  0.46284  0.74866  0.02902  1.0000
  H   H18       1.0  0.75973  0.24875  0.52902  1.0000
  H   H19       1.0  0.53716  0.25134  0.97098  1.0000
  H   H20       1.0  0.24026  0.75124  0.47098  1.0000
  H   H21       1.0  0.70262  0.50844  0.03229  1.0000
  H   H22       1.0  0.75732  0.00848  0.53219  1.0000
  H   H23       1.0  0.29738  0.49156  0.96771  1.0000
  H   H24       1.0  0.24268  0.99151  0.46781  1.0000
  H   H25       1.0  0.63434  0.30774  0.65481  1.0000
  H   H26       1.0  0.40335  0.80788  0.15486  1.0000
  H   H27       1.0  0.36566  0.69227  0.34519  1.0000
  H   H28       1.0  0.59665  0.19212  0.84514  1.0000
  H   H29       1.0  0.84788  0.19004  0.69171  1.0000
  H   H30       1.0  0.27036  0.69035  0.19162  1.0000
  H   H31       1.0  0.15212  0.80996  0.30829  1.0000
  H   H32       1.0  0.72964  0.30965  0.80838  1.0000
  H   H33       1.0  0.20453  0.39789  0.66855  1.0000
  H   H34       1.0  0.72913  0.89815  0.16859  1.0000
  H   H35       1.0  0.79547  0.60211  0.33145  1.0000
  H   H36       1.0  0.27087  0.10185  0.83141  1.0000
  H   H37       1.0  0.11546  0.52232  0.73417  1.0000
  H   H38       1.0  0.62807  0.02269  0.23416  1.0000
  H   H39       1.0  0.88454  0.47768  0.26583  1.0000
  H   H40       1.0  0.37193  0.97731  0.76584  1.0000
  H   H41       1.0  0.57923  0.02849  0.66573  1.0000
  H   H42       1.0  0.72626  0.52883  0.16575  1.0000
  H   H43       1.0  0.42077  0.97151  0.33427  1.0000
  H   H44       1.0  0.27374  0.47117  0.83425  1.0000
  H   H45       1.0  0.77864  0.92880  0.70784  1.0000
  H   H46       1.0  0.58427  0.42928  0.20780  1.0000
  H   H47       1.0  0.22136  0.07120  0.29216  1.0000
  H   H48       1.0  0.41573  0.57072  0.79220  1.0000
  H   H49       1.0  0.78232  0.63829  0.54707  1.0000
  H   H50       1.0  0.03221  0.13835  0.04708  1.0000
  H   H51       1.0  0.21768  0.36170  0.45293  1.0000
  H   H52       1.0  0.96779  0.86166  0.95292  1.0000
  H   H53       1.0  0.01213  0.50972  0.57286  1.0000
  H   H54       1.0  0.90502  0.01005  0.07287  1.0000
  H   H55       1.0  0.98787  0.49028  0.42714  1.0000
  H   H56       1.0  0.09498  0.98995  0.92714  1.0000
  C   C1        1.0  0.71827  0.64760  0.83051  1.0000
  C   C2        1.0  0.80357  0.14797  0.33044  1.0000
  C   C3        1.0  0.28172  0.35240  0.16949  1.0000
  C   C4        1.0  0.19643  0.85203  0.66956  1.0000
  C   C5        1.0  0.64386  0.60764  0.89991  1.0000
  C   C6        1.0  0.84877  0.10812  0.39983  1.0000
  C   C7        1.0  0.35615  0.39235  0.10009  1.0000
  C   C8        1.0  0.15123  0.89188  0.60017  1.0000
  C   C9        1.0  0.72116  0.69676  0.94707  1.0000
  C   C10       1.0  0.63528  0.19705  0.44703  1.0000
  C   C11       1.0  0.27884  0.30324  0.05293  1.0000
  C   C12       1.0  0.36472  0.80295  0.55297  1.0000
  C   C13       1.0  0.64599  0.67256  0.01794  1.0000
  C   C14       1.0  0.66390  0.17265  0.51791  1.0000
  C   C15       1.0  0.35401  0.32744  0.98206  1.0000
  C   C16       1.0  0.33610  0.82735  0.48209  1.0000
  C   C17       1.0  0.73106  0.76587  0.06154  1.0000
  C   C18       1.0  0.44184  0.26575  0.56152  1.0000
  C   C19       1.0  0.26894  0.23414  0.93846  1.0000
  C   C20       1.0  0.55816  0.73425  0.43848  1.0000
  O   O1        1.0  0.67535  0.56474  0.78610  1.0000
  O   O2        1.0  0.97375  0.06515  0.28603  1.0000
  O   O3        1.0  0.32464  0.43526  0.21390  1.0000
  O   O4        1.0  0.02625  0.93485  0.71397  1.0000
  O   O5        1.0  0.81659  0.75685  0.81786  1.0000
  O   O6        1.0  0.60848  0.25714  0.31781  1.0000
  O   O7        1.0  0.18340  0.24315  0.18214  1.0000
  O   O8        1.0  0.39152  0.74286  0.68219  1.0000
  O   O9        1.0  0.85128  0.84901  0.03669  1.0000
  O   O10       1.0  0.26324  0.34867  0.53668  1.0000
  O   O11       1.0  0.14872  0.15099  0.96331  1.0000
  O   O12       1.0  0.73676  0.65132  0.46332  1.0000
  O   O13       1.0  0.67522  0.75726  0.12298  1.0000
  O   O14       1.0  0.44493  0.25719  0.62295  1.0000
  O   O15       1.0  0.32478  0.24275  0.87703  1.0000
  O   O16       1.0  0.55507  0.74281  0.37705  1.0000
  O   O17       1.0  0.74481  0.32701  0.67459  1.0000
  O   O18       1.0  0.25369  0.82728  0.17455  1.0000
  O   O19       1.0  0.25519  0.67299  0.32541  1.0000
  O   O20       1.0  0.74631  0.17273  0.82545  1.0000
  O   O21       1.0  0.06625  0.48723  0.69788  1.0000
  O   O22       1.0  0.74869  0.98755  0.19789  1.0000
  O   O23       1.0  0.93376  0.51277  0.30212  1.0000
  O   O24       1.0  0.25131  0.01245  0.80211  1.0000
  O   O25       1.0  0.64754  0.91793  0.69816  1.0000
  O   O26       1.0  0.73603  0.41816  0.19813  1.0000
  O   O27       1.0  0.35246  0.08207  0.30184  1.0000
  O   O28       1.0  0.26397  0.58184  0.80187  1.0000
  O   O29       1.0  0.85425  0.61639  0.58616  1.0000
  O   O30       1.0  0.94292  0.11667  0.08615  1.0000
  O   O31       1.0  0.14575  0.38361  0.41384  1.0000
  O   O32       1.0  0.05708  0.88333  0.91385  1.0000
