data_image0
_chemical_formula_structural       Mg4H48C16O32
_chemical_formula_sum              "Mg4 H48 C16 O32"
_cell_length_a       7.43683
_cell_length_b       7.66663
_cell_length_c       14.3288
_cell_angle_alpha    89.9998
_cell_angle_beta     90
_cell_angle_gamma    98.6813

_space_group_name_H-M_alt    "P 1"
_space_group_IT_number       1

loop_
  _space_group_symop_operation_xyz
  'x, y, z'

loop_
  _atom_site_type_symbol
  _atom_site_label
  _atom_site_symmetry_multiplicity
  _atom_site_fract_x
  _atom_site_fract_y
  _atom_site_fract_z
  _atom_site_occupancy
  Mg  Mg1       1.0  0.07677  0.81622  0.64423  1.0000
  Mg  Mg2       1.0  0.07677  0.31622  0.85577  1.0000
  Mg  Mg3       1.0  0.92323  0.18378  0.35577  1.0000
  Mg  Mg4       1.0  0.92323  0.68378  0.14423  1.0000
  H   H1        1.0  0.38759  0.73229  0.63667  1.0000
  H   H2        1.0  0.38759  0.23228  0.86333  1.0000
  H   H3        1.0  0.61241  0.26771  0.36334  1.0000
  H   H4        1.0  0.61241  0.76772  0.13666  1.0000
  H   H5        1.0  0.27624  0.58943  0.56649  1.0000
  H   H6        1.0  0.27624  0.08943  0.93351  1.0000
  H   H7        1.0  0.72376  0.41057  0.43351  1.0000
  H   H8        1.0  0.72376  0.91057  0.06649  1.0000
  H   H9        1.0  0.75291  0.95197  0.64064  1.0000
  H   H10       1.0  0.75291  0.45197  0.85936  1.0000
  H   H11       1.0  0.24709  0.04803  0.35936  1.0000
  H   H12       1.0  0.24709  0.54803  0.14064  1.0000
  H   H13       1.0  0.88272  0.03588  0.72174  1.0000
  H   H14       1.0  0.88272  0.53588  0.77826  1.0000
  H   H15       1.0  0.11728  0.96412  0.27826  1.0000
  H   H16       1.0  0.11728  0.46412  0.22174  1.0000
  H   H17       1.0  0.19101  0.73060  0.82022  1.0000
  H   H18       1.0  0.19101  0.23060  0.67978  1.0000
  H   H19       1.0  0.80899  0.26940  0.17978  1.0000
  H   H20       1.0  0.80899  0.76940  0.32022  1.0000
  H   H21       1.0  0.19999  0.94027  0.81192  1.0000
  H   H22       1.0  0.19998  0.44027  0.68808  1.0000
  H   H23       1.0  0.80001  0.05973  0.18808  1.0000
  H   H24       1.0  0.80001  0.55973  0.31192  1.0000
  H   H25       1.0  0.04669  0.87196  0.44645  1.0000
  H   H26       1.0  0.04669  0.37196  0.05355  1.0000
  H   H27       1.0  0.95331  0.12804  0.55355  1.0000
  H   H28       1.0  0.95331  0.62804  0.94645  1.0000
  H   H29       1.0  0.92048  0.70514  0.49534  1.0000
  H   H30       1.0  0.92048  0.20514  0.00466  1.0000
  H   H31       1.0  0.07952  0.29486  0.50466  1.0000
  H   H32       1.0  0.07952  0.79486  0.99534  1.0000
  H   H33       1.0  0.74225  0.27091  0.69263  1.0000
  H   H34       1.0  0.74225  0.77091  0.80737  1.0000
  H   H35       1.0  0.25775  0.72909  0.30737  1.0000
  H   H36       1.0  0.25775  0.22909  0.19263  1.0000
  H   H37       1.0  0.55967  0.38928  0.70449  1.0000
  H   H38       1.0  0.55967  0.88928  0.79551  1.0000
  H   H39       1.0  0.44033  0.61072  0.29551  1.0000
  H   H40       1.0  0.44033  0.11072  0.20449  1.0000
  H   H41       1.0  0.44989  0.29711  0.54246  1.0000
  H   H42       1.0  0.44989  0.79711  0.95754  1.0000
  H   H43       1.0  0.55011  0.70289  0.45754  1.0000
  H   H44       1.0  0.55011  0.20289  0.04246  1.0000
  H   H45       1.0  0.64347  0.18924  0.52816  1.0000
  H   H46       1.0  0.64347  0.68924  0.97184  1.0000
  H   H47       1.0  0.35653  0.81076  0.47184  1.0000
  H   H48       1.0  0.35653  0.31076  0.02816  1.0000
  C   C1        1.0  0.76765  0.50406  0.61174  1.0000
  C   C2        1.0  0.76765  0.00406  0.88826  1.0000
  C   C3        1.0  0.23235  0.49594  0.38826  1.0000
  C   C4        1.0  0.23235  0.99594  0.11174  1.0000
  C   C5        1.0  0.65094  0.34289  0.65270  1.0000
  C   C6        1.0  0.65094  0.84289  0.84730  1.0000
  C   C7        1.0  0.34906  0.65711  0.34730  1.0000
  C   C8        1.0  0.34906  0.15711  0.15269  1.0000
  C   C9        1.0  0.54545  0.22521  0.57898  1.0000
  C   C10       1.0  0.54545  0.72521  0.92102  1.0000
  C   C11       1.0  0.45455  0.77479  0.42102  1.0000
  C   C12       1.0  0.45455  0.27479  0.07898  1.0000
  C   C13       1.0  0.44192  0.05468  0.61670  1.0000
  C   C14       1.0  0.44191  0.55468  0.88330  1.0000
  C   C15       1.0  0.55808  0.94532  0.38329  1.0000
  C   C16       1.0  0.55808  0.44532  0.11670  1.0000
  O   O1        1.0  0.87445  0.60067  0.66807  1.0000
  O   O2        1.0  0.87445  0.10067  0.83192  1.0000
  O   O3        1.0  0.12555  0.39933  0.33193  1.0000
  O   O4        1.0  0.12555  0.89933  0.16807  1.0000
  O   O5        1.0  0.75683  0.54009  0.52572  1.0000
  O   O6        1.0  0.75683  0.04009  0.97427  1.0000
  O   O7        1.0  0.24317  0.45991  0.47428  1.0000
  O   O8        1.0  0.24318  0.95991  0.02572  1.0000
  O   O9        1.0  0.26995  0.04449  0.62883  1.0000
  O   O10       1.0  0.26995  0.54449  0.87117  1.0000
  O   O11       1.0  0.73005  0.95551  0.37117  1.0000
  O   O12       1.0  0.73005  0.45551  0.12883  1.0000
  O   O13       1.0  0.52758  0.92516  0.63227  1.0000
  O   O14       1.0  0.52758  0.42516  0.86773  1.0000
  O   O15       1.0  0.47242  0.07484  0.36773  1.0000
  O   O16       1.0  0.47242  0.57484  0.13227  1.0000
  O   O17       1.0  0.27459  0.64221  0.63068  1.0000
  O   O18       1.0  0.27459  0.14221  0.86933  1.0000
  O   O19       1.0  0.72541  0.35779  0.36933  1.0000
  O   O20       1.0  0.72541  0.85779  0.13067  1.0000
  O   O21       1.0  0.88530  0.98709  0.65650  1.0000
  O   O22       1.0  0.88530  0.48709  0.84350  1.0000
  O   O23       1.0  0.11470  0.01291  0.34350  1.0000
  O   O24       1.0  0.11470  0.51291  0.15650  1.0000
  O   O25       1.0  0.14180  0.82552  0.78594  1.0000
  O   O26       1.0  0.14180  0.32552  0.71406  1.0000
  O   O27       1.0  0.85821  0.17448  0.21406  1.0000
  O   O28       1.0  0.85821  0.67448  0.28594  1.0000
  O   O29       1.0  0.03136  0.79589  0.50229  1.0000
  O   O30       1.0  0.03136  0.29589  0.99771  1.0000
  O   O31       1.0  0.96864  0.20411  0.49771  1.0000
  O   O32       1.0  0.96864  0.70411  0.00229  1.0000
