data_image0
_chemical_formula_structural       Mg4H72C32O28
_chemical_formula_sum              "Mg4 H72 C32 O28"
_cell_length_a       7.99044
_cell_length_b       9.02638
_cell_length_c       15.8734
_cell_angle_alpha    103.823
_cell_angle_beta     89.9997
_cell_angle_gamma    90.0001

_space_group_name_H-M_alt    "P 1"
_space_group_IT_number       1

loop_
  _space_group_symop_operation_xyz
  'x, y, z'

loop_
  _atom_site_type_symbol
  _atom_site_label
  _atom_site_symmetry_multiplicity
  _atom_site_fract_x
  _atom_site_fract_y
  _atom_site_fract_z
  _atom_site_occupancy
  Mg  Mg1       1.0  0.86758  0.30372  0.37026  1.0000
  Mg  Mg2       1.0  0.63242  0.80372  0.37026  1.0000
  Mg  Mg3       1.0  0.13242  0.69628  0.62974  1.0000
  Mg  Mg4       1.0  0.36758  0.19628  0.62974  1.0000
  H   H1        1.0  0.79272  0.76721  0.16865  1.0000
  H   H2        1.0  0.70729  0.26721  0.16865  1.0000
  H   H3        1.0  0.20728  0.23279  0.83135  1.0000
  H   H4        1.0  0.29271  0.73279  0.83135  1.0000
  H   H5        1.0  0.98711  0.86210  0.16483  1.0000
  H   H6        1.0  0.51290  0.36209  0.16483  1.0000
  H   H7        1.0  0.01290  0.13790  0.83517  1.0000
  H   H8        1.0  0.48710  0.63791  0.83517  1.0000
  H   H9        1.0  0.84898  0.03961  0.08664  1.0000
  H   H10       1.0  0.65102  0.53961  0.08664  1.0000
  H   H11       1.0  0.15102  0.96039  0.91336  1.0000
  H   H12       1.0  0.34898  0.46039  0.91336  1.0000
  H   H13       1.0  0.65724  0.94234  0.08670  1.0000
  H   H14       1.0  0.84276  0.44234  0.08670  1.0000
  H   H15       1.0  0.34275  0.05766  0.91331  1.0000
  H   H16       1.0  0.15724  0.55766  0.91330  1.0000
  H   H17       1.0  0.98109  0.79937  0.99903  1.0000
  H   H18       1.0  0.51891  0.29937  0.99903  1.0000
  H   H19       1.0  0.01891  0.20063  0.00097  1.0000
  H   H20       1.0  0.48109  0.70063  0.00097  1.0000
  H   H21       1.0  0.79234  0.69992  0.00135  1.0000
  H   H22       1.0  0.70766  0.19992  0.00134  1.0000
  H   H23       1.0  0.20766  0.30008  0.99865  1.0000
  H   H24       1.0  0.29234  0.80008  0.99865  1.0000
  H   H25       1.0  0.84409  0.96952  0.91710  1.0000
  H   H26       1.0  0.65590  0.46952  0.91710  1.0000
  H   H27       1.0  0.15590  0.03048  0.08290  1.0000
  H   H28       1.0  0.34409  0.53048  0.08290  1.0000
  H   H29       1.0  0.64866  0.88407  0.92547  1.0000
  H   H30       1.0  0.85134  0.38407  0.92547  1.0000
  H   H31       1.0  0.35134  0.11593  0.07453  1.0000
  H   H32       1.0  0.14866  0.61593  0.07453  1.0000
  H   H33       1.0  0.76155  0.63243  0.84007  1.0000
  H   H34       1.0  0.73845  0.13243  0.84007  1.0000
  H   H35       1.0  0.23845  0.36757  0.15993  1.0000
  H   H36       1.0  0.26155  0.86757  0.15993  1.0000
  H   H37       1.0  0.95439  0.72056  0.82759  1.0000
  H   H38       1.0  0.54562  0.22056  0.82759  1.0000
  H   H39       1.0  0.04562  0.27944  0.17241  1.0000
  H   H40       1.0  0.45438  0.77944  0.17241  1.0000
  H   H41       1.0  0.62226  0.83205  0.76825  1.0000
  H   H42       1.0  0.87774  0.33205  0.76825  1.0000
  H   H43       1.0  0.37774  0.16795  0.23175  1.0000
  H   H44       1.0  0.12226  0.66795  0.23175  1.0000
  H   H45       1.0  0.82984  0.88331  0.74409  1.0000
  H   H46       1.0  0.67016  0.38331  0.74409  1.0000
  H   H47       1.0  0.17016  0.11669  0.25591  1.0000
  H   H48       1.0  0.32984  0.61669  0.25591  1.0000
  H   H49       1.0  0.61773  0.12698  0.36063  1.0000
  H   H50       1.0  0.88227  0.62698  0.36063  1.0000
  H   H51       1.0  0.38227  0.87302  0.63937  1.0000
  H   H52       1.0  0.11773  0.37302  0.63937  1.0000
  H   H53       1.0  0.52998  0.29196  0.36318  1.0000
  H   H54       1.0  0.97002  0.79196  0.36318  1.0000
  H   H55       1.0  0.47002  0.70804  0.63682  1.0000
  H   H56       1.0  0.02998  0.20804  0.63682  1.0000
  H   H57       1.0  0.85202  0.51395  0.53894  1.0000
  H   H58       1.0  0.64798  0.01395  0.53894  1.0000
  H   H59       1.0  0.14798  0.48605  0.46106  1.0000
  H   H60       1.0  0.35202  0.98605  0.46106  1.0000
  H   H61       1.0  0.71873  0.54239  0.47070  1.0000
  H   H62       1.0  0.78127  0.04239  0.47070  1.0000
  H   H63       1.0  0.28127  0.45761  0.52930  1.0000
  H   H64       1.0  0.21873  0.95761  0.52930  1.0000
  H   H65       1.0  0.03885  0.07435  0.41444  1.0000
  H   H66       1.0  0.46116  0.57434  0.41444  1.0000
  H   H67       1.0  0.96115  0.92565  0.58556  1.0000
  H   H68       1.0  0.53885  0.42566  0.58556  1.0000
  H   H69       1.0  0.02391  0.20453  0.50234  1.0000
  H   H70       1.0  0.47609  0.70453  0.50234  1.0000
  H   H71       1.0  0.97609  0.79547  0.49766  1.0000
  H   H72       1.0  0.52391  0.29547  0.49766  1.0000
  C   C1        1.0  0.80705  0.99425  0.24870  1.0000
  C   C2        1.0  0.69295  0.49425  0.24870  1.0000
  C   C3        1.0  0.19295  0.00576  0.75130  1.0000
  C   C4        1.0  0.30705  0.50574  0.75130  1.0000
  C   C5        1.0  0.85043  0.87653  0.16645  1.0000
  C   C6        1.0  0.64958  0.37653  0.16645  1.0000
  C   C7        1.0  0.14957  0.12347  0.83355  1.0000
  C   C8        1.0  0.35043  0.62347  0.83355  1.0000
  C   C9        1.0  0.79436  0.92699  0.08523  1.0000
  C   C10       1.0  0.70564  0.42699  0.08523  1.0000
  C   C11       1.0  0.20563  0.07300  0.91477  1.0000
  C   C12       1.0  0.29436  0.57301  0.91477  1.0000
  C   C13       1.0  0.84383  0.81328  0.00126  1.0000
  C   C14       1.0  0.65617  0.31328  0.00126  1.0000
  C   C15       1.0  0.15617  0.18672  0.99874  1.0000
  C   C16       1.0  0.34383  0.68672  0.99874  1.0000
  C   C17       1.0  0.78444  0.86070  0.92010  1.0000
  C   C18       1.0  0.71556  0.36070  0.92010  1.0000
  C   C19       1.0  0.21556  0.13930  0.07990  1.0000
  C   C20       1.0  0.28444  0.63930  0.07990  1.0000
  C   C21       1.0  0.81915  0.74148  0.83607  1.0000
  C   C22       1.0  0.68085  0.24148  0.83607  1.0000
  C   C23       1.0  0.18085  0.25852  0.16393  1.0000
  C   C24       1.0  0.31915  0.75852  0.16393  1.0000
  C   C25       1.0  0.75152  0.79071  0.75627  1.0000
  C   C26       1.0  0.74848  0.29071  0.75627  1.0000
  C   C27       1.0  0.24848  0.20930  0.24373  1.0000
  C   C28       1.0  0.25152  0.70930  0.24373  1.0000
  C   C29       1.0  0.75318  0.65819  0.67719  1.0000
  C   C30       1.0  0.74682  0.15818  0.67719  1.0000
  C   C31       1.0  0.24682  0.34181  0.32281  1.0000
  C   C32       1.0  0.25319  0.84182  0.32281  1.0000
  O   O1        1.0  0.87350  0.12520  0.26099  1.0000
  O   O2        1.0  0.62650  0.62519  0.26099  1.0000
  O   O3        1.0  0.12650  0.87480  0.73901  1.0000
  O   O4        1.0  0.37350  0.37481  0.73901  1.0000
  O   O5        1.0  0.70087  0.95949  0.30119  1.0000
  O   O6        1.0  0.79914  0.45948  0.30119  1.0000
  O   O7        1.0  0.29913  0.04051  0.69881  1.0000
  O   O8        1.0  0.20086  0.54051  0.69881  1.0000
  O   O9        1.0  0.89187  0.61599  0.63889  1.0000
  O   O10       1.0  0.60813  0.11599  0.63889  1.0000
  O   O11       1.0  0.10814  0.38401  0.36111  1.0000
  O   O12       1.0  0.39186  0.88400  0.36111  1.0000
  O   O13       1.0  0.61532  0.59030  0.65289  1.0000
  O   O14       1.0  0.88468  0.09029  0.65290  1.0000
  O   O15       1.0  0.38469  0.40971  0.34711  1.0000
  O   O16       1.0  0.11532  0.90971  0.34710  1.0000
  O   O17       1.0  0.61521  0.23761  0.39134  1.0000
  O   O18       1.0  0.88480  0.73760  0.39134  1.0000
  O   O19       1.0  0.38479  0.76240  0.60866  1.0000
  O   O20       1.0  0.11520  0.26240  0.60866  1.0000
  O   O21       1.0  0.81445  0.47702  0.47744  1.0000
  O   O22       1.0  0.68555  0.97702  0.47744  1.0000
  O   O23       1.0  0.18554  0.52297  0.52256  1.0000
  O   O24       1.0  0.31445  0.02298  0.52256  1.0000
  O   O25       1.0  0.96447  0.15789  0.44705  1.0000
  O   O26       1.0  0.53553  0.65789  0.44705  1.0000
  O   O27       1.0  0.03553  0.84211  0.55295  1.0000
  O   O28       1.0  0.46447  0.34211  0.55295  1.0000
