data_image0
_chemical_formula_structural       Cu2P2H24C18Br2N6
_chemical_formula_sum              "Cu2 P2 H24 C18 Br2 N6"
_cell_length_a       7.24457
_cell_length_b       7.90661
_cell_length_c       12.4234
_cell_angle_alpha    74.4737
_cell_angle_beta     89.7106
_cell_angle_gamma    64.5525

_space_group_name_H-M_alt    "P 1"
_space_group_IT_number       1

loop_
  _space_group_symop_operation_xyz
  'x, y, z'

loop_
  _atom_site_type_symbol
  _atom_site_label
  _atom_site_symmetry_multiplicity
  _atom_site_fract_x
  _atom_site_fract_y
  _atom_site_fract_z
  _atom_site_occupancy
  Cu  Cu1       1.0  0.88472  0.18591  0.89225  1.0000
  Cu  Cu2       1.0  0.11528  0.81409  0.10774  1.0000
  P   P1        1.0  0.70193  0.17355  0.75792  1.0000
  P   P2        1.0  0.29807  0.82646  0.24208  1.0000
  H   H1        1.0  0.66654  0.24037  0.55220  1.0000
  H   H2        1.0  0.33345  0.75964  0.44780  1.0000
  H   H3        1.0  0.66542  0.43858  0.59561  1.0000
  H   H4        1.0  0.33457  0.56143  0.40439  1.0000
  H   H5        1.0  0.62330  0.93194  0.70297  1.0000
  H   H6        1.0  0.37671  0.06806  0.29703  1.0000
  H   H7        1.0  0.88974  0.86565  0.71955  1.0000
  H   H8        1.0  0.11027  0.13435  0.28044  1.0000
  H   H9        1.0  0.18179  0.54338  0.80007  1.0000
  H   H10       1.0  0.81821  0.45661  0.19993  1.0000
  H   H11       1.0  0.42786  0.45811  0.87561  1.0000
  H   H12       1.0  0.57214  0.54188  0.12439  1.0000
  H   H13       1.0  0.89089  0.79909  0.93126  1.0000
  H   H14       1.0  0.10911  0.20091  0.06874  1.0000
  H   H15       1.0  0.62682  0.85139  0.91564  1.0000
  H   H16       1.0  0.37317  0.14862  0.08436  1.0000
  H   H17       1.0  0.04085  0.25092  0.66386  1.0000
  H   H18       1.0  0.95915  0.74909  0.33614  1.0000
  H   H19       1.0  0.05671  0.04746  0.62407  1.0000
  H   H20       1.0  0.94328  0.95255  0.37593  1.0000
  H   H21       1.0  0.33939  0.32734  0.67584  1.0000
  H   H22       1.0  0.66061  0.67266  0.32416  1.0000
  H   H23       1.0  0.37967  0.19571  0.82040  1.0000
  H   H24       1.0  0.62033  0.80427  0.17960  1.0000
  C   C1        1.0  0.74020  0.27850  0.61303  1.0000
  C   C2        1.0  0.25979  0.72151  0.38697  1.0000
  C   C3        1.0  0.74674  0.92664  0.75689  1.0000
  C   C4        1.0  0.25326  0.07336  0.24311  1.0000
  C   C5        1.0  0.34744  0.48747  0.79283  1.0000
  C   C6        1.0  0.65257  0.51253  0.20718  1.0000
  C   C7        1.0  0.77137  0.79694  0.87775  1.0000
  C   C8        1.0  0.22863  0.20306  0.12225  1.0000
  C   C9        1.0  0.97185  0.20798  0.60350  1.0000
  C   C10       1.0  0.02815  0.79203  0.39649  1.0000
  C   C11       1.0  0.37676  0.64283  0.71247  1.0000
  C   C12       1.0  0.62324  0.35716  0.28753  1.0000
  C   C13       1.0  0.42059  0.29831  0.75809  1.0000
  C   C14       1.0  0.57941  0.70168  0.24191  1.0000
  C   C15       1.0  0.00888  0.29200  0.49140  1.0000
  C   C16       1.0  0.99112  0.70800  0.50861  1.0000
  C   C17       1.0  0.82828  0.59537  0.88424  1.0000
  C   C18       1.0  0.17172  0.40462  0.11576  1.0000
  Br  Br1       1.0  0.24301  0.90880  0.92026  1.0000
  Br  Br2       1.0  0.75700  0.09120  0.07974  1.0000
  N   N1        1.0  0.39877  0.76554  0.64529  1.0000
  N   N2        1.0  0.60124  0.23445  0.35472  1.0000
  N   N3        1.0  0.03463  0.36240  0.40093  1.0000
  N   N4        1.0  0.96537  0.63760  0.59907  1.0000
  N   N5        1.0  0.87653  0.43169  0.89064  1.0000
  N   N6        1.0  0.12348  0.56832  0.10936  1.0000
