data_image0
_chemical_formula_structural       Pr2H32C16Cl6O4
_chemical_formula_sum              "Pr2 H32 C16 Cl6 O4"
_cell_length_a       8.18752
_cell_length_b       8.61942
_cell_length_c       9.78077
_cell_angle_alpha    79.4686
_cell_angle_beta     70.0579
_cell_angle_gamma    82.25

_space_group_name_H-M_alt    "P 1"
_space_group_IT_number       1

loop_
  _space_group_symop_operation_xyz
  'x, y, z'

loop_
  _atom_site_type_symbol
  _atom_site_label
  _atom_site_symmetry_multiplicity
  _atom_site_fract_x
  _atom_site_fract_y
  _atom_site_fract_z
  _atom_site_occupancy
  Pr  Pr1       1.0  0.99433  0.23656  0.07783  1.0000
  Pr  Pr2       1.0  0.00569  0.76345  0.92216  1.0000
  H   H1        1.0  0.42914  0.07284  0.79127  1.0000
  H   H2        1.0  0.57086  0.92717  0.20873  1.0000
  H   H3        1.0  0.23536  0.17131  0.76185  1.0000
  H   H4        1.0  0.76464  0.82871  0.23816  1.0000
  H   H5        1.0  0.54819  0.26706  0.56788  1.0000
  H   H6        1.0  0.45181  0.73294  0.43212  1.0000
  H   H7        1.0  0.37897  0.41310  0.63832  1.0000
  H   H8        1.0  0.62103  0.58691  0.36169  1.0000
  H   H9        1.0  0.69443  0.29472  0.73911  1.0000
  H   H10       1.0  0.30557  0.70527  0.26089  1.0000
  H   H11       1.0  0.59422  0.49050  0.72065  1.0000
  H   H12       1.0  0.40580  0.50950  0.27934  1.0000
  H   H13       1.0  0.52326  0.25767  0.98476  1.0000
  H   H14       1.0  0.47676  0.74234  0.01523  1.0000
  H   H15       1.0  0.39716  0.44290  0.96348  1.0000
  H   H16       1.0  0.60287  0.55711  0.03651  1.0000
  H   H17       1.0  0.86473  0.17662  0.52238  1.0000
  H   H18       1.0  0.13526  0.82338  0.47761  1.0000
  H   H19       1.0  0.88748  0.36654  0.40960  1.0000
  H   H20       1.0  0.11251  0.63346  0.59040  1.0000
  H   H21       1.0  0.03716  0.29315  0.62939  1.0000
  H   H22       1.0  0.96283  0.70684  0.37062  1.0000
  H   H23       1.0  0.15067  0.40128  0.45638  1.0000
  H   H24       1.0  0.84933  0.59871  0.54362  1.0000
  H   H25       1.0  0.18581  0.04082  0.54862  1.0000
  H   H26       1.0  0.81417  0.95917  0.45138  1.0000
  H   H27       1.0  0.35851  0.16930  0.47370  1.0000
  H   H28       1.0  0.64148  0.83069  0.52631  1.0000
  H   H29       1.0  0.27185  0.01911  0.28610  1.0000
  H   H30       1.0  0.72813  0.98088  0.71391  1.0000
  H   H31       1.0  0.32144  0.22242  0.23670  1.0000
  H   H32       1.0  0.67855  0.77757  0.76331  1.0000
  C   C1        1.0  0.35608  0.18890  0.78036  1.0000
  C   C2        1.0  0.64393  0.81111  0.21964  1.0000
  C   C3        1.0  0.46482  0.31321  0.66851  1.0000
  C   C4        1.0  0.53519  0.68679  0.33148  1.0000
  C   C5        1.0  0.56925  0.36520  0.75430  1.0000
  C   C6        1.0  0.43076  0.63481  0.24569  1.0000
  C   C7        1.0  0.45404  0.33449  0.91590  1.0000
  C   C8        1.0  0.54597  0.66552  0.08410  1.0000
  C   C9        1.0  0.95828  0.25902  0.44656  1.0000
  C   C10       1.0  0.04171  0.74097  0.55344  1.0000
  C   C11       1.0  0.09370  0.28865  0.51105  1.0000
  C   C12       1.0  0.90630  0.71135  0.48895  1.0000
  C   C13       1.0  0.22971  0.14918  0.47282  1.0000
  C   C14       1.0  0.77027  0.85081  0.52719  1.0000
  C   C15       1.0  0.23524  0.13755  0.31836  1.0000
  C   C16       1.0  0.76476  0.86244  0.68164  1.0000
  Cl  Cl1       1.0  0.92954  0.47633  0.86060  1.0000
  Cl  Cl2       1.0  0.07046  0.52368  0.13940  1.0000
  Cl  Cl3       1.0  0.66586  0.24539  0.25850  1.0000
  Cl  Cl4       1.0  0.33414  0.75462  0.74149  1.0000
  Cl  Cl5       1.0  0.87759  0.08370  0.89496  1.0000
  Cl  Cl6       1.0  0.12241  0.91630  0.10503  1.0000
  O   O1        1.0  0.30689  0.25238  0.91846  1.0000
  O   O2        1.0  0.69312  0.74763  0.08154  1.0000
  O   O3        1.0  0.05599  0.18139  0.31742  1.0000
  O   O4        1.0  0.94401  0.81861  0.68257  1.0000
