data_image0
_chemical_formula_structural       Zn8H40C48N24Cl16O8
_chemical_formula_sum              "Zn8 H40 C48 N24 Cl16 O8"
_cell_length_a       6.88394
_cell_length_b       13.3077
_cell_length_c       19.2768
_cell_angle_alpha    90
_cell_angle_beta     89.9999
_cell_angle_gamma    90

_space_group_name_H-M_alt    "P 1"
_space_group_IT_number       1

loop_
  _space_group_symop_operation_xyz
  'x, y, z'

loop_
  _atom_site_type_symbol
  _atom_site_label
  _atom_site_symmetry_multiplicity
  _atom_site_fract_x
  _atom_site_fract_y
  _atom_site_fract_z
  _atom_site_occupancy
  Zn  Zn1       1.0  0.50998  0.84090  0.40781  1.0000
  Zn  Zn2       1.0  0.99002  0.15910  0.90781  1.0000
  Zn  Zn3       1.0  0.49002  0.34090  0.09219  1.0000
  Zn  Zn4       1.0  0.00998  0.65910  0.59219  1.0000
  Zn  Zn5       1.0  0.49002  0.15910  0.59219  1.0000
  Zn  Zn6       1.0  0.00998  0.84090  0.09219  1.0000
  Zn  Zn7       1.0  0.50998  0.65910  0.90781  1.0000
  Zn  Zn8       1.0  0.99002  0.34090  0.40781  1.0000
  H   H1        1.0  0.62529  0.65365  0.48500  1.0000
  H   H2        1.0  0.87471  0.34635  0.98500  1.0000
  H   H3        1.0  0.37472  0.15365  0.01500  1.0000
  H   H4        1.0  0.12529  0.84635  0.51500  1.0000
  H   H5        1.0  0.37472  0.34635  0.51500  1.0000
  H   H6        1.0  0.12529  0.65365  0.01500  1.0000
  H   H7        1.0  0.62529  0.84635  0.98500  1.0000
  H   H8        1.0  0.87472  0.15365  0.48500  1.0000
  H   H9        1.0  0.60634  0.66235  0.14305  1.0000
  H   H10       1.0  0.89366  0.33765  0.64304  1.0000
  H   H11       1.0  0.39366  0.16235  0.35695  1.0000
  H   H12       1.0  0.10634  0.83765  0.85696  1.0000
  H   H13       1.0  0.39366  0.33765  0.85696  1.0000
  H   H14       1.0  0.10634  0.66235  0.35695  1.0000
  H   H15       1.0  0.60634  0.83764  0.64305  1.0000
  H   H16       1.0  0.89366  0.16235  0.14304  1.0000
  H   H17       1.0  0.50715  0.79398  0.24484  1.0000
  H   H18       1.0  0.99285  0.20602  0.74484  1.0000
  H   H19       1.0  0.49285  0.29398  0.25516  1.0000
  H   H20       1.0  0.00714  0.70602  0.75516  1.0000
  H   H21       1.0  0.49285  0.20602  0.75516  1.0000
  H   H22       1.0  0.00715  0.79398  0.25516  1.0000
  H   H23       1.0  0.50715  0.70602  0.74484  1.0000
  H   H24       1.0  0.99285  0.29398  0.24484  1.0000
  H   H25       1.0  0.75149  0.49598  0.45653  1.0000
  H   H26       1.0  0.74851  0.50402  0.95653  1.0000
  H   H27       1.0  0.24851  0.99598  0.04347  1.0000
  H   H28       1.0  0.25149  0.00402  0.54347  1.0000
  H   H29       1.0  0.24851  0.50402  0.54347  1.0000
  H   H30       1.0  0.25149  0.49598  0.04347  1.0000
  H   H31       1.0  0.75149  0.00402  0.95653  1.0000
  H   H32       1.0  0.74851  0.99598  0.45653  1.0000
  H   H33       1.0  0.72370  0.50287  0.19775  1.0000
  H   H34       1.0  0.77630  0.49713  0.69775  1.0000
  H   H35       1.0  0.27630  0.00287  0.30225  1.0000
  H   H36       1.0  0.22370  0.99713  0.80225  1.0000
  H   H37       1.0  0.27630  0.49713  0.80225  1.0000
  H   H38       1.0  0.22370  0.50288  0.30225  1.0000
  H   H39       1.0  0.72370  0.99712  0.69775  1.0000
  H   H40       1.0  0.77630  0.00287  0.19775  1.0000
  C   C1        1.0  0.63610  0.63364  0.43026  1.0000
  C   C2        1.0  0.86390  0.36636  0.93026  1.0000
  C   C3        1.0  0.36391  0.13364  0.06974  1.0000
  C   C4        1.0  0.13610  0.86636  0.56974  1.0000
  C   C5        1.0  0.36390  0.36636  0.56974  1.0000
  C   C6        1.0  0.13610  0.63364  0.06974  1.0000
  C   C7        1.0  0.63610  0.86636  0.93026  1.0000
  C   C8        1.0  0.86390  0.13364  0.43026  1.0000
  C   C9        1.0  0.60082  0.66745  0.31423  1.0000
  C   C10       1.0  0.89918  0.33255  0.81423  1.0000
  C   C11       1.0  0.39918  0.16745  0.18577  1.0000
  C   C12       1.0  0.10082  0.83255  0.68577  1.0000
  C   C13       1.0  0.39918  0.33255  0.68577  1.0000
  C   C14       1.0  0.10082  0.66745  0.18577  1.0000
  C   C15       1.0  0.60082  0.83255  0.81423  1.0000
  C   C16       1.0  0.89918  0.16745  0.31423  1.0000
  C   C17       1.0  0.67451  0.57082  0.29735  1.0000
  C   C18       1.0  0.82549  0.42918  0.79735  1.0000
  C   C19       1.0  0.32549  0.07082  0.20265  1.0000
  C   C20       1.0  0.17451  0.92918  0.70265  1.0000
  C   C21       1.0  0.32549  0.42918  0.70265  1.0000
  C   C22       1.0  0.17451  0.57082  0.20265  1.0000
  C   C23       1.0  0.67451  0.92918  0.79735  1.0000
  C   C24       1.0  0.82549  0.07082  0.29735  1.0000
  C   C25       1.0  0.73939  0.50406  0.34921  1.0000
  C   C26       1.0  0.76060  0.49594  0.84921  1.0000
  C   C27       1.0  0.26060  0.00406  0.15079  1.0000
  C   C28       1.0  0.23939  0.99594  0.65079  1.0000
  C   C29       1.0  0.26060  0.49594  0.65079  1.0000
  C   C30       1.0  0.23939  0.50406  0.15079  1.0000
  C   C31       1.0  0.73939  0.99594  0.84921  1.0000
  C   C32       1.0  0.76061  0.00406  0.34921  1.0000
  C   C33       1.0  0.61223  0.65206  0.19887  1.0000
  C   C34       1.0  0.88777  0.34793  0.69887  1.0000
  C   C35       1.0  0.38777  0.15207  0.30113  1.0000
  C   C36       1.0  0.11223  0.84793  0.80113  1.0000
  C   C37       1.0  0.38777  0.34793  0.80113  1.0000
  C   C38       1.0  0.11223  0.65207  0.30113  1.0000
  C   C39       1.0  0.61223  0.84793  0.69887  1.0000
  C   C40       1.0  0.88777  0.15207  0.19887  1.0000
  C   C41       1.0  0.56219  0.71841  0.25155  1.0000
  C   C42       1.0  0.93781  0.28160  0.75155  1.0000
  C   C43       1.0  0.43781  0.21841  0.24845  1.0000
  C   C44       1.0  0.06219  0.78159  0.74845  1.0000
  C   C45       1.0  0.43781  0.28160  0.74845  1.0000
  C   C46       1.0  0.06220  0.71841  0.24845  1.0000
  C   C47       1.0  0.56219  0.78159  0.75155  1.0000
  C   C48       1.0  0.93781  0.21840  0.25155  1.0000
  N   N1        1.0  0.70825  0.54162  0.41569  1.0000
  N   N2        1.0  0.79175  0.45838  0.91569  1.0000
  N   N3        1.0  0.29175  0.04162  0.08431  1.0000
  N   N4        1.0  0.20826  0.95838  0.58431  1.0000
  N   N5        1.0  0.29175  0.45838  0.58432  1.0000
  N   N6        1.0  0.20825  0.54162  0.08431  1.0000
  N   N7        1.0  0.70825  0.95838  0.91569  1.0000
  N   N8        1.0  0.79175  0.04162  0.41569  1.0000
  N   N9        1.0  0.58308  0.69820  0.38206  1.0000
  N   N10       1.0  0.91692  0.30180  0.88206  1.0000
  N   N11       1.0  0.41692  0.19820  0.11794  1.0000
  N   N12       1.0  0.08308  0.80180  0.61794  1.0000
  N   N13       1.0  0.41692  0.30180  0.61794  1.0000
  N   N14       1.0  0.08309  0.69820  0.11794  1.0000
  N   N15       1.0  0.58308  0.80180  0.88206  1.0000
  N   N16       1.0  0.91692  0.19819  0.38206  1.0000
  N   N17       1.0  0.67973  0.56392  0.22657  1.0000
  N   N18       1.0  0.82027  0.43608  0.72657  1.0000
  N   N19       1.0  0.32027  0.06392  0.27343  1.0000
  N   N20       1.0  0.17973  0.93608  0.77343  1.0000
  N   N21       1.0  0.32027  0.43608  0.77343  1.0000
  N   N22       1.0  0.17974  0.56392  0.27343  1.0000
  N   N23       1.0  0.67973  0.93607  0.72657  1.0000
  N   N24       1.0  0.82027  0.06392  0.22657  1.0000
  Cl  Cl1       1.0  0.20783  0.89190  0.38518  1.0000
  Cl  Cl2       1.0  0.29217  0.10810  0.88518  1.0000
  Cl  Cl3       1.0  0.79217  0.39191  0.11482  1.0000
  Cl  Cl4       1.0  0.70783  0.60810  0.61482  1.0000
  Cl  Cl5       1.0  0.79217  0.10810  0.61482  1.0000
  Cl  Cl6       1.0  0.70783  0.89190  0.11482  1.0000
  Cl  Cl7       1.0  0.20783  0.60810  0.88518  1.0000
  Cl  Cl8       1.0  0.29217  0.39190  0.38518  1.0000
  Cl  Cl9       1.0  0.63744  0.86794  0.51373  1.0000
  Cl  Cl10      1.0  0.86256  0.13206  0.01373  1.0000
  Cl  Cl11      1.0  0.36256  0.36794  0.98627  1.0000
  Cl  Cl12      1.0  0.13744  0.63206  0.48627  1.0000
  Cl  Cl13      1.0  0.36256  0.13206  0.48627  1.0000
  Cl  Cl14      1.0  0.13744  0.86794  0.98626  1.0000
  Cl  Cl15      1.0  0.63743  0.63206  0.01374  1.0000
  Cl  Cl16      1.0  0.86256  0.36794  0.51373  1.0000
  O   O1        1.0  0.82127  0.41992  0.33934  1.0000
  O   O2        1.0  0.67872  0.58008  0.83934  1.0000
  O   O3        1.0  0.17872  0.91992  0.16066  1.0000
  O   O4        1.0  0.32127  0.08008  0.66066  1.0000
  O   O5        1.0  0.17872  0.58008  0.66066  1.0000
  O   O6        1.0  0.32128  0.41992  0.16066  1.0000
  O   O7        1.0  0.82127  0.08008  0.83934  1.0000
  O   O8        1.0  0.67872  0.91991  0.33934  1.0000
