data_image0
_chemical_formula_structural       Ni6H6C30O30
_chemical_formula_sum              "Ni6 H6 C30 O30"
_cell_length_a       6.72852
_cell_length_b       15.0792
_cell_length_c       15.0771
_cell_angle_alpha    117.828
_cell_angle_beta     98.5536
_cell_angle_gamma    98.5491

_space_group_name_H-M_alt    "P 1"
_space_group_IT_number       1

loop_
  _space_group_symop_operation_xyz
  'x, y, z'

loop_
  _atom_site_type_symbol
  _atom_site_label
  _atom_site_symmetry_multiplicity
  _atom_site_fract_x
  _atom_site_fract_y
  _atom_site_fract_z
  _atom_site_occupancy
  Ni  Ni1       1.0  0.96842  0.26895  0.59003  1.0000
  Ni  Ni2       1.0  0.69953  0.32109  0.73101  1.0000
  Ni  Ni3       1.0  0.37836  0.40990  0.67889  1.0000
  Ni  Ni4       1.0  0.03158  0.73105  0.40997  1.0000
  Ni  Ni5       1.0  0.30046  0.67891  0.26899  1.0000
  Ni  Ni6       1.0  0.62164  0.59009  0.32111  1.0000
  H   H1        1.0  0.12518  0.97883  0.44028  1.0000
  H   H2        1.0  0.14646  0.46163  0.02129  1.0000
  H   H3        1.0  0.68478  0.55968  0.53839  1.0000
  H   H4        1.0  0.87482  0.02117  0.55972  1.0000
  H   H5        1.0  0.85354  0.53837  0.97871  1.0000
  H   H6        1.0  0.31522  0.44032  0.46161  1.0000
  C   C1        1.0  0.31479  0.17489  0.56522  1.0000
  C   C2        1.0  0.13983  0.39037  0.82513  1.0000
  C   C3        1.0  0.74936  0.43470  0.60952  1.0000
  C   C4        1.0  0.68521  0.82511  0.43478  1.0000
  C   C5        1.0  0.86017  0.60963  0.17487  1.0000
  C   C6        1.0  0.25064  0.56530  0.39048  1.0000
  C   C7        1.0  0.41694  0.08802  0.53521  1.0000
  C   C8        1.0  0.32882  0.44732  0.91201  1.0000
  C   C9        1.0  0.88145  0.46468  0.55264  1.0000
  C   C10       1.0  0.58306  0.91198  0.46479  1.0000
  C   C11       1.0  0.67118  0.55268  0.08799  1.0000
  C   C12       1.0  0.11855  0.53532  0.44736  1.0000
  C   C13       1.0  0.63485  0.10120  0.57064  1.0000
  C   C14       1.0  0.53356  0.46942  0.89874  1.0000
  C   C15       1.0  0.06408  0.42932  0.53054  1.0000
  C   C16       1.0  0.36515  0.89880  0.42936  1.0000
  C   C17       1.0  0.46644  0.53058  0.10126  1.0000
  C   C18       1.0  0.93592  0.57068  0.46946  1.0000
  C   C19       1.0  0.29047  0.98830  0.46673  1.0000
  C   C20       1.0  0.30222  0.47859  0.01177  1.0000
  C   C21       1.0  0.82360  0.53320  0.52144  1.0000
  C   C22       1.0  0.70954  0.01170  0.53327  1.0000
  C   C23       1.0  0.69778  0.52141  0.98823  1.0000
  C   C24       1.0  0.17640  0.46680  0.47856  1.0000
  C   C25       1.0  0.25384  0.90168  0.64287  1.0000
  C   C26       1.0  0.35231  0.74106  0.09840  1.0000
  C   C27       1.0  0.61111  0.35735  0.25875  1.0000
  C   C28       1.0  0.74616  0.09833  0.35714  1.0000
  C   C29       1.0  0.64769  0.25894  0.90160  1.0000
  C   C30       1.0  0.38889  0.64265  0.74125  1.0000
  O   O1        1.0  0.12047  0.15741  0.53109  1.0000
  O   O2        1.0  0.96299  0.37368  0.84260  1.0000
  O   O3        1.0  0.58914  0.46881  0.62616  1.0000
  O   O4        1.0  0.87952  0.84259  0.46891  1.0000
  O   O5        1.0  0.03701  0.62632  0.15740  1.0000
  O   O6        1.0  0.41086  0.53119  0.37384  1.0000
  O   O7        1.0  0.43023  0.26776  0.62568  1.0000
  O   O8        1.0  0.16241  0.35790  0.73223  1.0000
  O   O9        1.0  0.80445  0.37429  0.64201  1.0000
  O   O10       1.0  0.56976  0.73224  0.37432  1.0000
  O   O11       1.0  0.83759  0.64210  0.26777  1.0000
  O   O12       1.0  0.19555  0.62571  0.35799  1.0000
  O   O13       1.0  0.77381  0.19167  0.63719  1.0000
  O   O14       1.0  0.58205  0.44551  0.80826  1.0000
  O   O15       1.0  0.13652  0.36280  0.55451  1.0000
  O   O16       1.0  0.22619  0.80833  0.36281  1.0000
  O   O17       1.0  0.41795  0.55449  0.19174  1.0000
  O   O18       1.0  0.86348  0.63720  0.44549  1.0000
  O   O19       1.0  0.25296  0.81720  0.57954  1.0000
  O   O20       1.0  0.43584  0.76209  0.18286  1.0000
  O   O21       1.0  0.67351  0.42077  0.23771  1.0000
  O   O22       1.0  0.74704  0.18280  0.42046  1.0000
  O   O23       1.0  0.56416  0.23791  0.81714  1.0000
  O   O24       1.0  0.32649  0.57923  0.76229  1.0000
  O   O25       1.0  0.25722  0.98520  0.70729  1.0000
  O   O26       1.0  0.27225  0.72208  0.01492  1.0000
  O   O27       1.0  0.55021  0.29284  0.27775  1.0000
  O   O28       1.0  0.74278  0.01480  0.29272  1.0000
  O   O29       1.0  0.72775  0.27792  0.98508  1.0000
  O   O30       1.0  0.44980  0.70716  0.72226  1.0000
