data_image0
_chemical_formula_structural       Cu4P4H48C40S4N16
_chemical_formula_sum              "Cu4 P4 H48 C40 S4 N16"
_cell_length_a       8.8462
_cell_length_b       11.475
_cell_length_c       13.263
_cell_angle_alpha    104.506
_cell_angle_beta     90.0003
_cell_angle_gamma    89.9999

_space_group_name_H-M_alt    "P 1"
_space_group_IT_number       1

loop_
  _space_group_symop_operation_xyz
  'x, y, z'

loop_
  _atom_site_type_symbol
  _atom_site_label
  _atom_site_symmetry_multiplicity
  _atom_site_fract_x
  _atom_site_fract_y
  _atom_site_fract_z
  _atom_site_occupancy
  Cu  Cu1       1.0  0.46970  0.60661  0.78462  1.0000
  Cu  Cu2       1.0  0.96969  0.39339  0.71538  1.0000
  Cu  Cu3       1.0  0.53030  0.39339  0.21538  1.0000
  Cu  Cu4       1.0  0.03031  0.60661  0.28462  1.0000
  P   P1        1.0  0.56181  0.74918  0.71720  1.0000
  P   P2        1.0  0.06181  0.25081  0.78280  1.0000
  P   P3        1.0  0.43819  0.25082  0.28280  1.0000
  P   P4        1.0  0.93819  0.74918  0.21720  1.0000
  H   H1        1.0  0.52003  0.94079  0.91628  1.0000
  H   H2        1.0  0.02003  0.05921  0.58372  1.0000
  H   H3        1.0  0.47997  0.05921  0.08372  1.0000
  H   H4        1.0  0.97997  0.94079  0.41628  1.0000
  H   H5        1.0  0.60756  0.81338  0.94219  1.0000
  H   H6        1.0  0.10757  0.18662  0.55781  1.0000
  H   H7        1.0  0.39244  0.18662  0.05781  1.0000
  H   H8        1.0  0.89243  0.81338  0.44219  1.0000
  H   H9        1.0  0.79998  0.81457  0.79882  1.0000
  H   H10       1.0  0.29999  0.18544  0.70118  1.0000
  H   H11       1.0  0.20002  0.18544  0.20118  1.0000
  H   H12       1.0  0.70002  0.81456  0.29882  1.0000
  H   H13       1.0  0.70230  0.93773  0.76984  1.0000
  H   H14       1.0  0.20230  0.06227  0.73016  1.0000
  H   H15       1.0  0.29770  0.06227  0.23016  1.0000
  H   H16       1.0  0.79770  0.93773  0.26984  1.0000
  H   H17       1.0  0.58457  0.70223  0.52885  1.0000
  H   H18       1.0  0.08458  0.29777  0.97115  1.0000
  H   H19       1.0  0.41543  0.29778  0.47115  1.0000
  H   H20       1.0  0.91542  0.70222  0.02885  1.0000
  H   H21       1.0  0.73082  0.80042  0.59148  1.0000
  H   H22       1.0  0.23083  0.19958  0.90852  1.0000
  H   H23       1.0  0.26918  0.19958  0.40852  1.0000
  H   H24       1.0  0.76917  0.80041  0.09148  1.0000
  H   H25       1.0  0.32554  0.75009  0.53454  1.0000
  H   H26       1.0  0.82554  0.24991  0.96546  1.0000
  H   H27       1.0  0.67446  0.24991  0.46546  1.0000
  H   H28       1.0  0.17446  0.75008  0.03454  1.0000
  H   H29       1.0  0.28309  0.67296  0.63227  1.0000
  H   H30       1.0  0.78309  0.32704  0.86773  1.0000
  H   H31       1.0  0.71691  0.32704  0.36773  1.0000
  H   H32       1.0  0.21691  0.67296  0.13227  1.0000
  H   H33       1.0  0.85233  0.62084  0.64492  1.0000
  H   H34       1.0  0.35232  0.37917  0.85508  1.0000
  H   H35       1.0  0.14767  0.37916  0.35508  1.0000
  H   H36       1.0  0.64767  0.62083  0.14492  1.0000
  H   H37       1.0  0.70665  0.52792  0.57855  1.0000
  H   H38       1.0  0.20664  0.47209  0.92145  1.0000
  H   H39       1.0  0.29335  0.47209  0.42145  1.0000
  H   H40       1.0  0.79335  0.52791  0.07855  1.0000
  H   H41       1.0  0.34838  0.87958  0.76747  1.0000
  H   H42       1.0  0.84838  0.12042  0.73253  1.0000
  H   H43       1.0  0.65162  0.12042  0.23253  1.0000
  H   H44       1.0  0.15162  0.87958  0.26747  1.0000
  H   H45       1.0  0.44355  0.91762  0.66122  1.0000
  H   H46       1.0  0.94355  0.08238  0.83878  1.0000
  H   H47       1.0  0.55645  0.08238  0.33878  1.0000
  H   H48       1.0  0.05645  0.91762  0.16122  1.0000
  C   C1        1.0  0.73026  0.97211  0.98690  1.0000
  C   C2        1.0  0.23026  0.02788  0.51310  1.0000
  C   C3        1.0  0.26974  0.02789  0.01311  1.0000
  C   C4        1.0  0.76974  0.97212  0.48689  1.0000
  C   C5        1.0  0.62894  0.89394  0.91364  1.0000
  C   C6        1.0  0.12894  0.10605  0.58636  1.0000
  C   C7        1.0  0.37106  0.10605  0.08637  1.0000
  C   C8        1.0  0.87106  0.89395  0.41363  1.0000
  C   C9        1.0  0.68911  0.85874  0.80171  1.0000
  C   C10       1.0  0.18912  0.14127  0.69829  1.0000
  C   C11       1.0  0.31088  0.14126  0.19829  1.0000
  C   C12       1.0  0.81088  0.85874  0.30171  1.0000
  C   C13       1.0  0.66619  0.71931  0.59331  1.0000
  C   C14       1.0  0.16619  0.28069  0.90669  1.0000
  C   C15       1.0  0.33381  0.28069  0.40669  1.0000
  C   C16       1.0  0.83381  0.71931  0.09331  1.0000
  C   C17       1.0  0.29007  0.76266  0.61608  1.0000
  C   C18       1.0  0.79007  0.23734  0.88392  1.0000
  C   C19       1.0  0.70994  0.23734  0.38392  1.0000
  C   C20       1.0  0.20993  0.76266  0.11608  1.0000
  C   C21       1.0  0.85716  0.59131  0.48420  1.0000
  C   C22       1.0  0.35716  0.40870  0.01580  1.0000
  C   C23       1.0  0.14284  0.40869  0.51580  1.0000
  C   C24       1.0  0.64284  0.59131  0.98420  1.0000
  C   C25       1.0  0.13803  0.81180  0.62571  1.0000
  C   C26       1.0  0.63803  0.18820  0.87429  1.0000
  C   C27       1.0  0.86197  0.18819  0.37429  1.0000
  C   C28       1.0  0.36197  0.81180  0.12571  1.0000
  C   C29       1.0  0.77159  0.60998  0.57976  1.0000
  C   C30       1.0  0.27159  0.39002  0.92024  1.0000
  C   C31       1.0  0.22841  0.39002  0.42024  1.0000
  C   C32       1.0  0.72841  0.60998  0.07976  1.0000
  C   C33       1.0  0.40314  0.84256  0.69176  1.0000
  C   C34       1.0  0.90314  0.15744  0.80823  1.0000
  C   C35       1.0  0.59687  0.15745  0.30824  1.0000
  C   C36       1.0  0.09686  0.84255  0.19176  1.0000
  C   C37       1.0  0.62603  0.37728  0.67557  1.0000
  C   C38       1.0  0.12604  0.62272  0.82443  1.0000
  C   C39       1.0  0.37397  0.62272  0.32443  1.0000
  C   C40       1.0  0.87396  0.37728  0.17557  1.0000
  S   S1        1.0  0.44592  0.40848  0.67271  1.0000
  S   S2        1.0  0.94593  0.59152  0.82729  1.0000
  S   S3        1.0  0.55407  0.59152  0.32729  1.0000
  S   S4        1.0  0.05407  0.40848  0.17272  1.0000
  N   N1        1.0  0.80996  0.03451  0.04718  1.0000
  N   N2        1.0  0.30996  0.96549  0.45282  1.0000
  N   N3        1.0  0.19004  0.96549  0.95282  1.0000
  N   N4        1.0  0.69004  0.03451  0.54718  1.0000
  N   N5        1.0  0.92465  0.58239  0.40716  1.0000
  N   N6        1.0  0.42465  0.41761  0.09284  1.0000
  N   N7        1.0  0.07535  0.41761  0.59284  1.0000
  N   N8        1.0  0.57535  0.58240  0.90716  1.0000
  N   N9        1.0  0.01568  0.85095  0.63459  1.0000
  N   N10       1.0  0.51569  0.14905  0.86541  1.0000
  N   N11       1.0  0.98432  0.14905  0.36541  1.0000
  N   N12       1.0  0.48431  0.85095  0.13459  1.0000
  N   N13       1.0  0.75761  0.35919  0.67709  1.0000
  N   N14       1.0  0.25761  0.64081  0.82291  1.0000
  N   N15       1.0  0.24239  0.64081  0.32291  1.0000
  N   N16       1.0  0.74239  0.35919  0.17709  1.0000
