data_image0
_chemical_formula_structural       Zn8H48C36N24O20
_chemical_formula_sum              "Zn8 H48 C36 N24 O20"
_cell_length_a       9.2295
_cell_length_b       9.76338
_cell_length_c       18.0583
_cell_angle_alpha    95.0409
_cell_angle_beta     97.4446
_cell_angle_gamma    109.61

_space_group_name_H-M_alt    "P 1"
_space_group_IT_number       1

loop_
  _space_group_symop_operation_xyz
  'x, y, z'

loop_
  _atom_site_type_symbol
  _atom_site_label
  _atom_site_symmetry_multiplicity
  _atom_site_fract_x
  _atom_site_fract_y
  _atom_site_fract_z
  _atom_site_occupancy
  Zn  Zn1       1.0  0.22110  0.30719  0.08580  1.0000
  Zn  Zn2       1.0  0.77891  0.69281  0.91420  1.0000
  Zn  Zn3       1.0  0.00551  0.76543  0.25008  1.0000
  Zn  Zn4       1.0  0.99448  0.23457  0.74992  1.0000
  Zn  Zn5       1.0  0.42488  0.91730  0.28975  1.0000
  Zn  Zn6       1.0  0.57512  0.08270  0.71025  1.0000
  Zn  Zn7       1.0  0.76484  0.21973  0.40800  1.0000
  Zn  Zn8       1.0  0.23516  0.78027  0.59200  1.0000
  H   H1        1.0  0.89790  0.72562  0.09182  1.0000
  H   H2        1.0  0.10210  0.27439  0.90818  1.0000
  H   H3        1.0  0.76338  0.62026  0.13088  1.0000
  H   H4        1.0  0.23662  0.37974  0.86912  1.0000
  H   H5        1.0  0.75757  0.50058  0.22928  1.0000
  H   H6        1.0  0.24243  0.49942  0.77072  1.0000
  H   H7        1.0  0.87022  0.48611  0.30176  1.0000
  H   H8        1.0  0.12978  0.51390  0.69824  1.0000
  H   H9        1.0  0.46728  0.59497  0.18933  1.0000
  H   H10       1.0  0.53272  0.40503  0.81067  1.0000
  H   H11       1.0  0.98058  0.45770  0.14544  1.0000
  H   H12       1.0  0.01942  0.54230  0.85456  1.0000
  H   H13       1.0  0.00162  0.03722  0.38136  1.0000
  H   H14       1.0  0.99837  0.96277  0.61864  1.0000
  H   H15       1.0  0.64713  0.77254  0.20700  1.0000
  H   H16       1.0  0.35287  0.22746  0.79300  1.0000
  H   H17       1.0  0.98001  0.73890  0.43742  1.0000
  H   H18       1.0  0.01998  0.26110  0.56258  1.0000
  H   H19       1.0  0.46894  0.87201  0.47098  1.0000
  H   H20       1.0  0.53106  0.12799  0.52902  1.0000
  H   H21       1.0  0.47268  0.18465  0.17841  1.0000
  H   H22       1.0  0.52731  0.81535  0.82159  1.0000
  H   H23       1.0  0.98315  0.03812  0.15230  1.0000
  H   H24       1.0  0.01685  0.96188  0.84770  1.0000
  H   H25       1.0  0.78509  0.41916  0.05484  1.0000
  H   H26       1.0  0.21491  0.58084  0.94516  1.0000
  H   H27       1.0  0.66049  0.41872  0.97148  1.0000
  H   H28       1.0  0.33952  0.58128  0.02852  1.0000
  H   H29       1.0  0.52625  0.15398  0.95799  1.0000
  H   H30       1.0  0.47376  0.84602  0.04201  1.0000
  H   H31       1.0  0.62025  0.14309  0.04808  1.0000
  H   H32       1.0  0.37976  0.85690  0.95192  1.0000
  H   H33       1.0  0.73682  0.05936  0.94304  1.0000
  H   H34       1.0  0.26319  0.94064  0.05696  1.0000
  H   H35       1.0  0.79478  0.23644  0.91633  1.0000
  H   H36       1.0  0.20522  0.76356  0.08367  1.0000
  H   H37       1.0  0.19473  0.56750  0.36272  1.0000
  H   H38       1.0  0.80527  0.43251  0.63728  1.0000
  H   H39       1.0  0.16278  0.42014  0.29287  1.0000
  H   H40       1.0  0.83722  0.57986  0.70713  1.0000
  H   H41       1.0  0.43936  0.52418  0.36835  1.0000
  H   H42       1.0  0.56065  0.47581  0.63165  1.0000
  H   H43       1.0  0.36363  0.46545  0.44947  1.0000
  H   H44       1.0  0.63637  0.53455  0.55053  1.0000
  H   H45       1.0  0.26943  0.20556  0.39050  1.0000
  H   H46       1.0  0.73057  0.79444  0.60950  1.0000
  H   H47       1.0  0.31364  0.25609  0.30305  1.0000
  H   H48       1.0  0.68635  0.74391  0.69695  1.0000
  C   C1        1.0  0.35041  0.59676  0.18889  1.0000
  C   C2        1.0  0.64959  0.40324  0.81111  1.0000
  C   C3        1.0  0.10172  0.52482  0.16548  1.0000
  C   C4        1.0  0.89828  0.47517  0.83452  1.0000
  C   C5        1.0  0.88982  0.98393  0.34476  1.0000
  C   C6        1.0  0.11017  0.01607  0.65525  1.0000
  C   C7        1.0  0.70888  0.84973  0.25705  1.0000
  C   C8        1.0  0.29111  0.15027  0.74295  1.0000
  C   C9        1.0  0.09974  0.77850  0.42760  1.0000
  C   C10       1.0  0.90025  0.22150  0.57240  1.0000
  C   C11       1.0  0.34823  0.84602  0.44529  1.0000
  C   C12       1.0  0.65177  0.15399  0.55471  1.0000
  C   C13       1.0  0.35241  0.12178  0.18154  1.0000
  C   C14       1.0  0.64758  0.87821  0.81846  1.0000
  C   C15       1.0  0.10341  0.04695  0.16907  1.0000
  C   C16       1.0  0.89659  0.95305  0.83093  1.0000
  C   C17       1.0  0.55002  0.39085  0.06813  1.0000
  C   C18       1.0  0.44999  0.60914  0.93187  1.0000
  C   C19       1.0  0.66725  0.36512  0.02221  1.0000
  C   C20       1.0  0.33275  0.63488  0.97779  1.0000
  C   C21       1.0  0.63570  0.20146  0.99864  1.0000
  C   C22       1.0  0.36432  0.79854  0.00136  1.0000
  C   C23       1.0  0.76946  0.17663  0.96457  1.0000
  C   C24       1.0  0.23054  0.82337  0.03543  1.0000
  C   C25       1.0  0.91776  0.21584  0.02178  1.0000
  C   C26       1.0  0.08226  0.78416  0.97822  1.0000
  C   C27       1.0  0.04945  0.36235  0.38580  1.0000
  C   C28       1.0  0.95055  0.63765  0.61419  1.0000
  C   C29       1.0  0.18937  0.45308  0.35447  1.0000
  C   C30       1.0  0.81064  0.54693  0.64553  1.0000
  C   C31       1.0  0.34408  0.44056  0.38770  1.0000
  C   C32       1.0  0.65592  0.55944  0.61230  1.0000
  C   C33       1.0  0.35155  0.28933  0.36432  1.0000
  C   C34       1.0  0.64844  0.71067  0.63569  1.0000
  C   C35       1.0  0.51130  0.27957  0.38475  1.0000
  C   C36       1.0  0.48870  0.72043  0.61525  1.0000
  N   N1        1.0  0.31051  0.70097  0.22408  1.0000
  N   N2        1.0  0.68949  0.29903  0.77592  1.0000
  N   N3        1.0  0.15005  0.65387  0.20896  1.0000
  N   N4        1.0  0.84994  0.34613  0.79104  1.0000
  N   N5        1.0  0.22361  0.48489  0.15104  1.0000
  N   N6        1.0  0.77639  0.51511  0.84896  1.0000
  N   N7        1.0  0.76622  0.02217  0.35202  1.0000
  N   N8        1.0  0.23378  0.97783  0.64798  1.0000
  N   N9        1.0  0.64837  0.93453  0.29544  1.0000
  N   N10       1.0  0.35163  0.06547  0.70456  1.0000
  N   N11       1.0  0.85903  0.87624  0.28622  1.0000
  N   N12       1.0  0.14096  0.12376  0.71378  1.0000
  N   N13       1.0  0.30269  0.85337  0.37325  1.0000
  N   N14       1.0  0.69730  0.14663  0.62674  1.0000
  N   N15       1.0  0.14262  0.80915  0.36151  1.0000
  N   N16       1.0  0.85738  0.19085  0.63849  1.0000
  N   N17       1.0  0.22508  0.80063  0.48156  1.0000
  N   N18       1.0  0.77492  0.19937  0.51844  1.0000
  N   N19       1.0  0.30893  0.00774  0.21927  1.0000
  N   N20       1.0  0.69106  0.99226  0.78073  1.0000
  N   N21       1.0  0.14952  0.95981  0.21136  1.0000
  N   N22       1.0  0.85047  0.04019  0.78864  1.0000
  N   N23       1.0  0.22675  0.14977  0.14889  1.0000
  N   N24       1.0  0.77325  0.85023  0.85111  1.0000
  O   O1        1.0  0.59613  0.46629  0.13331  1.0000
  O   O2        1.0  0.40388  0.53370  0.86670  1.0000
  O   O3        1.0  0.40645  0.33065  0.03657  1.0000
  O   O4        1.0  0.59356  0.66934  0.96344  1.0000
  O   O5        1.0  0.91277  0.20992  0.09024  1.0000
  O   O6        1.0  0.08725  0.79010  0.90977  1.0000
  O   O7        1.0  0.05026  0.25456  0.99613  1.0000
  O   O8        1.0  0.94976  0.74545  0.00387  1.0000
  O   O9        1.0  0.91398  0.36791  0.35714  1.0000
  O   O10       1.0  0.08602  0.63209  0.64286  1.0000
  O   O11       1.0  0.06025  0.28330  0.43565  1.0000
  O   O12       1.0  0.93975  0.71671  0.56435  1.0000
  O   O13       1.0  0.53104  0.15652  0.36185  1.0000
  O   O14       1.0  0.46896  0.84347  0.63815  1.0000
  O   O15       1.0  0.62319  0.38409  0.42287  1.0000
  O   O16       1.0  0.37681  0.61590  0.57713  1.0000
  O   O17       1.0  0.85564  0.71245  0.13977  1.0000
  O   O18       1.0  0.14436  0.28755  0.86023  1.0000
  O   O19       1.0  0.84070  0.55672  0.27132  1.0000
  O   O20       1.0  0.15930  0.44328  0.72868  1.0000
