data_image0
_chemical_formula_structural       Cd4H28C18N12O12
_chemical_formula_sum              "Cd4 H28 C18 N12 O12"
_cell_length_a       8.05804
_cell_length_b       10.732
_cell_length_c       12.6418
_cell_angle_alpha    115.611
_cell_angle_beta     109.199
_cell_angle_gamma    88.6539

_space_group_name_H-M_alt    "P 1"
_space_group_IT_number       1

loop_
  _space_group_symop_operation_xyz
  'x, y, z'

loop_
  _atom_site_type_symbol
  _atom_site_label
  _atom_site_symmetry_multiplicity
  _atom_site_fract_x
  _atom_site_fract_y
  _atom_site_fract_z
  _atom_site_occupancy
  Cd  Cd1       1.0  0.72722  0.25406  0.76512  1.0000
  Cd  Cd2       1.0  0.46188  0.48951  0.23485  1.0000
  Cd  Cd3       1.0  0.05423  0.98320  0.66867  1.0000
  Cd  Cd4       1.0  0.88492  0.31447  0.33123  1.0000
  H   H1        1.0  0.37594  0.99068  0.62478  1.0000
  H   H2        1.0  0.25022  0.36629  0.37522  1.0000
  H   H3        1.0  0.25446  0.86045  0.49638  1.0000
  H   H4        1.0  0.25747  0.36391  0.50350  1.0000
  H   H5        1.0  0.02391  0.90047  0.83982  1.0000
  H   H6        1.0  0.68307  0.06116  0.16063  1.0000
  H   H7        1.0  0.22474  0.93791  0.92298  1.0000
  H   H8        1.0  0.80074  0.01456  0.07747  1.0000
  H   H9        1.0  0.64823  0.31956  0.51082  1.0000
  H   H10       1.0  0.63779  0.80903  0.48885  1.0000
  H   H11       1.0  0.02840  0.05645  0.42432  1.0000
  H   H12       1.0  0.10373  0.63178  0.57596  1.0000
  H   H13       1.0  0.07793  0.49340  0.00433  1.0000
  H   H14       1.0  0.57399  0.48925  0.99569  1.0000
  H   H15       1.0  0.38769  0.16855  0.96845  1.0000
  H   H16       1.0  0.91838  0.19951  0.03152  1.0000
  H   H17       1.0  0.46511  0.79008  0.62600  1.0000
  H   H18       1.0  0.33746  0.16469  0.37373  1.0000
  H   H19       1.0  0.44508  0.87219  0.77303  1.0000
  H   H20       1.0  0.17077  0.09923  0.22648  1.0000
  H   H21       1.0  0.72224  0.67781  0.70998  1.0000
  H   H22       1.0  0.51191  0.96911  0.29006  1.0000
  H   H23       1.0  0.69041  0.74963  0.85519  1.0000
  H   H24       1.0  0.33477  0.89509  0.14485  1.0000
  H   H25       1.0  0.39388  0.57524  0.60156  1.0000
  H   H26       1.0  0.29278  0.97412  0.39864  1.0000
  H   H27       1.0  0.37504  0.63361  0.74963  1.0000
  H   H28       1.0  0.12543  0.88452  0.25071  1.0000
  C   C1        1.0  0.73843  0.24253  0.50772  1.0000
  C   C2        1.0  0.73090  0.73496  0.49209  1.0000
  C   C3        1.0  0.93094  0.10891  0.46358  1.0000
  C   C4        1.0  0.96714  0.64518  0.53654  1.0000
  C   C5        1.0  0.12581  0.39394  0.96679  1.0000
  C   C6        1.0  0.65917  0.42722  0.03324  1.0000
  C   C7        1.0  0.28260  0.22902  0.94853  1.0000
  C   C8        1.0  0.83355  0.28018  0.05146  1.0000
  C   C9        1.0  0.66491  0.96011  0.75886  1.0000
  C   C10       1.0  0.40474  0.20203  0.24114  1.0000
  C   C11       1.0  0.54329  0.83326  0.72684  1.0000
  C   C12       1.0  0.31522  0.10698  0.27294  1.0000
  C   C13       1.0  0.62229  0.71551  0.75428  1.0000
  C   C14       1.0  0.36755  0.96203  0.24573  1.0000
  C   C15       1.0  0.46940  0.59820  0.69941  1.0000
  C   C16       1.0  0.27006  0.89933  0.30069  1.0000
  C   C17       1.0  0.51747  0.46119  0.70086  1.0000
  C   C18       1.0  0.31695  0.76080  0.29893  1.0000
  N   N1        1.0  0.88549  0.08614  0.54659  1.0000
  N   N2        1.0  0.83848  0.53949  0.45349  1.0000
  N   N3        1.0  0.76081  0.17182  0.57444  1.0000
  N   N4        1.0  0.68621  0.59752  0.42545  1.0000
  N   N5        1.0  0.84171  0.20612  0.43640  1.0000
  N   N6        1.0  0.90547  0.76971  0.56356  1.0000
  N   N7        1.0  0.14377  0.18401  0.84163  1.0000
  N   N8        1.0  0.80193  0.34248  0.15843  1.0000
  N   N9        1.0  0.04180  0.29014  0.85311  1.0000
  N   N10       1.0  0.68889  0.43739  0.14697  1.0000
  N   N11       1.0  0.27605  0.36028  0.02985  1.0000
  N   N12       1.0  0.74588  0.33008  0.97010  1.0000
  O   O1        1.0  0.82837  0.98160  0.82140  1.0000
  O   O2        1.0  0.50629  0.16124  0.17907  1.0000
  O   O3        1.0  0.58501  0.04403  0.71616  1.0000
  O   O4        1.0  0.36696  0.32849  0.28342  1.0000
  O   O5        1.0  0.66063  0.46612  0.78645  1.0000
  O   O6        1.0  0.37421  0.68019  0.21310  1.0000
  O   O7        1.0  0.41489  0.34873  0.61802  1.0000
  O   O8        1.0  0.29745  0.73092  0.38163  1.0000
  O   O9        1.0  0.24909  0.95057  0.56871  1.0000
  O   O10       1.0  0.17972  0.38201  0.43140  1.0000
  O   O11       1.0  0.14424  0.88095  0.83755  1.0000
  O   O12       1.0  0.80566  0.04375  0.16298  1.0000
