data_image0
_chemical_formula_structural       Mn2H32C48N8O20
_chemical_formula_sum              "Mn2 H32 C48 N8 O20"
_cell_length_a       6.75718
_cell_length_b       12.5856
_cell_length_c       14.7182
_cell_angle_alpha    115.304
_cell_angle_beta     99.0551
_cell_angle_gamma    90.0076

_space_group_name_H-M_alt    "P 1"
_space_group_IT_number       1

loop_
  _space_group_symop_operation_xyz
  'x, y, z'

loop_
  _atom_site_type_symbol
  _atom_site_label
  _atom_site_symmetry_multiplicity
  _atom_site_fract_x
  _atom_site_fract_y
  _atom_site_fract_z
  _atom_site_occupancy
  Mn  Mn1       1.0  0.74980  0.37016  0.00001  1.0000
  Mn  Mn2       1.0  0.25022  0.62985  0.99999  1.0000
  H   H1        1.0  0.55402  0.67534  0.86752  1.0000
  H   H2        1.0  0.94614  0.80803  0.13198  1.0000
  H   H3        1.0  0.44597  0.32463  0.13249  1.0000
  H   H4        1.0  0.05390  0.19194  0.86802  1.0000
  H   H5        1.0  0.64937  0.29826  0.70793  1.0000
  H   H6        1.0  0.85051  0.59052  0.29148  1.0000
  H   H7        1.0  0.35068  0.70172  0.29208  1.0000
  H   H8        1.0  0.14945  0.40948  0.70852  1.0000
  H   H9        1.0  0.71554  0.44342  0.49624  1.0000
  H   H10       1.0  0.78462  0.94732  0.50327  1.0000
  H   H11       1.0  0.28444  0.55658  0.50378  1.0000
  H   H12       1.0  0.21541  0.05268  0.49673  1.0000
  H   H13       1.0  0.65215  0.64110  0.62348  1.0000
  H   H14       1.0  0.84818  0.01778  0.37610  1.0000
  H   H15       1.0  0.34782  0.35890  0.37654  1.0000
  H   H16       1.0  0.15185  0.98221  0.62388  1.0000
  H   H17       1.0  0.76378  0.00192  0.08116  1.0000
  H   H18       1.0  0.73559  0.92077  0.91885  1.0000
  H   H19       1.0  0.23620  0.99810  0.91885  1.0000
  H   H20       1.0  0.26438  0.07924  0.08114  1.0000
  H   H21       1.0  0.88464  0.10879  0.26709  1.0000
  H   H22       1.0  0.61553  0.84177  0.73286  1.0000
  H   H23       1.0  0.11536  0.89123  0.73292  1.0000
  H   H24       1.0  0.38444  0.15824  0.26713  1.0000
  H   H25       1.0  0.97301  0.32713  0.34478  1.0000
  H   H26       1.0  0.52761  0.98242  0.65511  1.0000
  H   H27       1.0  0.02701  0.67289  0.65522  1.0000
  H   H28       1.0  0.47239  0.01760  0.34488  1.0000
  H   H29       1.0  0.94518  0.42694  0.22760  1.0000
  H   H30       1.0  0.55492  0.19938  0.77234  1.0000
  H   H31       1.0  0.05480  0.57307  0.77239  1.0000
  H   H32       1.0  0.44512  0.80064  0.22765  1.0000
  C   C1        1.0  0.57967  0.49882  0.86492  1.0000
  C   C2        1.0  0.92021  0.63411  0.13458  1.0000
  C   C3        1.0  0.42034  0.50117  0.13507  1.0000
  C   C4        1.0  0.07977  0.36588  0.86543  1.0000
  C   C5        1.0  0.61518  0.48397  0.76303  1.0000
  C   C6        1.0  0.88485  0.72117  0.23647  1.0000
  C   C7        1.0  0.38483  0.51601  0.23697  1.0000
  C   C8        1.0  0.11512  0.27882  0.76353  1.0000
  C   C9        1.0  0.64821  0.37361  0.69024  1.0000
  C   C10       1.0  0.85180  0.68357  0.30924  1.0000
  C   C11       1.0  0.35181  0.62637  0.30976  1.0000
  C   C12       1.0  0.14818  0.31642  0.69075  1.0000
  C   C13       1.0  0.68081  0.35927  0.59474  1.0000
  C   C14       1.0  0.81928  0.76467  0.40477  1.0000
  C   C15       1.0  0.31919  0.64072  0.40526  1.0000
  C   C16       1.0  0.18072  0.23533  0.59524  1.0000
  C   C17       1.0  0.68567  0.45560  0.57040  1.0000
  C   C18       1.0  0.81445  0.88532  0.42911  1.0000
  C   C19       1.0  0.31430  0.54439  0.42960  1.0000
  C   C20       1.0  0.18556  0.11467  0.57088  1.0000
  C   C21       1.0  0.65015  0.56563  0.64140  1.0000
  C   C22       1.0  0.85013  0.92441  0.35815  1.0000
  C   C23       1.0  0.34983  0.43437  0.35861  1.0000
  C   C24       1.0  0.14988  0.07559  0.64184  1.0000
  C   C25       1.0  0.61378  0.58160  0.73805  1.0000
  C   C26       1.0  0.88648  0.84378  0.26147  1.0000
  C   C27       1.0  0.38621  0.41839  0.26196  1.0000
  C   C28       1.0  0.11353  0.15621  0.73852  1.0000
  C   C29       1.0  0.78770  0.15867  0.05567  1.0000
  C   C30       1.0  0.71163  0.10302  0.94436  1.0000
  C   C31       1.0  0.21230  0.84134  0.94433  1.0000
  C   C32       1.0  0.28836  0.89699  0.05563  1.0000
  C   C33       1.0  0.80502  0.09617  0.11516  1.0000
  C   C34       1.0  0.69445  0.98103  0.88484  1.0000
  C   C35       1.0  0.19497  0.90384  0.88484  1.0000
  C   C36       1.0  0.30552  0.01898  0.11516  1.0000
  C   C37       1.0  0.87195  0.15624  0.21997  1.0000
  C   C38       1.0  0.62806  0.93634  0.77999  1.0000
  C   C39       1.0  0.12805  0.84377  0.78003  1.0000
  C   C40       1.0  0.37192  0.06368  0.22001  1.0000
  C   C41       1.0  0.92146  0.27719  0.26310  1.0000
  C   C42       1.0  0.57880  0.01414  0.73682  1.0000
  C   C43       1.0  0.07855  0.72283  0.73690  1.0000
  C   C44       1.0  0.42119  0.98588  0.26317  1.0000
  C   C45       1.0  0.90450  0.33303  0.19880  1.0000
  C   C46       1.0  0.59544  0.13427  0.80117  1.0000
  C   C47       1.0  0.09550  0.66699  0.80120  1.0000
  C   C48       1.0  0.40457  0.86575  0.19883  1.0000
  N   N1        1.0  0.83870  0.27612  0.09794  1.0000
  N   N2        1.0  0.66076  0.17817  0.90205  1.0000
  N   N3        1.0  0.16130  0.72389  0.90205  1.0000
  N   N4        1.0  0.33924  0.82185  0.09794  1.0000
  N   N5        1.0  0.70610  0.24214  0.51986  1.0000
  N   N6        1.0  0.79393  0.72234  0.47962  1.0000
  N   N7        1.0  0.29390  0.75786  0.48014  1.0000
  N   N8        1.0  0.20608  0.27764  0.52038  1.0000
  O   O1        1.0  0.60057  0.41198  0.88671  1.0000
  O   O2        1.0  0.89922  0.52549  0.11281  1.0000
  O   O3        1.0  0.39949  0.58798  0.11328  1.0000
  O   O4        1.0  0.10071  0.47450  0.88720  1.0000
  O   O5        1.0  0.52491  0.59981  0.92430  1.0000
  O   O6        1.0  0.97505  0.67570  0.07518  1.0000
  O   O7        1.0  0.47507  0.40015  0.07569  1.0000
  O   O8        1.0  0.02499  0.32428  0.92483  1.0000
  O   O9        1.0  0.68312  0.15740  0.54116  1.0000
  O   O10       1.0  0.81674  0.61630  0.45827  1.0000
  O   O11       1.0  0.31688  0.84259  0.45883  1.0000
  O   O12       1.0  0.18327  0.38372  0.54175  1.0000
  O   O13       1.0  0.74879  0.23023  0.43659  1.0000
  O   O14       1.0  0.75136  0.79370  0.56293  1.0000
  O   O15       1.0  0.25122  0.76977  0.56342  1.0000
  O   O16       1.0  0.24864  0.20632  0.43708  1.0000
  O   O17       1.0  0.58306  0.68901  0.80637  1.0000
  O   O18       1.0  0.91722  0.88287  0.19314  1.0000
  O   O19       1.0  0.41693  0.31097  0.19364  1.0000
  O   O20       1.0  0.08281  0.11711  0.80685  1.0000
