data_image0
_chemical_formula_structural       Ag4H16C16N4O12
_chemical_formula_sum              "Ag4 H16 C16 N4 O12"
_cell_length_a       4.93053
_cell_length_b       8.85586
_cell_length_c       12.0018
_cell_angle_alpha    89.9993
_cell_angle_beta     90
_cell_angle_gamma    98.1911

_space_group_name_H-M_alt    "P 1"
_space_group_IT_number       1

loop_
  _space_group_symop_operation_xyz
  'x, y, z'

loop_
  _atom_site_type_symbol
  _atom_site_label
  _atom_site_symmetry_multiplicity
  _atom_site_fract_x
  _atom_site_fract_y
  _atom_site_fract_z
  _atom_site_occupancy
  Ag  Ag1       1.0  0.72562  0.95524  0.04992  1.0000
  Ag  Ag2       1.0  0.77437  0.54475  0.54992  1.0000
  Ag  Ag3       1.0  0.27437  0.04475  0.95008  1.0000
  Ag  Ag4       1.0  0.22563  0.45524  0.45008  1.0000
  H   H1        1.0  0.36424  0.82017  0.37474  1.0000
  H   H2        1.0  0.13576  0.67984  0.87473  1.0000
  H   H3        1.0  0.63577  0.17984  0.62526  1.0000
  H   H4        1.0  0.86423  0.32016  0.12526  1.0000
  H   H5        1.0  0.08450  0.84580  0.46180  1.0000
  H   H6        1.0  0.41550  0.65420  0.96179  1.0000
  H   H7        1.0  0.91551  0.15420  0.53821  1.0000
  H   H8        1.0  0.58450  0.34580  0.03820  1.0000
  H   H9        1.0  0.01450  0.98745  0.68605  1.0000
  H   H10       1.0  0.48549  0.51255  0.18604  1.0000
  H   H11       1.0  0.98550  0.01255  0.31396  1.0000
  H   H12       1.0  0.51450  0.48745  0.81396  1.0000
  H   H13       1.0  0.86452  0.79428  0.67287  1.0000
  H   H14       1.0  0.63548  0.70572  0.17287  1.0000
  H   H15       1.0  0.13549  0.20573  0.32713  1.0000
  H   H16       1.0  0.36451  0.29428  0.82713  1.0000
  C   C1        1.0  0.30174  0.88752  0.44528  1.0000
  C   C2        1.0  0.19825  0.61248  0.94528  1.0000
  C   C3        1.0  0.69827  0.11248  0.55472  1.0000
  C   C4        1.0  0.80174  0.38752  0.05472  1.0000
  C   C5        1.0  0.46387  0.84727  0.54455  1.0000
  C   C6        1.0  0.03612  0.65272  0.04455  1.0000
  C   C7        1.0  0.53614  0.15273  0.45545  1.0000
  C   C8        1.0  0.96387  0.34727  0.95545  1.0000
  C   C9        1.0  0.81801  0.91141  0.68154  1.0000
  C   C10       1.0  0.68198  0.58859  0.18154  1.0000
  C   C11       1.0  0.18199  0.08860  0.31846  1.0000
  C   C12       1.0  0.31801  0.41141  0.81846  1.0000
  C   C13       1.0  0.66860  0.92492  0.79218  1.0000
  C   C14       1.0  0.83139  0.57508  0.29217  1.0000
  C   C15       1.0  0.33139  0.07508  0.20782  1.0000
  C   C16       1.0  0.16860  0.42492  0.70782  1.0000
  N   N1        1.0  0.66582  0.95161  0.58482  1.0000
  N   N2        1.0  0.83417  0.54840  0.08481  1.0000
  N   N3        1.0  0.33419  0.04840  0.41518  1.0000
  N   N4        1.0  0.16582  0.45160  0.91518  1.0000
  O   O1        1.0  0.41319  0.71554  0.58418  1.0000
  O   O2        1.0  0.08681  0.78446  0.08419  1.0000
  O   O3        1.0  0.58681  0.28446  0.41582  1.0000
  O   O4        1.0  0.91320  0.21553  0.91581  1.0000
  O   O5        1.0  0.45625  0.99022  0.79050  1.0000
  O   O6        1.0  0.04376  0.50978  0.29050  1.0000
  O   O7        1.0  0.54376  0.00978  0.20950  1.0000
  O   O8        1.0  0.95624  0.49023  0.70950  1.0000
  O   O9        1.0  0.77992  0.87060  0.87598  1.0000
  O   O10       1.0  0.72008  0.62940  0.37597  1.0000
  O   O11       1.0  0.22008  0.12940  0.12402  1.0000
  O   O12       1.0  0.27992  0.37060  0.62402  1.0000
