data_image0
_chemical_formula_structural       Mn2H24C16N4O16
_chemical_formula_sum              "Mn2 H24 C16 N4 O16"
_cell_length_a       7.60005
_cell_length_b       7.74959
_cell_length_c       9.4594
_cell_angle_alpha    90.0007
_cell_angle_beta     89.9998
_cell_angle_gamma    108.68

_space_group_name_H-M_alt    "P 1"
_space_group_IT_number       1

loop_
  _space_group_symop_operation_xyz
  'x, y, z'

loop_
  _atom_site_type_symbol
  _atom_site_label
  _atom_site_symmetry_multiplicity
  _atom_site_fract_x
  _atom_site_fract_y
  _atom_site_fract_z
  _atom_site_occupancy
  Mn  Mn1       1.0  1.00000  1.00000  1.00000  1.0000
  Mn  Mn2       1.0  0.50000  0.00000  0.50000  1.0000
  H   H1        1.0  0.83953  0.66409  0.61453  1.0000
  H   H2        1.0  0.66047  0.33591  0.11453  1.0000
  H   H3        1.0  0.16047  0.33591  0.38547  1.0000
  H   H4        1.0  0.33953  0.66409  0.88547  1.0000
  H   H5        1.0  0.08432  0.77315  0.60824  1.0000
  H   H6        1.0  0.41568  0.22686  0.10824  1.0000
  H   H7        1.0  0.91568  0.22685  0.39176  1.0000
  H   H8        1.0  0.58432  0.77314  0.89176  1.0000
  H   H9        1.0  0.84785  0.84896  0.41452  1.0000
  H   H10       1.0  0.65216  0.15104  0.91452  1.0000
  H   H11       1.0  0.15216  0.15104  0.58548  1.0000
  H   H12       1.0  0.34784  0.84896  0.08548  1.0000
  H   H13       1.0  0.85779  0.74428  0.24951  1.0000
  H   H14       1.0  0.64220  0.25570  0.74951  1.0000
  H   H15       1.0  0.14222  0.25572  0.75049  1.0000
  H   H16       1.0  0.35779  0.74429  0.25049  1.0000
  H   H17       1.0  0.04691  0.35656  0.08817  1.0000
  H   H18       1.0  0.45309  0.64344  0.58817  1.0000
  H   H19       1.0  0.95309  0.64344  0.91183  1.0000
  H   H20       1.0  0.54691  0.35656  0.41183  1.0000
  H   H21       1.0  0.04096  0.36539  0.92011  1.0000
  H   H22       1.0  0.45904  0.63461  0.42011  1.0000
  H   H23       1.0  0.95904  0.63461  0.07989  1.0000
  H   H24       1.0  0.54096  0.36538  0.57989  1.0000
  C   C1        1.0  0.99813  0.50678  0.34844  1.0000
  C   C2        1.0  0.50188  0.49322  0.84845  1.0000
  C   C3        1.0  0.00188  0.49322  0.65156  1.0000
  C   C4        1.0  0.49812  0.50678  0.15156  1.0000
  C   C5        1.0  0.97093  0.65060  0.57535  1.0000
  C   C6        1.0  0.52907  0.34940  0.07535  1.0000
  C   C7        1.0  0.02907  0.34940  0.42465  1.0000
  C   C8        1.0  0.47093  0.65060  0.92465  1.0000
  C   C9        1.0  0.11567  0.94814  0.31820  1.0000
  C   C10       1.0  0.38432  0.05186  0.81821  1.0000
  C   C11       1.0  0.88433  0.05186  0.68179  1.0000
  C   C12       1.0  0.61567  0.94814  0.18179  1.0000
  C   C13       1.0  0.93428  0.79298  0.34711  1.0000
  C   C14       1.0  0.56572  0.20702  0.84711  1.0000
  C   C15       1.0  0.06572  0.20702  0.65289  1.0000
  C   C16       1.0  0.43428  0.79298  0.15289  1.0000
  N   N1        1.0  0.96522  0.64036  0.42161  1.0000
  N   N2        1.0  0.53478  0.35964  0.92161  1.0000
  N   N3        1.0  0.03478  0.35964  0.57839  1.0000
  N   N4        1.0  0.46522  0.64036  0.07839  1.0000
  O   O1        1.0  0.23500  0.98362  0.41659  1.0000
  O   O2        1.0  0.26499  0.01638  0.91659  1.0000
  O   O3        1.0  0.76500  0.01638  0.58341  1.0000
  O   O4        1.0  0.73500  0.98362  0.08340  1.0000
  O   O5        1.0  0.00209  0.50493  0.21483  1.0000
  O   O6        1.0  0.49792  0.49507  0.71483  1.0000
  O   O7        1.0  0.99792  0.49507  0.78517  1.0000
  O   O8        1.0  0.50208  0.50493  0.28517  1.0000
  O   O9        1.0  0.07713  0.30161  0.00057  1.0000
  O   O10       1.0  0.42287  0.69839  0.50057  1.0000
  O   O11       1.0  0.92286  0.69839  0.99943  1.0000
  O   O12       1.0  0.57713  0.30161  0.49943  1.0000
  O   O13       1.0  0.13331  0.03549  0.20321  1.0000
  O   O14       1.0  0.36668  0.96451  0.70321  1.0000
  O   O15       1.0  0.86669  0.96452  0.79679  1.0000
  O   O16       1.0  0.63332  0.03549  0.29679  1.0000
