data_image0
_chemical_formula_structural       Co2H24C16N4O16
_chemical_formula_sum              "Co2 H24 C16 N4 O16"
_cell_length_a       7.64513
_cell_length_b       7.4845
_cell_length_c       9.34626
_cell_angle_alpha    89.0928
_cell_angle_beta     93.2937
_cell_angle_gamma    109.553

_space_group_name_H-M_alt    "P 1"
_space_group_IT_number       1

loop_
  _space_group_symop_operation_xyz
  'x, y, z'

loop_
  _atom_site_type_symbol
  _atom_site_label
  _atom_site_symmetry_multiplicity
  _atom_site_fract_x
  _atom_site_fract_y
  _atom_site_fract_z
  _atom_site_occupancy
  Co  Co1       1.0  0.00000  0.50000  0.50000  1.0000
  Co  Co2       1.0  0.50000  0.50000  1.00000  1.0000
  H   H1        1.0  0.86389  0.36977  0.90512  1.0000
  H   H2        1.0  0.64502  0.63722  0.42429  1.0000
  H   H3        1.0  0.13611  0.63023  0.09488  1.0000
  H   H4        1.0  0.35498  0.36278  0.57571  1.0000
  H   H5        1.0  0.84913  0.25060  0.74063  1.0000
  H   H6        1.0  0.64794  0.75356  0.25752  1.0000
  H   H7        1.0  0.15088  0.74940  0.25937  1.0000
  H   H8        1.0  0.35206  0.24644  0.74248  1.0000
  H   H9        1.0  0.84346  0.17264  0.10605  1.0000
  H   H10       1.0  0.66075  0.83117  0.62393  1.0000
  H   H11       1.0  0.15653  0.82736  0.89395  1.0000
  H   H12       1.0  0.33925  0.16883  0.37607  1.0000
  H   H13       1.0  0.09070  0.28359  0.10890  1.0000
  H   H14       1.0  0.41553  0.71450  0.60694  1.0000
  H   H15       1.0  0.90929  0.71641  0.89110  1.0000
  H   H16       1.0  0.58447  0.28550  0.39306  1.0000
  H   H17       1.0  0.04001  0.83179  0.58948  1.0000
  H   H18       1.0  0.44722  0.14800  0.08388  1.0000
  H   H19       1.0  0.95999  0.16821  0.41052  1.0000
  H   H20       1.0  0.55278  0.85200  0.91612  1.0000
  H   H21       1.0  0.03230  0.84482  0.41923  1.0000
  H   H22       1.0  0.45363  0.13928  0.91455  1.0000
  H   H23       1.0  0.96770  0.15518  0.58077  1.0000
  H   H24       1.0  0.54637  0.86072  0.08545  1.0000
  C   C1        1.0  0.12232  0.45347  0.80227  1.0000
  C   C2        1.0  0.38163  0.54321  0.30693  1.0000
  C   C3        1.0  0.87767  0.54653  0.19773  1.0000
  C   C4        1.0  0.61838  0.45678  0.69307  1.0000
  C   C5        1.0  0.93771  0.30303  0.83723  1.0000
  C   C6        1.0  0.56507  0.69999  0.34996  1.0000
  C   C7        1.0  0.06229  0.69697  0.16277  1.0000
  C   C8        1.0  0.43493  0.30001  0.65004  1.0000
  C   C9        1.0  0.99931  0.00677  0.84638  1.0000
  C   C10       1.0  0.50238  0.99533  0.34694  1.0000
  C   C11       1.0  0.00069  0.99323  0.15362  1.0000
  C   C12       1.0  0.49762  0.00467  0.65306  1.0000
  C   C13       1.0  0.97343  0.15716  0.07260  1.0000
  C   C14       1.0  0.52925  0.84363  0.57850  1.0000
  C   C15       1.0  0.02657  0.84284  0.92740  1.0000
  C   C16       1.0  0.47075  0.15637  0.42150  1.0000
  N   N1        1.0  0.96645  0.14478  0.91681  1.0000
  N   N2        1.0  0.53513  0.85691  0.42328  1.0000
  N   N3        1.0  0.03355  0.85522  0.08319  1.0000
  N   N4        1.0  0.46487  0.14309  0.57672  1.0000
  O   O1        1.0  0.14426  0.53083  0.67871  1.0000
  O   O2        1.0  0.36800  0.45951  0.18724  1.0000
  O   O3        1.0  0.85574  0.46917  0.32129  1.0000
  O   O4        1.0  0.63200  0.54049  0.81275  1.0000
  O   O5        1.0  0.24656  0.50058  0.90300  1.0000
  O   O6        1.0  0.25662  0.49927  0.39618  1.0000
  O   O7        1.0  0.75344  0.49941  0.09700  1.0000
  O   O8        1.0  0.74338  0.50072  0.60382  1.0000
  O   O9        1.0  0.07573  0.78173  0.50209  1.0000
  O   O10       1.0  0.41187  0.20101  0.99297  1.0000
  O   O11       1.0  0.92427  0.21828  0.49791  1.0000
  O   O12       1.0  0.58813  0.79899  0.00703  1.0000
  O   O13       1.0  0.00457  0.00526  0.71116  1.0000
  O   O14       1.0  0.49852  0.99782  0.21142  1.0000
  O   O15       1.0  0.99543  0.99474  0.28883  1.0000
  O   O16       1.0  0.50148  0.00218  0.78858  1.0000
