data_image0
_chemical_formula_structural       Fe2H24C16N4O16
_chemical_formula_sum              "Fe2 H24 C16 N4 O16"
_cell_length_a       7.46028
_cell_length_b       7.63068
_cell_length_c       9.2981
_cell_angle_alpha    89.688
_cell_angle_beta     90.5843
_cell_angle_gamma    108.451

_space_group_name_H-M_alt    "P 1"
_space_group_IT_number       1

loop_
  _space_group_symop_operation_xyz
  'x, y, z'

loop_
  _atom_site_type_symbol
  _atom_site_label
  _atom_site_symmetry_multiplicity
  _atom_site_fract_x
  _atom_site_fract_y
  _atom_site_fract_z
  _atom_site_occupancy
  Fe  Fe1       1.0  0.00000  0.00000  0.00000  1.0000
  Fe  Fe2       1.0  0.50000  1.00000  0.50000  1.0000
  H   H1        1.0  0.41425  0.22316  0.88865  1.0000
  H   H2        1.0  0.08426  0.77697  0.38994  1.0000
  H   H3        1.0  0.58575  0.77685  0.11135  1.0000
  H   H4        1.0  0.91573  0.22303  0.61006  1.0000
  H   H5        1.0  0.66387  0.33248  0.88739  1.0000
  H   H6        1.0  0.83504  0.66538  0.38057  1.0000
  H   H7        1.0  0.33613  0.66752  0.11261  1.0000
  H   H8        1.0  0.16495  0.33462  0.61943  1.0000
  H   H9        1.0  0.64883  0.25256  0.25427  1.0000
  H   H10       1.0  0.85796  0.75365  0.75179  1.0000
  H   H11       1.0  0.35117  0.74744  0.74573  1.0000
  H   H12       1.0  0.14204  0.24635  0.24821  1.0000
  H   H13       1.0  0.64713  0.14099  0.08755  1.0000
  H   H14       1.0  0.85314  0.86151  0.58359  1.0000
  H   H15       1.0  0.35287  0.85901  0.91245  1.0000
  H   H16       1.0  0.14686  0.13849  0.41641  1.0000
  H   H17       1.0  0.04483  0.35996  0.08077  1.0000
  H   H18       1.0  0.47177  0.65562  0.57953  1.0000
  H   H19       1.0  0.95516  0.64004  0.91923  1.0000
  H   H20       1.0  0.52823  0.34438  0.42047  1.0000
  H   H21       1.0  0.05080  0.35261  0.91040  1.0000
  H   H22       1.0  0.46191  0.66346  0.40894  1.0000
  H   H23       1.0  0.94920  0.64738  0.08960  1.0000
  H   H24       1.0  0.53809  0.33654  0.59106  1.0000
  C   C1        1.0  0.50001  0.49255  0.15404  1.0000
  C   C2        1.0  0.99770  0.50687  0.65351  1.0000
  C   C3        1.0  0.49999  0.50745  0.84596  1.0000
  C   C4        1.0  0.00230  0.49314  0.34649  1.0000
  C   C5        1.0  0.52932  0.34658  0.92435  1.0000
  C   C6        1.0  0.96896  0.65240  0.42219  1.0000
  C   C7        1.0  0.47068  0.65343  0.07565  1.0000
  C   C8        1.0  0.03104  0.34759  0.57780  1.0000
  C   C9        1.0  0.56479  0.20176  0.15769  1.0000
  C   C10       1.0  0.93704  0.79966  0.65313  1.0000
  C   C11       1.0  0.43521  0.79824  0.84231  1.0000
  C   C12       1.0  0.06296  0.20033  0.34687  1.0000
  C   C13       1.0  0.38151  0.04913  0.19405  1.0000
  C   C14       1.0  0.12784  0.94716  0.68481  1.0000
  C   C15       1.0  0.61850  0.95087  0.80595  1.0000
  C   C16       1.0  0.87216  0.05284  0.31519  1.0000
  N   N1        1.0  0.53204  0.35605  0.08071  1.0000
  N   N2        1.0  0.96212  0.64148  0.57840  1.0000
  N   N3        1.0  0.46796  0.64395  0.91929  1.0000
  N   N4        1.0  0.03788  0.35852  0.42160  1.0000
  O   O1        1.0  0.49567  0.49429  0.29014  1.0000
  O   O2        1.0  0.00249  0.50579  0.78957  1.0000
  O   O3        1.0  0.50433  0.50571  0.70986  1.0000
  O   O4        1.0  0.99751  0.49421  0.21043  1.0000
  O   O5        1.0  0.36318  0.96804  0.31549  1.0000
  O   O6        1.0  0.15151  0.03714  0.80162  1.0000
  O   O7        1.0  0.63682  0.03195  0.68451  1.0000
  O   O8        1.0  0.84849  0.96286  0.19838  1.0000
  O   O9        1.0  0.25552  0.00400  0.09606  1.0000
  O   O10       1.0  0.24707  0.96970  0.58480  1.0000
  O   O11       1.0  0.74448  0.99601  0.90394  1.0000
  O   O12       1.0  0.75293  0.03030  0.41520  1.0000
  O   O13       1.0  0.08210  0.29537  0.99936  1.0000
  O   O14       1.0  0.43077  0.71892  0.49777  1.0000
  O   O15       1.0  0.91790  0.70463  0.00064  1.0000
  O   O16       1.0  0.56923  0.28108  0.50223  1.0000
