data_image0
_chemical_formula_structural       Cu2H24C16N4O16
_chemical_formula_sum              "Cu2 H24 C16 N4 O16"
_cell_length_a       4.65074
_cell_length_b       10.5069
_cell_length_c       11.9464
_cell_angle_alpha    76.1444
_cell_angle_beta     78.8018
_cell_angle_gamma    77.2169

_space_group_name_H-M_alt    "P 1"
_space_group_IT_number       1

loop_
  _space_group_symop_operation_xyz
  'x, y, z'

loop_
  _atom_site_type_symbol
  _atom_site_label
  _atom_site_symmetry_multiplicity
  _atom_site_fract_x
  _atom_site_fract_y
  _atom_site_fract_z
  _atom_site_occupancy
  Cu  Cu1       1.0  0.00000  1.00000  0.50000  1.0000
  Cu  Cu2       1.0  0.50000  0.50000  0.00000  1.0000
  H   H1        1.0  0.44062  0.59268  0.31298  1.0000
  H   H2        1.0  0.34625  0.90731  0.18696  1.0000
  H   H3        1.0  0.55938  0.40732  0.68702  1.0000
  H   H4        1.0  0.65375  0.09269  0.81304  1.0000
  H   H5        1.0  0.77189  0.47330  0.32069  1.0000
  H   H6        1.0  0.56578  0.02667  0.17937  1.0000
  H   H7        1.0  0.22811  0.52670  0.67931  1.0000
  H   H8        1.0  0.43422  0.97333  0.82063  1.0000
  H   H9        1.0  0.36362  0.37688  0.28421  1.0000
  H   H10       1.0  0.02434  0.12299  0.21569  1.0000
  H   H11       1.0  0.63638  0.62312  0.71579  1.0000
  H   H12       1.0  0.97566  0.87701  0.78431  1.0000
  H   H13       1.0  0.09943  0.31882  0.40486  1.0000
  H   H14       1.0  0.82320  0.18140  0.09479  1.0000
  H   H15       1.0  0.90058  0.68118  0.59514  1.0000
  H   H16       1.0  0.17680  0.81860  0.90521  1.0000
  H   H17       1.0  0.09766  0.17000  0.61066  1.0000
  H   H18       1.0  0.87902  0.32974  0.88957  1.0000
  H   H19       1.0  0.90234  0.83000  0.38934  1.0000
  H   H20       1.0  0.12098  0.67026  0.11043  1.0000
  H   H21       1.0  0.28395  0.01780  0.63969  1.0000
  H   H22       1.0  0.94175  0.48207  0.86040  1.0000
  H   H23       1.0  0.71605  0.98220  0.36031  1.0000
  H   H24       1.0  0.05825  0.51793  0.13960  1.0000
  C   C1        1.0  0.57679  0.52028  0.37433  1.0000
  C   C2        1.0  0.47136  0.97969  0.12566  1.0000
  C   C3        1.0  0.42321  0.47972  0.62567  1.0000
  C   C4        1.0  0.52864  0.02031  0.87434  1.0000
  C   C5        1.0  0.31758  0.40082  0.55682  1.0000
  C   C6        1.0  0.27519  0.09916  0.94310  1.0000
  C   C7        1.0  0.68242  0.59918  0.44318  1.0000
  C   C8        1.0  0.72481  0.90084  0.05690  1.0000
  C   C9        1.0  0.33207  0.33205  0.37754  1.0000
  C   C10       1.0  0.04161  0.16793  0.12238  1.0000
  C   C11       1.0  0.66793  0.66795  0.62246  1.0000
  C   C12       1.0  0.95839  0.83207  0.87762  1.0000
  C   C13       1.0  0.52238  0.19228  0.39468  1.0000
  C   C14       1.0  0.10944  0.30765  0.10557  1.0000
  C   C15       1.0  0.47762  0.80772  0.60532  1.0000
  C   C16       1.0  0.89056  0.69235  0.89443  1.0000
  N   N1        1.0  0.40448  0.41959  0.44105  1.0000
  N   N2        1.0  0.26506  0.08044  0.05890  1.0000
  N   N3        1.0  0.59553  0.58041  0.55895  1.0000
  N   N4        1.0  0.73494  0.91956  0.94110  1.0000
  O   O1        1.0  0.15473  0.31901  0.61140  1.0000
  O   O2        1.0  0.08516  0.18092  0.88843  1.0000
  O   O3        1.0  0.84527  0.68099  0.38860  1.0000
  O   O4        1.0  0.91483  0.81908  0.11157  1.0000
  O   O5        1.0  0.44512  0.10733  0.35296  1.0000
  O   O6        1.0  0.90580  0.39241  0.14759  1.0000
  O   O7        1.0  0.55488  0.89267  0.64704  1.0000
  O   O8        1.0  0.09420  0.60759  0.85241  1.0000
  O   O9        1.0  0.74264  0.17243  0.45029  1.0000
  O   O10       1.0  0.36525  0.32754  0.04992  1.0000
  O   O11       1.0  0.25736  0.82757  0.54972  1.0000
  O   O12       1.0  0.63475  0.67246  0.95008  1.0000
  O   O13       1.0  0.08149  0.07339  0.62568  1.0000
  O   O14       1.0  0.78107  0.42636  0.87475  1.0000
  O   O15       1.0  0.91851  0.92661  0.37432  1.0000
  O   O16       1.0  0.21893  0.57364  0.12525  1.0000
