data_image0
_chemical_formula_structural       Zn4H44C76N4O16
_chemical_formula_sum              "Zn4 H44 C76 N4 O16"
_cell_length_a       8.18471
_cell_length_b       14.7896
_cell_length_c       15.0149
_cell_angle_alpha    89.9994
_cell_angle_beta     97.7255
_cell_angle_gamma    89.9996

_space_group_name_H-M_alt    "P 1"
_space_group_IT_number       1

loop_
  _space_group_symop_operation_xyz
  'x, y, z'

loop_
  _atom_site_type_symbol
  _atom_site_label
  _atom_site_symmetry_multiplicity
  _atom_site_fract_x
  _atom_site_fract_y
  _atom_site_fract_z
  _atom_site_occupancy
  Zn  Zn1       1.0  0.99037  0.72957  0.74632  1.0000
  Zn  Zn2       1.0  0.50963  0.22957  0.25368  1.0000
  Zn  Zn3       1.0  0.00963  0.27043  0.25368  1.0000
  Zn  Zn4       1.0  0.49038  0.77043  0.74631  1.0000
  H   H1        1.0  0.10492  0.87634  0.63304  1.0000
  H   H2        1.0  0.39508  0.37634  0.36698  1.0000
  H   H3        1.0  0.89509  0.12366  0.36697  1.0000
  H   H4        1.0  0.60492  0.62365  0.63302  1.0000
  H   H5        1.0  0.00329  0.13193  0.75208  1.0000
  H   H6        1.0  0.49672  0.63193  0.24793  1.0000
  H   H7        1.0  0.99672  0.86807  0.24792  1.0000
  H   H8        1.0  0.50326  0.36807  0.75207  1.0000
  H   H9        1.0  0.87541  0.87554  0.86103  1.0000
  H   H10       1.0  0.62458  0.37554  0.13897  1.0000
  H   H11       1.0  0.12459  0.12446  0.13897  1.0000
  H   H12       1.0  0.37543  0.62446  0.86102  1.0000
  H   H13       1.0  0.29625  0.94953  0.58223  1.0000
  H   H14       1.0  0.20375  0.44953  0.41778  1.0000
  H   H15       1.0  0.70375  0.05047  0.41777  1.0000
  H   H16       1.0  0.79626  0.55046  0.58223  1.0000
  H   H17       1.0  0.39080  0.02520  0.45048  1.0000
  H   H18       1.0  0.10919  0.52521  0.54953  1.0000
  H   H19       1.0  0.60919  0.97479  0.54952  1.0000
  H   H20       1.0  0.89082  0.47478  0.45048  1.0000
  H   H21       1.0  0.08634  0.25467  0.48595  1.0000
  H   H22       1.0  0.41366  0.75467  0.51405  1.0000
  H   H23       1.0  0.91365  0.74532  0.51404  1.0000
  H   H24       1.0  0.58635  0.24532  0.48595  1.0000
  H   H25       1.0  0.97730  0.17758  0.61251  1.0000
  H   H26       1.0  0.52271  0.67757  0.38750  1.0000
  H   H27       1.0  0.02270  0.82243  0.38749  1.0000
  H   H28       1.0  0.47730  0.32242  0.61250  1.0000
  H   H29       1.0  0.69418  0.95293  0.91692  1.0000
  H   H30       1.0  0.80584  0.45292  0.08309  1.0000
  H   H31       1.0  0.30582  0.04707  0.08308  1.0000
  H   H32       1.0  0.19417  0.54708  0.91691  1.0000
  H   H33       1.0  0.60885  0.02809  0.05146  1.0000
  H   H34       1.0  0.89114  0.52808  0.94854  1.0000
  H   H35       1.0  0.39114  0.97191  0.94854  1.0000
  H   H36       1.0  0.10885  0.47192  0.05146  1.0000
  H   H37       1.0  0.93503  0.24937  0.02116  1.0000
  H   H38       1.0  0.56494  0.74936  0.97883  1.0000
  H   H39       1.0  0.06495  0.75064  0.97884  1.0000
  H   H40       1.0  0.43505  0.25064  0.02116  1.0000
  H   H41       1.0  0.03454  0.17227  0.89191  1.0000
  H   H42       1.0  0.46546  0.67226  0.10808  1.0000
  H   H43       1.0  0.96545  0.82774  0.10808  1.0000
  H   H44       1.0  0.53454  0.32774  0.89191  1.0000
  C   C1        1.0  0.05600  0.91706  0.68347  1.0000
  C   C2        1.0  0.44400  0.41706  0.31654  1.0000
  C   C3        1.0  0.94401  0.08294  0.31653  1.0000
  C   C4        1.0  0.55600  0.58293  0.68346  1.0000
  C   C5        1.0  0.06224  0.01163  0.68151  1.0000
  C   C6        1.0  0.43776  0.51163  0.31850  1.0000
  C   C7        1.0  0.93777  0.98837  0.31850  1.0000
  C   C8        1.0  0.56223  0.48837  0.68150  1.0000
  C   C9        1.0  0.99940  0.05826  0.75059  1.0000
  C   C10       1.0  0.50060  0.55827  0.24942  1.0000
  C   C11       1.0  0.00061  0.94174  0.24941  1.0000
  C   C12       1.0  0.49938  0.44174  0.75058  1.0000
  C   C13       1.0  0.93174  0.01116  0.81786  1.0000
  C   C14       1.0  0.56825  0.51116  0.18215  1.0000
  C   C15       1.0  0.06825  0.98885  0.18215  1.0000
  C   C16       1.0  0.43174  0.48884  0.81785  1.0000
  C   C17       1.0  0.92843  0.91666  0.81228  1.0000
  C   C18       1.0  0.57156  0.41666  0.18774  1.0000
  C   C19       1.0  0.07157  0.08334  0.18773  1.0000
  C   C20       1.0  0.42844  0.58334  0.81226  1.0000
  C   C21       1.0  0.12896  0.05797  0.60716  1.0000
  C   C22       1.0  0.37104  0.55797  0.39285  1.0000
  C   C23       1.0  0.87104  0.94203  0.39284  1.0000
  C   C24       1.0  0.62896  0.44202  0.60715  1.0000
  C   C25       1.0  0.24680  0.01574  0.56082  1.0000
  C   C26       1.0  0.25320  0.51575  0.43920  1.0000
  C   C27       1.0  0.75320  0.98426  0.43918  1.0000
  C   C28       1.0  0.74681  0.48425  0.56081  1.0000
  C   C29       1.0  0.30288  0.05839  0.48804  1.0000
  C   C30       1.0  0.19713  0.55840  0.51197  1.0000
  C   C31       1.0  0.69712  0.94161  0.51196  1.0000
  C   C32       1.0  0.80288  0.44159  0.48803  1.0000
  C   C33       1.0  0.24567  0.14463  0.46086  1.0000
  C   C34       1.0  0.25433  0.64463  0.53915  1.0000
  C   C35       1.0  0.75433  0.85537  0.53913  1.0000
  C   C36       1.0  0.74568  0.35536  0.46086  1.0000
  C   C37       1.0  0.13081  0.18778  0.50789  1.0000
  C   C38       1.0  0.36919  0.68778  0.49212  1.0000
  C   C39       1.0  0.86918  0.81222  0.49211  1.0000
  C   C40       1.0  0.63081  0.31222  0.50789  1.0000
  C   C41       1.0  0.07204  0.14459  0.57939  1.0000
  C   C42       1.0  0.42797  0.64459  0.42062  1.0000
  C   C43       1.0  0.92796  0.85541  0.42061  1.0000
  C   C44       1.0  0.57204  0.35540  0.57938  1.0000
  C   C45       1.0  0.30054  0.19052  0.38126  1.0000
  C   C46       1.0  0.19947  0.69052  0.61874  1.0000
  C   C47       1.0  0.69946  0.80948  0.61873  1.0000
  C   C48       1.0  0.80054  0.30948  0.38126  1.0000
  C   C49       1.0  0.87105  0.05713  0.89426  1.0000
  C   C50       1.0  0.62895  0.55712  0.10575  1.0000
  C   C51       1.0  0.12894  0.94287  0.10574  1.0000
  C   C52       1.0  0.37105  0.44287  0.89426  1.0000
  C   C53       1.0  0.75018  0.01719  0.94009  1.0000
  C   C54       1.0  0.74983  0.51719  0.05991  1.0000
  C   C55       1.0  0.24982  0.98281  0.05990  1.0000
  C   C56       1.0  0.25017  0.48282  0.94009  1.0000
  C   C57       1.0  0.69968  0.05958  0.01457  1.0000
  C   C58       1.0  0.80033  0.55958  0.98544  1.0000
  C   C59       1.0  0.30032  0.94042  0.98543  1.0000
  C   C60       1.0  0.19968  0.44042  0.01456  1.0000
  C   C61       1.0  0.76581  0.14340  0.04408  1.0000
  C   C62       1.0  0.73419  0.64340  0.95593  1.0000
  C   C63       1.0  0.23418  0.85660  0.95592  1.0000
  C   C64       1.0  0.26581  0.35660  0.04407  1.0000
  C   C65       1.0  0.88390  0.18429  0.99766  1.0000
  C   C66       1.0  0.61608  0.68429  0.00234  1.0000
  C   C67       1.0  0.11609  0.81571  0.00234  1.0000
  C   C68       1.0  0.38391  0.31571  0.99766  1.0000
  C   C69       1.0  0.93711  0.14126  0.92451  1.0000
  C   C70       1.0  0.56288  0.64126  0.07548  1.0000
  C   C71       1.0  0.06288  0.85874  0.07548  1.0000
  C   C72       1.0  0.43711  0.35874  0.92452  1.0000
  C   C73       1.0  0.71595  0.18932  0.12501  1.0000
  C   C74       1.0  0.78405  0.68932  0.87499  1.0000
  C   C75       1.0  0.28406  0.81068  0.87500  1.0000
  C   C76       1.0  0.21594  0.31068  0.12500  1.0000
  N   N1        1.0  0.99029  0.87086  0.74705  1.0000
  N   N2        1.0  0.50971  0.37087  0.25296  1.0000
  N   N3        1.0  0.00971  0.12914  0.25295  1.0000
  N   N4        1.0  0.49030  0.62913  0.74704  1.0000
  O   O1        1.0  0.60172  0.15224  0.16324  1.0000
  O   O2        1.0  0.89829  0.65223  0.83676  1.0000
  O   O3        1.0  0.39829  0.84777  0.83676  1.0000
  O   O4        1.0  0.10171  0.34777  0.16324  1.0000
  O   O5        1.0  0.78724  0.26272  0.15118  1.0000
  O   O6        1.0  0.71276  0.76271  0.84881  1.0000
  O   O7        1.0  0.21277  0.73729  0.84881  1.0000
  O   O8        1.0  0.28724  0.23728  0.15119  1.0000
  O   O9        1.0  0.41541  0.15281  0.34407  1.0000
  O   O10       1.0  0.08458  0.65282  0.65594  1.0000
  O   O11       1.0  0.58458  0.84719  0.65593  1.0000
  O   O12       1.0  0.91542  0.34718  0.34407  1.0000
  O   O13       1.0  0.23203  0.26458  0.35478  1.0000
  O   O14       1.0  0.26797  0.76459  0.64522  1.0000
  O   O15       1.0  0.76796  0.73542  0.64522  1.0000
  O   O16       1.0  0.73204  0.23541  0.35478  1.0000
