data_image0
_chemical_formula_structural       Cd2H26C34N6O12
_chemical_formula_sum              "Cd2 H26 C34 N6 O12"
_cell_length_a       7.70316
_cell_length_b       8.81155
_cell_length_c       15.2642
_cell_angle_alpha    83.2079
_cell_angle_beta     78.8721
_cell_angle_gamma    78.782

_space_group_name_H-M_alt    "P 1"
_space_group_IT_number       1

loop_
  _space_group_symop_operation_xyz
  'x, y, z'

loop_
  _atom_site_type_symbol
  _atom_site_label
  _atom_site_symmetry_multiplicity
  _atom_site_fract_x
  _atom_site_fract_y
  _atom_site_fract_z
  _atom_site_occupancy
  Cd  Cd1       1.0  0.48233  0.91796  0.85919  1.0000
  Cd  Cd2       1.0  0.51766  0.08204  0.14081  1.0000
  H   H1        1.0  0.98465  0.56657  0.15474  1.0000
  H   H2        1.0  0.01534  0.43342  0.84526  1.0000
  H   H3        1.0  0.39680  0.48760  0.92045  1.0000
  H   H4        1.0  0.60319  0.51241  0.07954  1.0000
  H   H5        1.0  0.00883  0.88488  0.91523  1.0000
  H   H6        1.0  0.99116  0.11512  0.08476  1.0000
  H   H7        1.0  0.55466  0.71855  0.69451  1.0000
  H   H8        1.0  0.44534  0.28145  0.30549  1.0000
  H   H9        1.0  0.69813  0.72686  0.53397  1.0000
  H   H10       1.0  0.30188  0.27314  0.46603  1.0000
  H   H11       1.0  0.70366  0.21402  0.54722  1.0000
  H   H12       1.0  0.29634  0.78598  0.45278  1.0000
  H   H13       1.0  0.55427  0.18400  0.70659  1.0000
  H   H14       1.0  0.44574  0.81599  0.29341  1.0000
  H   H15       1.0  0.84649  0.22194  0.42269  1.0000
  H   H16       1.0  0.15351  0.77806  0.57731  1.0000
  H   H17       1.0  0.02341  0.21920  0.26812  1.0000
  H   H18       1.0  0.97659  0.78080  0.73188  1.0000
  H   H19       1.0  0.99094  0.76018  0.25450  1.0000
  H   H20       1.0  0.00907  0.23982  0.74550  1.0000
  H   H21       1.0  0.80876  0.74214  0.40574  1.0000
  H   H22       1.0  0.19125  0.25786  0.59426  1.0000
  H   H23       1.0  0.80546  0.03834  0.83001  1.0000
  H   H24       1.0  0.19454  0.96166  0.16999  1.0000
  H   H25       1.0  0.72053  0.03361  0.93445  1.0000
  H   H26       1.0  0.27947  0.96638  0.06555  1.0000
  C   C1        1.0  0.97178  0.73802  0.04110  1.0000
  C   C2        1.0  0.02821  0.26197  0.95890  1.0000
  C   C3        1.0  0.04691  0.60198  0.08711  1.0000
  C   C4        1.0  0.95308  0.39802  0.91289  1.0000
  C   C5        1.0  0.20114  0.50979  0.04466  1.0000
  C   C6        1.0  0.79886  0.49021  0.95534  1.0000
  C   C7        1.0  0.27853  0.55510  0.95784  1.0000
  C   C8        1.0  0.72147  0.44491  0.04215  1.0000
  C   C9        1.0  0.05513  0.78000  0.95499  1.0000
  C   C10       1.0  0.94486  0.22000  0.04501  1.0000
  C   C11       1.0  0.80661  0.84119  0.08503  1.0000
  C   C12       1.0  0.19338  0.15881  0.91497  1.0000
  C   C13       1.0  0.28740  0.36222  0.09168  1.0000
  C   C14       1.0  0.71261  0.63779  0.90832  1.0000
  C   C15       1.0  0.58867  0.82596  0.65805  1.0000
  C   C16       1.0  0.41133  0.17404  0.34195  1.0000
  C   C17       1.0  0.66964  0.83253  0.56842  1.0000
  C   C18       1.0  0.33037  0.16747  0.43158  1.0000
  C   C19       1.0  0.71696  0.97197  0.52465  1.0000
  C   C20       1.0  0.28304  0.02803  0.47535  1.0000
  C   C21       1.0  0.67238  0.10123  0.57563  1.0000
  C   C22       1.0  0.32762  0.89877  0.42437  1.0000
  C   C23       1.0  0.58981  0.08625  0.66490  1.0000
  C   C24       1.0  0.41019  0.91374  0.33510  1.0000
  C   C25       1.0  0.81316  0.98033  0.43073  1.0000
  C   C26       1.0  0.18684  0.01967  0.56927  1.0000
  C   C27       1.0  0.87322  0.11594  0.38858  1.0000
  C   C28       1.0  0.12678  0.88407  0.61142  1.0000
  C   C29       1.0  0.97256  0.11613  0.30204  1.0000
  C   C30       1.0  0.02744  0.88387  0.69796  1.0000
  C   C31       1.0  0.95602  0.86006  0.29438  1.0000
  C   C32       1.0  0.04399  0.13994  0.70562  1.0000
  C   C33       1.0  0.85409  0.85096  0.38000  1.0000
  C   C34       1.0  0.14591  0.14904  0.62000  1.0000
  N   N1        1.0  0.20831  0.69080  0.91492  1.0000
  N   N2        1.0  0.79168  0.30920  0.08508  1.0000
  N   N3        1.0  0.55083  0.95044  0.70584  1.0000
  N   N4        1.0  0.44917  0.04955  0.29416  1.0000
  N   N5        1.0  0.01658  0.98914  0.25617  1.0000
  N   N6        1.0  0.98342  0.01086  0.74384  1.0000
  O   O1        1.0  0.29063  0.73889  0.83528  1.0000
  O   O2        1.0  0.70936  0.26112  0.16472  1.0000
  O   O3        1.0  0.75373  0.97083  0.04045  1.0000
  O   O4        1.0  0.24625  0.02917  0.95956  1.0000
  O   O5        1.0  0.73232  0.80220  0.16275  1.0000
  O   O6        1.0  0.26767  0.19779  0.83726  1.0000
  O   O7        1.0  0.23073  0.33140  0.17375  1.0000
  O   O8        1.0  0.76928  0.66860  0.82625  1.0000
  O   O9        1.0  0.41665  0.27847  0.04302  1.0000
  O   O10       1.0  0.58334  0.72152  0.95697  1.0000
  O   O11       1.0  0.69071  0.06666  0.87373  1.0000
  O   O12       1.0  0.30929  0.93334  0.12628  1.0000
