data_image0
_chemical_formula_structural       K4Cd6H40C40O48
_chemical_formula_sum              "K4 Cd6 H40 C40 O48"
_cell_length_a       8.22654
_cell_length_b       14.1212
_cell_length_c       14.1213
_cell_angle_alpha    77.8669
_cell_angle_beta     73.0672
_cell_angle_gamma    73.0652

_space_group_name_H-M_alt    "P 1"
_space_group_IT_number       1

loop_
  _space_group_symop_operation_xyz
  'x, y, z'

loop_
  _atom_site_type_symbol
  _atom_site_label
  _atom_site_symmetry_multiplicity
  _atom_site_fract_x
  _atom_site_fract_y
  _atom_site_fract_z
  _atom_site_occupancy
  K   K1        1.0  0.50000  0.62940  0.37057  1.0000
  K   K2        1.0  0.50004  0.87054  0.12944  1.0000
  K   K3        1.0  0.50002  0.37058  0.62944  1.0000
  K   K4        1.0  0.49997  0.12945  0.87056  1.0000
  Cd  Cd1       1.0  0.00001  0.74999  0.25001  1.0000
  Cd  Cd2       1.0  0.99999  0.25001  0.74999  1.0000
  Cd  Cd3       1.0  0.79281  0.95727  0.45733  1.0000
  Cd  Cd4       1.0  0.20718  0.54269  0.04274  1.0000
  Cd  Cd5       1.0  0.20718  0.04274  0.54268  1.0000
  Cd  Cd6       1.0  0.79283  0.45731  0.95725  1.0000
  H   H1        1.0  0.38574  0.43121  0.43158  1.0000
  H   H2        1.0  0.61426  0.56860  0.56862  1.0000
  H   H3        1.0  0.24847  0.06863  0.06872  1.0000
  H   H4        1.0  0.75153  0.93136  0.93129  1.0000
  H   H5        1.0  0.21648  0.49580  0.49595  1.0000
  H   H6        1.0  0.78353  0.50411  0.50416  1.0000
  H   H7        1.0  0.20845  0.00407  0.00418  1.0000
  H   H8        1.0  0.79156  0.99589  0.99584  1.0000
  H   H9        1.0  0.63607  0.75134  0.51543  1.0000
  H   H10       1.0  0.36398  0.48456  0.24866  1.0000
  H   H11       1.0  0.90276  0.74839  0.98457  1.0000
  H   H12       1.0  0.09723  0.01541  0.25160  1.0000
  H   H13       1.0  0.36388  0.24867  0.48463  1.0000
  H   H14       1.0  0.63608  0.51540  0.75133  1.0000
  H   H15       1.0  0.09724  0.25160  0.01543  1.0000
  H   H16       1.0  0.90276  0.98458  0.74840  1.0000
  H   H17       1.0  0.44234  0.77602  0.57982  1.0000
  H   H18       1.0  0.55773  0.42024  0.22388  1.0000
  H   H19       1.0  0.79816  0.72387  0.92002  1.0000
  H   H20       1.0  0.20184  0.08001  0.27606  1.0000
  H   H21       1.0  0.55755  0.22413  0.42012  1.0000
  H   H22       1.0  0.44237  0.57983  0.77597  1.0000
  H   H23       1.0  0.20185  0.27614  0.07996  1.0000
  H   H24       1.0  0.79815  0.92001  0.72393  1.0000
  H   H25       1.0  0.52303  0.63932  0.12837  1.0000
  H   H26       1.0  0.47698  0.87161  0.36069  1.0000
  H   H27       1.0  0.29095  0.86069  0.37152  1.0000
  H   H28       1.0  0.70907  0.62848  0.13929  1.0000
  H   H29       1.0  0.47697  0.36069  0.87163  1.0000
  H   H30       1.0  0.52302  0.12840  0.63931  1.0000
  H   H31       1.0  0.70906  0.13931  0.62847  1.0000
  H   H32       1.0  0.29093  0.37152  0.86071  1.0000
  H   H33       1.0  0.92603  0.56611  0.56610  1.0000
  H   H34       1.0  0.07396  0.43390  0.43389  1.0000
  H   H35       1.0  0.05815  0.93392  0.93392  1.0000
  H   H36       1.0  0.94184  0.06608  0.06609  1.0000
  H   H37       1.0  0.16256  0.74289  0.74289  1.0000
  H   H38       1.0  0.83745  0.25711  0.25709  1.0000
  H   H39       1.0  0.64783  0.75690  0.75691  1.0000
  H   H40       1.0  0.35215  0.24311  0.24309  1.0000
  C   C1        1.0  0.99306  0.73120  0.45476  1.0000
  C   C2        1.0  0.00695  0.54524  0.26881  1.0000
  C   C3        1.0  0.17879  0.76872  0.04516  1.0000
  C   C4        1.0  0.82120  0.95484  0.23128  1.0000
  C   C5        1.0  0.00692  0.26882  0.54524  1.0000
  C   C6        1.0  0.99308  0.45476  0.73117  1.0000
  C   C7        1.0  0.82120  0.23128  0.95484  1.0000
  C   C8        1.0  0.17879  0.04516  0.76872  1.0000
  C   C9        1.0  0.12385  0.84554  0.56187  1.0000
  C   C10       1.0  0.87617  0.43813  0.15445  1.0000
  C   C11       1.0  0.53092  0.65438  0.93805  1.0000
  C   C12       1.0  0.46907  0.06195  0.34561  1.0000
  C   C13       1.0  0.87613  0.15447  0.43812  1.0000
  C   C14       1.0  0.12386  0.56187  0.84553  1.0000
  C   C15       1.0  0.46905  0.34562  0.06195  1.0000
  C   C16       1.0  0.53093  0.93805  0.65439  1.0000
  C   C17       1.0  0.98112  0.60421  0.60420  1.0000
  C   C18       1.0  0.01887  0.39580  0.39579  1.0000
  C   C19       1.0  0.18940  0.89577  0.89576  1.0000
  C   C20       1.0  0.81059  0.10424  0.10424  1.0000
  C   C21       1.0  0.01723  0.69616  0.55899  1.0000
  C   C22       1.0  0.98278  0.44101  0.30384  1.0000
  C   C23       1.0  0.27214  0.80377  0.94092  1.0000
  C   C24       1.0  0.72784  0.05908  0.19623  1.0000
  C   C25       1.0  0.98277  0.30385  0.44100  1.0000
  C   C26       1.0  0.01722  0.55900  0.69615  1.0000
  C   C27       1.0  0.72784  0.19623  0.05908  1.0000
  C   C28       1.0  0.27215  0.94092  0.80377  1.0000
  C   C29       1.0  0.08383  0.74691  0.60905  1.0000
  C   C30       1.0  0.91618  0.39095  0.25308  1.0000
  C   C31       1.0  0.43947  0.75296  0.89080  1.0000
  C   C32       1.0  0.56052  0.10920  0.24704  1.0000
  C   C33       1.0  0.91616  0.25310  0.39095  1.0000
  C   C34       1.0  0.08384  0.60905  0.74691  1.0000
  C   C35       1.0  0.56052  0.24705  0.10919  1.0000
  C   C36       1.0  0.43948  0.89080  0.75296  1.0000
  C   C37       1.0  0.11391  0.70308  0.70308  1.0000
  C   C38       1.0  0.88610  0.29692  0.29691  1.0000
  C   C39       1.0  0.51970  0.79679  0.79679  1.0000
  C   C40       1.0  0.48028  0.20322  0.20320  1.0000
  O   O1        1.0  0.84298  0.78070  0.44099  1.0000
  O   O2        1.0  0.15701  0.55901  0.21930  1.0000
  O   O3        1.0  0.06464  0.71912  0.05888  1.0000
  O   O4        1.0  0.93536  0.94113  0.28089  1.0000
  O   O5        1.0  0.15699  0.21930  0.55902  1.0000
  O   O6        1.0  0.84301  0.44098  0.78069  1.0000
  O   O7        1.0  0.93536  0.28089  0.94112  1.0000
  O   O8        1.0  0.06463  0.05888  0.71911  1.0000
  O   O9        1.0  0.12389  0.70137  0.38438  1.0000
  O   O10       1.0  0.87611  0.61562  0.29864  1.0000
  O   O11       1.0  0.20928  0.79868  0.11552  1.0000
  O   O12       1.0  0.79072  0.88447  0.20134  1.0000
  O   O13       1.0  0.87610  0.29866  0.61562  1.0000
  O   O14       1.0  0.12390  0.38438  0.70134  1.0000
  O   O15       1.0  0.79072  0.20134  0.88448  1.0000
  O   O16       1.0  0.20928  0.11553  0.79865  1.0000
  O   O17       1.0  0.07739  0.88983  0.48177  1.0000
  O   O18       1.0  0.92260  0.51824  0.11017  1.0000
  O   O19       1.0  0.44876  0.61019  0.01825  1.0000
  O   O20       1.0  0.55125  0.98175  0.38981  1.0000
  O   O21       1.0  0.92259  0.11018  0.51823  1.0000
  O   O22       1.0  0.07741  0.48176  0.88982  1.0000
  O   O23       1.0  0.55125  0.38982  0.98175  1.0000
  O   O24       1.0  0.44875  0.01825  0.61018  1.0000
  O   O25       1.0  0.20780  0.88098  0.60351  1.0000
  O   O26       1.0  0.79223  0.39649  0.11900  1.0000
  O   O27       1.0  0.69200  0.61892  0.89643  1.0000
  O   O28       1.0  0.30800  0.10357  0.38108  1.0000
  O   O29       1.0  0.79218  0.11903  0.39648  1.0000
  O   O30       1.0  0.20780  0.60351  0.88098  1.0000
  O   O31       1.0  0.30799  0.38107  0.10355  1.0000
  O   O32       1.0  0.69201  0.89645  0.61894  1.0000
  O   O33       1.0  0.34339  0.47981  0.47980  1.0000
  O   O34       1.0  0.65661  0.52021  0.52019  1.0000
  O   O35       1.0  0.30308  0.02027  0.02026  1.0000
  O   O36       1.0  0.69693  0.97972  0.97974  1.0000
  O   O37       1.0  0.53132  0.72471  0.54350  1.0000
  O   O38       1.0  0.46877  0.45648  0.27525  1.0000
  O   O39       1.0  0.79937  0.77504  0.95657  1.0000
  O   O40       1.0  0.20063  0.04340  0.22493  1.0000
  O   O41       1.0  0.46860  0.27533  0.45661  1.0000
  O   O42       1.0  0.53132  0.54343  0.72470  1.0000
  O   O43       1.0  0.20060  0.22495  0.04345  1.0000
  O   O44       1.0  0.79938  0.95658  0.77507  1.0000
  O   O45       1.0  0.58635  0.66350  0.16352  1.0000
  O   O46       1.0  0.41367  0.83645  0.33650  1.0000
  O   O47       1.0  0.41364  0.33649  0.83648  1.0000
  O   O48       1.0  0.58635  0.16353  0.66351  1.0000
