data_image0
_chemical_formula_structural       Cu2H32C20N4Cl2O4
_chemical_formula_sum              "Cu2 H32 C20 N4 Cl2 O4"
_cell_length_a       7.4908
_cell_length_b       8.74438
_cell_length_c       10.5385
_cell_angle_alpha    65.8483
_cell_angle_beta     70.0947
_cell_angle_gamma    83.2873

_space_group_name_H-M_alt    "P 1"
_space_group_IT_number       1

loop_
  _space_group_symop_operation_xyz
  'x, y, z'

loop_
  _atom_site_type_symbol
  _atom_site_label
  _atom_site_symmetry_multiplicity
  _atom_site_fract_x
  _atom_site_fract_y
  _atom_site_fract_z
  _atom_site_occupancy
  Cu  Cu1       1.0  0.22011  0.45127  0.41881  1.0000
  Cu  Cu2       1.0  0.77989  0.54873  0.58118  1.0000
  H   H1        1.0  0.36595  0.08546  0.45439  1.0000
  H   H2        1.0  0.63405  0.91454  0.54560  1.0000
  H   H3        1.0  0.21805  0.89894  0.35138  1.0000
  H   H4        1.0  0.78196  0.10105  0.64861  1.0000
  H   H5        1.0  0.87765  0.95573  0.29442  1.0000
  H   H6        1.0  0.12235  0.04427  0.70558  1.0000
  H   H7        1.0  0.05337  0.05152  0.12243  1.0000
  H   H8        1.0  0.94663  0.94848  0.87757  1.0000
  H   H9        1.0  0.88708  0.32486  0.08148  1.0000
  H   H10       1.0  0.11292  0.67513  0.91852  1.0000
  H   H11       1.0  0.70910  0.23165  0.25410  1.0000
  H   H12       1.0  0.29091  0.76834  0.74590  1.0000
  H   H13       1.0  0.80696  0.11681  0.99954  1.0000
  H   H14       1.0  0.19304  0.88319  0.00046  1.0000
  H   H15       1.0  0.62186  0.03101  0.16900  1.0000
  H   H16       1.0  0.37813  0.96900  0.83100  1.0000
  H   H17       1.0  0.65460  0.39536  0.94478  1.0000
  H   H18       1.0  0.34540  0.60464  0.05523  1.0000
  H   H19       1.0  0.46756  0.31238  0.11222  1.0000
  H   H20       1.0  0.53244  0.68762  0.88778  1.0000
  H   H21       1.0  0.57093  0.19551  0.85907  1.0000
  H   H22       1.0  0.42907  0.80449  0.14093  1.0000
  H   H23       1.0  0.38663  0.10641  0.02665  1.0000
  H   H24       1.0  0.61337  0.89360  0.97335  1.0000
  H   H25       1.0  0.96175  0.37464  0.26496  1.0000
  H   H26       1.0  0.03826  0.62536  0.73505  1.0000
  H   H27       1.0  0.22219  0.38445  0.97427  1.0000
  H   H28       1.0  0.77781  0.61555  0.02573  1.0000
  H   H29       1.0  0.25716  0.31456  0.83169  1.0000
  H   H30       1.0  0.74284  0.68544  0.16831  1.0000
  H   H31       1.0  0.40815  0.47413  0.80688  1.0000
  H   H32       1.0  0.59185  0.52587  0.19312  1.0000
  C   C1        1.0  0.26048  0.11708  0.39914  1.0000
  C   C2        1.0  0.73952  0.88291  0.60086  1.0000
  C   C3        1.0  0.18980  0.02520  0.34719  1.0000
  C   C4        1.0  0.81020  0.97480  0.65280  1.0000
  C   C5        1.0  0.95059  0.07587  0.21493  1.0000
  C   C6        1.0  0.04941  0.92412  0.78507  1.0000
  C   C7        1.0  0.81074  0.20589  0.16161  1.0000
  C   C8        1.0  0.18925  0.79411  0.83839  1.0000
  C   C9        1.0  0.70352  0.14742  0.08864  1.0000
  C   C10       1.0  0.29648  0.85258  0.91136  1.0000
  C   C11       1.0  0.57105  0.27976  0.02447  1.0000
  C   C12       1.0  0.42895  0.72024  0.97553  1.0000
  C   C13       1.0  0.46599  0.22443  0.94851  1.0000
  C   C14       1.0  0.53402  0.77557  0.05149  1.0000
  C   C15       1.0  0.05276  0.27190  0.30070  1.0000
  C   C16       1.0  0.94723  0.72810  0.69930  1.0000
  C   C17       1.0  0.33117  0.35561  0.88674  1.0000
  C   C18       1.0  0.66883  0.64439  0.11326  1.0000
  C   C19       1.0  0.53224  0.41027  0.51307  1.0000
  C   C20       1.0  0.46776  0.58973  0.48693  1.0000
  N   N1        1.0  0.17390  0.27084  0.36943  1.0000
  N   N2        1.0  0.82610  0.72916  0.63057  1.0000
  N   N3        1.0  0.05947  0.12511  0.28510  1.0000
  N   N4        1.0  0.94053  0.87489  0.71490  1.0000
  Cl  Cl1       1.0  0.02522  0.63934  0.30995  1.0000
  Cl  Cl2       1.0  0.97477  0.36067  0.69005  1.0000
  O   O1        1.0  0.43993  0.32007  0.48743  1.0000
  O   O2        1.0  0.56008  0.67992  0.51257  1.0000
  O   O3        1.0  0.67404  0.36438  0.55825  1.0000
  O   O4        1.0  0.32596  0.63563  0.44175  1.0000
