data_image0
_chemical_formula_structural       Cd2H32C32S4N8O14
_chemical_formula_sum              "Cd2 H32 C32 S4 N8 O14"
_cell_length_a       8.32763
_cell_length_b       10.1313
_cell_length_c       12.6644
_cell_angle_alpha    100.942
_cell_angle_beta     99.3097
_cell_angle_gamma    106.842

_space_group_name_H-M_alt    "P 1"
_space_group_IT_number       1

loop_
  _space_group_symop_operation_xyz
  'x, y, z'

loop_
  _atom_site_type_symbol
  _atom_site_label
  _atom_site_symmetry_multiplicity
  _atom_site_fract_x
  _atom_site_fract_y
  _atom_site_fract_z
  _atom_site_occupancy
  Cd  Cd1       1.0  0.57194  0.56121  0.21991  1.0000
  Cd  Cd2       1.0  0.42807  0.43879  0.78009  1.0000
  H   H1        1.0  0.96736  0.23569  0.22475  1.0000
  H   H2        1.0  0.03264  0.76431  0.77524  1.0000
  H   H3        1.0  0.05375  0.77146  0.21663  1.0000
  H   H4        1.0  0.94626  0.22855  0.78337  1.0000
  H   H5        1.0  0.28663  0.32157  0.21407  1.0000
  H   H6        1.0  0.71337  0.67843  0.78593  1.0000
  H   H7        1.0  0.35575  0.37544  0.34744  1.0000
  H   H8        1.0  0.64424  0.62456  0.65256  1.0000
  H   H9        1.0  0.32525  0.12300  0.77225  1.0000
  H   H10       1.0  0.67475  0.87700  0.22775  1.0000
  H   H11       1.0  0.49425  0.96925  0.71183  1.0000
  H   H12       1.0  0.50576  0.03076  0.28816  1.0000
  H   H13       1.0  0.63936  0.86696  0.84249  1.0000
  H   H14       1.0  0.36064  0.13304  0.15751  1.0000
  H   H15       1.0  0.83732  0.03201  0.47626  1.0000
  H   H16       1.0  0.16267  0.96799  0.52374  1.0000
  H   H17       1.0  0.84894  0.26521  0.44501  1.0000
  H   H18       1.0  0.15105  0.73479  0.55500  1.0000
  H   H19       1.0  0.39743  0.64438  0.54160  1.0000
  H   H20       1.0  0.60257  0.35562  0.45841  1.0000
  H   H21       1.0  0.70837  0.28180  0.11960  1.0000
  H   H22       1.0  0.29163  0.71821  0.88040  1.0000
  H   H23       1.0  0.12928  0.43359  0.39950  1.0000
  H   H24       1.0  0.87072  0.56640  0.60050  1.0000
  H   H25       1.0  0.94279  0.62295  0.40264  1.0000
  H   H26       1.0  0.05722  0.37705  0.59736  1.0000
  H   H27       1.0  0.31471  0.73900  0.33613  1.0000
  H   H28       1.0  0.68530  0.26099  0.66387  1.0000
  H   H29       1.0  0.02154  0.67589  0.01417  1.0000
  H   H30       1.0  0.97847  0.32412  0.98584  1.0000
  H   H31       1.0  0.28494  0.55686  0.00237  1.0000
  H   H32       1.0  0.71507  0.44315  0.99763  1.0000
  C   C1        1.0  0.37727  0.10889  0.94057  1.0000
  C   C2        1.0  0.62273  0.89111  0.05943  1.0000
  C   C3        1.0  0.38639  0.07672  0.83119  1.0000
  C   C4        1.0  0.61361  0.92328  0.16881  1.0000
  C   C5        1.0  0.48201  0.98921  0.79697  1.0000
  C   C6        1.0  0.51799  0.01079  0.20303  1.0000
  C   C7        1.0  0.56331  0.93158  0.87018  1.0000
  C   C8        1.0  0.43669  0.06842  0.12982  1.0000
  C   C9        1.0  0.45225  0.04552  0.01851  1.0000
  C   C10       1.0  0.54775  0.95448  0.98148  1.0000
  C   C11       1.0  0.55648  0.83601  0.51263  1.0000
  C   C12       1.0  0.44351  0.16398  0.48736  1.0000
  C   C13       1.0  0.57321  0.97587  0.49832  1.0000
  C   C14       1.0  0.42677  0.02413  0.50167  1.0000
  C   C15       1.0  0.72564  0.06666  0.47908  1.0000
  C   C16       1.0  0.27435  0.93334  0.52092  1.0000
  C   C17       1.0  0.73333  0.19879  0.46284  1.0000
  C   C18       1.0  0.26666  0.80121  0.53716  1.0000
  C   C19       1.0  0.40712  0.75087  0.53210  1.0000
  C   C20       1.0  0.59287  0.24913  0.46790  1.0000
  C   C21       1.0  0.79644  0.35023  0.19564  1.0000
  C   C22       1.0  0.20356  0.64978  0.80436  1.0000
  C   C23       1.0  0.01607  0.43251  0.34289  1.0000
  C   C24       1.0  0.98393  0.56749  0.65711  1.0000
  C   C25       1.0  0.92253  0.52389  0.34385  1.0000
  C   C26       1.0  0.07748  0.47611  0.65615  1.0000
  C   C27       1.0  0.27411  0.70581  0.24698  1.0000
  C   C28       1.0  0.72590  0.29419  0.75302  1.0000
  C   C29       1.0  0.12241  0.67020  0.07702  1.0000
  C   C30       1.0  0.87760  0.32981  0.92299  1.0000
  C   C31       1.0  0.25188  0.61242  0.07275  1.0000
  C   C32       1.0  0.74813  0.38758  0.92725  1.0000
  S   S1        1.0  0.30176  0.25439  0.98531  1.0000
  S   S2        1.0  0.69825  0.74561  0.01470  1.0000
  S   S3        1.0  0.72476  0.76250  0.49658  1.0000
  S   S4        1.0  0.27523  0.23750  0.50342  1.0000
  N   N1        1.0  0.78645  0.47160  0.25193  1.0000
  N   N2        1.0  0.21355  0.52841  0.74807  1.0000
  N   N3        1.0  0.93428  0.32387  0.24843  1.0000
  N   N4        1.0  0.06572  0.67613  0.75157  1.0000
  N   N5        1.0  0.34628  0.63593  0.17915  1.0000
  N   N6        1.0  0.65373  0.36407  0.82085  1.0000
  N   N7        1.0  0.13870  0.72793  0.18739  1.0000
  N   N8        1.0  0.86131  0.27208  0.81262  1.0000
  O   O1        1.0  0.46078  0.36794  0.05257  1.0000
  O   O2        1.0  0.53922  0.63207  0.94743  1.0000
  O   O3        1.0  0.23367  0.29022  0.88302  1.0000
  O   O4        1.0  0.76633  0.70978  0.11699  1.0000
  O   O5        1.0  0.17178  0.21452  0.04977  1.0000
  O   O6        1.0  0.82822  0.78548  0.95023  1.0000
  O   O7        1.0  0.73323  0.75328  0.37907  1.0000
  O   O8        1.0  0.26677  0.24672  0.62093  1.0000
  O   O9        1.0  0.66527  0.61940  0.51706  1.0000
  O   O10       1.0  0.33471  0.38059  0.48294  1.0000
  O   O11       1.0  0.88353  0.85762  0.57431  1.0000
  O   O12       1.0  0.11645  0.14238  0.42569  1.0000
  O   O13       1.0  0.38789  0.37215  0.27507  1.0000
  O   O14       1.0  0.61210  0.62785  0.72493  1.0000
