data_image0
_chemical_formula_structural       Cd4H24C28S8N16
_chemical_formula_sum              "Cd4 H24 C28 S8 N16"
_cell_length_a       5.85332
_cell_length_b       13.5701
_cell_length_c       14.1489
_cell_angle_alpha    87.4632
_cell_angle_beta     78.0739
_cell_angle_gamma    77.6159

_space_group_name_H-M_alt    "P 1"
_space_group_IT_number       1

loop_
  _space_group_symop_operation_xyz
  'x, y, z'

loop_
  _atom_site_type_symbol
  _atom_site_label
  _atom_site_symmetry_multiplicity
  _atom_site_fract_x
  _atom_site_fract_y
  _atom_site_fract_z
  _atom_site_occupancy
  Cd  Cd1       1.0  0.96362  0.97148  0.73902  1.0000
  Cd  Cd2       1.0  0.67481  0.02843  0.26128  1.0000
  Cd  Cd3       1.0  0.68516  0.52850  0.23872  1.0000
  Cd  Cd4       1.0  0.45395  0.47138  0.76105  1.0000
  H   H1        1.0  0.29679  0.37417  0.94172  1.0000
  H   H2        1.0  0.61271  0.62584  0.05808  1.0000
  H   H3        1.0  0.42004  0.12580  0.44179  1.0000
  H   H4        1.0  0.98944  0.87409  0.55830  1.0000
  H   H5        1.0  0.27612  0.30430  0.85071  1.0000
  H   H6        1.0  0.43130  0.69564  0.14908  1.0000
  H   H7        1.0  0.32976  0.19547  0.35071  1.0000
  H   H8        1.0  0.87769  0.80413  0.64920  1.0000
  H   H9        1.0  0.57977  0.16756  0.77743  1.0000
  H   H10       1.0  0.52553  0.83232  0.22261  1.0000
  H   H11       1.0  0.49666  0.33240  0.27745  1.0000
  H   H12       1.0  0.10814  0.66747  0.72261  1.0000
  H   H13       1.0  0.67825  0.34763  0.00429  1.0000
  H   H14       1.0  0.03023  0.65244  0.99577  1.0000
  H   H15       1.0  0.77511  0.15259  0.50422  1.0000
  H   H16       1.0  0.43333  0.84766  0.49589  1.0000
  H   H17       1.0  0.05326  0.22045  0.01235  1.0000
  H   H18       1.0  0.28622  0.77986  0.98772  1.0000
  H   H19       1.0  0.02318  0.28000  0.51218  1.0000
  H   H20       1.0  0.81623  0.72029  0.48763  1.0000
  H   H21       1.0  0.17195  0.06996  0.90157  1.0000
  H   H22       1.0  0.14416  0.93031  0.09849  1.0000
  H   H23       1.0  0.99158  0.43044  0.40135  1.0000
  H   H24       1.0  0.82415  0.56975  0.59828  1.0000
  C   C1        1.0  0.47076  0.87878  0.82350  1.0000
  C   C2        1.0  0.17394  0.12103  0.17674  1.0000
  C   C3        1.0  0.09982  0.62133  0.32314  1.0000
  C   C4        1.0  0.04555  0.37862  0.67677  1.0000
  C   C5        1.0  0.47454  0.05078  0.63332  1.0000
  C   C6        1.0  0.15886  0.94931  0.36698  1.0000
  C   C7        1.0  0.27509  0.44914  0.13305  1.0000
  C   C8        1.0  0.85917  0.55059  0.86677  1.0000
  C   C9        1.0  0.67863  0.18172  0.83122  1.0000
  C   C10       1.0  0.69216  0.81825  0.16883  1.0000
  C   C11       1.0  0.60971  0.31834  0.33118  1.0000
  C   C12       1.0  0.26073  0.68164  0.66882  1.0000
  C   C13       1.0  0.59805  0.26708  0.89052  1.0000
  C   C14       1.0  0.75590  0.73292  0.10947  1.0000
  C   C15       1.0  0.61438  0.23297  0.39051  1.0000
  C   C16       1.0  0.23939  0.76703  0.60956  1.0000
  C   C17       1.0  0.73555  0.28224  0.95654  1.0000
  C   C18       1.0  0.97453  0.71787  0.04348  1.0000
  C   C19       1.0  0.76703  0.21798  0.45646  1.0000
  C   C20       1.0  0.44293  0.78219  0.54355  1.0000
  C   C21       1.0  0.94432  0.21144  0.96079  1.0000
  C   C22       1.0  0.11688  0.78876  0.03926  1.0000
  C   C23       1.0  0.90521  0.28889  0.46065  1.0000
  C   C24       1.0  0.65582  0.71132  0.53921  1.0000
  C   C25       1.0  0.01138  0.12768  0.89990  1.0000
  C   C26       1.0  0.03953  0.87250  0.10016  1.0000
  C   C27       1.0  0.88864  0.37260  0.39976  1.0000
  C   C28       1.0  0.66199  0.62752  0.60003  1.0000
  S   S1        1.0  0.71154  0.85778  0.86858  1.0000
  S   S2        1.0  0.43931  0.14129  0.13111  1.0000
  S   S3        1.0  0.31957  0.64207  0.36846  1.0000
  S   S4        1.0  0.33118  0.35790  0.63135  1.0000
  S   S5        1.0  0.23337  0.06489  0.58926  1.0000
  S   S6        1.0  0.88734  0.93582  0.41133  1.0000
  S   S7        1.0  0.04792  0.43543  0.08881  1.0000
  S   S8        1.0  0.57408  0.56440  0.91088  1.0000
  N   N1        1.0  0.29468  0.89178  0.79191  1.0000
  N   N2        1.0  0.97894  0.10857  0.20877  1.0000
  N   N3        1.0  0.93677  0.60851  0.29135  1.0000
  N   N4        1.0  0.83799  0.39145  0.70863  1.0000
  N   N5        1.0  0.65056  0.04198  0.66438  1.0000
  N   N6        1.0  0.35746  0.95758  0.33569  1.0000
  N   N7        1.0  0.44237  0.45765  0.16428  1.0000
  N   N8        1.0  0.06615  0.54209  0.83564  1.0000
  N   N9        1.0  0.87873  0.11387  0.83638  1.0000
  N   N10       1.0  0.82970  0.88620  0.16371  1.0000
  N   N11       1.0  0.74205  0.38630  0.33627  1.0000
  N   N12       1.0  0.46599  0.61374  0.66359  1.0000
  N   N13       1.0  0.38950  0.33620  0.87939  1.0000
  N   N14       1.0  0.60508  0.66375  0.12047  1.0000
  N   N15       1.0  0.47488  0.16372  0.37943  1.0000
  N   N16       1.0  0.01964  0.83613  0.62065  1.0000
