data_image0
_chemical_formula_structural       Cd2H44C52N8O16
_chemical_formula_sum              "Cd2 H44 C52 N8 O16"
_cell_length_a       7.90634
_cell_length_b       12.4454
_cell_length_c       13.6496
_cell_angle_alpha    89.9996
_cell_angle_beta     102.579
_cell_angle_gamma    90.0004

_space_group_name_H-M_alt    "P 1"
_space_group_IT_number       1

loop_
  _space_group_symop_operation_xyz
  'x, y, z'

loop_
  _atom_site_type_symbol
  _atom_site_label
  _atom_site_symmetry_multiplicity
  _atom_site_fract_x
  _atom_site_fract_y
  _atom_site_fract_z
  _atom_site_occupancy
  Cd  Cd1       1.0  0.50000  0.00000  1.00000  1.0000
  Cd  Cd2       1.0  1.00000  0.50000  0.50000  1.0000
  H   H1        1.0  0.86718  0.90368  0.07776  1.0000
  H   H2        1.0  0.63282  0.40368  0.42224  1.0000
  H   H3        1.0  0.13283  0.09632  0.92224  1.0000
  H   H4        1.0  0.36717  0.59632  0.57776  1.0000
  H   H5        1.0  0.08262  0.78797  0.01678  1.0000
  H   H6        1.0  0.41737  0.28797  0.48322  1.0000
  H   H7        1.0  0.91738  0.21202  0.98321  1.0000
  H   H8        1.0  0.58262  0.71203  0.51678  1.0000
  H   H9        1.0  0.06768  0.77825  0.82960  1.0000
  H   H10       1.0  0.43231  0.27825  0.67039  1.0000
  H   H11       1.0  0.93232  0.22175  0.17039  1.0000
  H   H12       1.0  0.56768  0.72175  0.32960  1.0000
  H   H13       1.0  0.64517  0.00533  0.79038  1.0000
  H   H14       1.0  0.85482  0.50533  0.70962  1.0000
  H   H15       1.0  0.35483  0.99467  0.20962  1.0000
  H   H16       1.0  0.14518  0.49467  0.29038  1.0000
  H   H17       1.0  0.74522  0.83828  0.47904  1.0000
  H   H18       1.0  0.75479  0.33828  0.02096  1.0000
  H   H19       1.0  0.25479  0.16172  0.52096  1.0000
  H   H20       1.0  0.24522  0.66172  0.97904  1.0000
  H   H21       1.0  0.68993  0.88859  0.29887  1.0000
  H   H22       1.0  0.81008  0.38858  0.20113  1.0000
  H   H23       1.0  0.31008  0.11142  0.70113  1.0000
  H   H24       1.0  0.18992  0.61142  0.79887  1.0000
  H   H25       1.0  0.73739  0.22238  0.37899  1.0000
  H   H26       1.0  0.76260  0.72237  0.12101  1.0000
  H   H27       1.0  0.26260  0.77763  0.62101  1.0000
  H   H28       1.0  0.23740  0.27763  0.87899  1.0000
  H   H29       1.0  0.80374  0.17359  0.55908  1.0000
  H   H30       1.0  0.69626  0.67359  0.94092  1.0000
  H   H31       1.0  0.19626  0.82641  0.44092  1.0000
  H   H32       1.0  0.30375  0.32641  0.05908  1.0000
  H   H33       1.0  0.82629  0.04687  0.67917  1.0000
  H   H34       1.0  0.67370  0.54686  0.82083  1.0000
  H   H35       1.0  0.17371  0.95314  0.32083  1.0000
  H   H36       1.0  0.32630  0.45313  0.17917  1.0000
  H   H37       1.0  0.57485  0.19825  0.06944  1.0000
  H   H38       1.0  0.92515  0.69825  0.43056  1.0000
  H   H39       1.0  0.42515  0.80175  0.93056  1.0000
  H   H40       1.0  0.07485  0.30175  0.56944  1.0000
  H   H41       1.0  0.57013  0.22719  0.95121  1.0000
  H   H42       1.0  0.92987  0.72719  0.54879  1.0000
  H   H43       1.0  0.42987  0.77281  0.04879  1.0000
  H   H44       1.0  0.07012  0.27281  0.45121  1.0000
  C   C1        1.0  0.86955  0.89872  0.99815  1.0000
  C   C2        1.0  0.63045  0.39872  0.50185  1.0000
  C   C3        1.0  0.13045  0.10127  0.00185  1.0000
  C   C4        1.0  0.36955  0.60127  0.49815  1.0000
  C   C5        1.0  0.98762  0.83394  0.96326  1.0000
  C   C6        1.0  0.51237  0.33394  0.53674  1.0000
  C   C7        1.0  0.01238  0.16606  0.03674  1.0000
  C   C8        1.0  0.48762  0.66606  0.46326  1.0000
  C   C9        1.0  0.97937  0.82878  0.86044  1.0000
  C   C10       1.0  0.52062  0.32878  0.63956  1.0000
  C   C11       1.0  0.02063  0.17122  0.13956  1.0000
  C   C12       1.0  0.47937  0.67122  0.36044  1.0000
  C   C13       1.0  0.85793  0.89289  0.79590  1.0000
  C   C14       1.0  0.64206  0.39289  0.70410  1.0000
  C   C15       1.0  0.14207  0.10711  0.20410  1.0000
  C   C16       1.0  0.35793  0.60711  0.29590  1.0000
  C   C17       1.0  0.74613  0.95675  0.83760  1.0000
  C   C18       1.0  0.75386  0.45675  0.66241  1.0000
  C   C19       1.0  0.25387  0.04325  0.16241  1.0000
  C   C20       1.0  0.24613  0.54325  0.33760  1.0000
  C   C21       1.0  0.83817  0.88461  0.68459  1.0000
  C   C22       1.0  0.66183  0.38461  0.81541  1.0000
  C   C23       1.0  0.16183  0.11539  0.31540  1.0000
  C   C24       1.0  0.33817  0.61539  0.18460  1.0000
  C   C25       1.0  0.77599  0.00228  0.53125  1.0000
  C   C26       1.0  0.72401  0.50229  0.96875  1.0000
  C   C27       1.0  0.22401  0.99772  0.46875  1.0000
  C   C28       1.0  0.27599  0.49772  0.03125  1.0000
  C   C29       1.0  0.74326  0.92196  0.45743  1.0000
  C   C30       1.0  0.75676  0.42196  0.04257  1.0000
  C   C31       1.0  0.25675  0.07804  0.54257  1.0000
  C   C32       1.0  0.24325  0.57804  0.95743  1.0000
  C   C33       1.0  0.71067  0.95053  0.35671  1.0000
  C   C34       1.0  0.78933  0.45053  0.14329  1.0000
  C   C35       1.0  0.28933  0.04947  0.64329  1.0000
  C   C36       1.0  0.21067  0.54947  0.85671  1.0000
  C   C37       1.0  0.70640  0.05865  0.32726  1.0000
  C   C38       1.0  0.79360  0.55864  0.17274  1.0000
  C   C39       1.0  0.29361  0.94136  0.67274  1.0000
  C   C40       1.0  0.20640  0.44136  0.82726  1.0000
  C   C41       1.0  0.73768  0.13839  0.40135  1.0000
  C   C42       1.0  0.76232  0.63839  0.09865  1.0000
  C   C43       1.0  0.26232  0.86161  0.59865  1.0000
  C   C44       1.0  0.23768  0.36161  0.90135  1.0000
  C   C45       1.0  0.77381  0.11065  0.50234  1.0000
  C   C46       1.0  0.72619  0.61065  0.99766  1.0000
  C   C47       1.0  0.22619  0.88935  0.49766  1.0000
  C   C48       1.0  0.27382  0.38936  0.00234  1.0000
  C   C49       1.0  0.66803  0.08668  0.21771  1.0000
  C   C50       1.0  0.83196  0.58667  0.28229  1.0000
  C   C51       1.0  0.33197  0.91333  0.78229  1.0000
  C   C52       1.0  0.16803  0.41333  0.71771  1.0000
  N   N1        1.0  0.75002  0.95806  0.93628  1.0000
  N   N2        1.0  0.74998  0.45806  0.56372  1.0000
  N   N3        1.0  0.24998  0.04194  0.06372  1.0000
  N   N4        1.0  0.25002  0.54194  0.43628  1.0000
  N   N5        1.0  0.81126  0.98037  0.63485  1.0000
  N   N6        1.0  0.68874  0.48037  0.86515  1.0000
  N   N7        1.0  0.18874  0.01963  0.36515  1.0000
  N   N8        1.0  0.31127  0.51963  0.13485  1.0000
  O   O1        1.0  0.51391  0.18639  0.99703  1.0000
  O   O2        1.0  0.98608  0.68639  0.50297  1.0000
  O   O3        1.0  0.48608  0.81361  0.00297  1.0000
  O   O4        1.0  0.01391  0.31361  0.49703  1.0000
  O   O5        1.0  0.66370  0.00645  0.15806  1.0000
  O   O6        1.0  0.83630  0.50644  0.34194  1.0000
  O   O7        1.0  0.33630  0.99355  0.84194  1.0000
  O   O8        1.0  0.16370  0.49355  0.65806  1.0000
  O   O9        1.0  0.64157  0.18433  0.19179  1.0000
  O   O10       1.0  0.85843  0.68432  0.30821  1.0000
  O   O11       1.0  0.35843  0.81568  0.80821  1.0000
  O   O12       1.0  0.14157  0.31568  0.69179  1.0000
  O   O13       1.0  0.84324  0.79513  0.64449  1.0000
  O   O14       1.0  0.65675  0.29513  0.85551  1.0000
  O   O15       1.0  0.15675  0.20487  0.35551  1.0000
  O   O16       1.0  0.34324  0.70487  0.14449  1.0000
