data_image0
_chemical_formula_structural       Cd2H40C52N8O14
_chemical_formula_sum              "Cd2 H40 C52 N8 O14"
_cell_length_a       9.88834
_cell_length_b       11.3465
_cell_length_c       14.8545
_cell_angle_alpha    102.284
_cell_angle_beta     89.9946
_cell_angle_gamma    115.78

_space_group_name_H-M_alt    "P 1"
_space_group_IT_number       1

loop_
  _space_group_symop_operation_xyz
  'x, y, z'

loop_
  _atom_site_type_symbol
  _atom_site_label
  _atom_site_symmetry_multiplicity
  _atom_site_fract_x
  _atom_site_fract_y
  _atom_site_fract_z
  _atom_site_occupancy
  Cd  Cd1       1.0  0.89797  0.00021  0.25009  1.0000
  Cd  Cd2       1.0  0.10203  0.99980  0.74991  1.0000
  H   H1        1.0  0.66393  0.87102  0.07837  1.0000
  H   H2        1.0  0.79241  0.12864  0.42191  1.0000
  H   H3        1.0  0.33607  0.12899  0.92163  1.0000
  H   H4        1.0  0.20758  0.87135  0.57808  1.0000
  H   H5        1.0  0.79378  0.08952  0.86151  1.0000
  H   H6        1.0  0.70486  0.90983  0.63854  1.0000
  H   H7        1.0  0.20622  0.91050  0.13849  1.0000
  H   H8        1.0  0.29514  0.09017  0.36146  1.0000
  H   H9        1.0  0.04104  0.23969  0.95860  1.0000
  H   H10       1.0  0.80215  0.75990  0.54122  1.0000
  H   H11       1.0  0.95897  0.76032  0.04141  1.0000
  H   H12       1.0  0.19783  0.24009  0.45878  1.0000
  H   H13       1.0  0.08472  0.19499  0.11236  1.0000
  H   H14       1.0  0.89037  0.80493  0.38741  1.0000
  H   H15       1.0  0.91527  0.80501  0.88765  1.0000
  H   H16       1.0  0.10962  0.19506  0.61258  1.0000
  H   H17       1.0  0.40938  0.48854  0.87258  1.0000
  H   H18       1.0  0.92033  0.51109  0.62766  1.0000
  H   H19       1.0  0.59062  0.51147  0.12742  1.0000
  H   H20       1.0  0.07968  0.48889  0.37233  1.0000
  H   H21       1.0  0.94566  0.36096  0.78044  1.0000
  H   H22       1.0  0.58418  0.63919  0.71966  1.0000
  H   H23       1.0  0.05434  0.63905  0.21956  1.0000
  H   H24       1.0  0.41586  0.36082  0.28035  1.0000
  H   H25       1.0  0.99168  0.60191  0.81157  1.0000
  H   H26       1.0  0.38950  0.39831  0.68848  1.0000
  H   H27       1.0  0.00831  0.39810  0.18843  1.0000
  H   H28       1.0  0.61052  0.60170  0.31153  1.0000
  H   H29       1.0  0.24607  0.78525  0.87121  1.0000
  H   H30       1.0  0.46063  0.21476  0.62907  1.0000
  H   H31       1.0  0.75393  0.21475  0.12878  1.0000
  H   H32       1.0  0.53937  0.78524  0.37093  1.0000
  H   H33       1.0  0.56034  0.71766  0.93887  1.0000
  H   H34       1.0  0.84205  0.28199  0.56118  1.0000
  H   H35       1.0  0.43965  0.28234  0.06113  1.0000
  H   H36       1.0  0.15795  0.71800  0.43881  1.0000
  H   H37       1.0  0.61324  0.03735  0.20961  1.0000
  H   H38       1.0  0.57652  0.96395  0.29043  1.0000
  H   H39       1.0  0.38676  0.96264  0.79039  1.0000
  H   H40       1.0  0.42347  0.03604  0.70957  1.0000
  C   C1        1.0  0.74400  0.94969  0.04758  1.0000
  C   C2        1.0  0.79418  0.04997  0.45260  1.0000
  C   C3        1.0  0.25600  0.05032  0.95242  1.0000
  C   C4        1.0  0.20581  0.95002  0.54739  1.0000
  C   C5        1.0  0.70993  0.96692  0.96147  1.0000
  C   C6        1.0  0.74304  0.03265  0.53874  1.0000
  C   C7        1.0  0.29007  0.03308  0.03853  1.0000
  C   C8        1.0  0.25695  0.96733  0.46125  1.0000
  C   C9        1.0  0.81698  0.07352  0.92846  1.0000
  C   C10       1.0  0.74389  0.92600  0.57160  1.0000
  C   C11       1.0  0.18302  0.92648  0.07155  1.0000
  C   C12       1.0  0.25610  0.07399  0.42840  1.0000
  C   C13       1.0  0.95406  0.15692  0.98225  1.0000
  C   C14       1.0  0.79775  0.84271  0.51768  1.0000
  C   C15       1.0  0.04595  0.84309  0.01776  1.0000
  C   C16       1.0  0.20224  0.15728  0.48232  1.0000
  C   C17       1.0  0.97925  0.13306  0.06744  1.0000
  C   C18       1.0  0.84671  0.86674  0.43249  1.0000
  C   C19       1.0  0.02075  0.86694  0.93256  1.0000
  C   C20       1.0  0.15328  0.13325  0.56751  1.0000
  C   C21       1.0  0.55696  0.88312  0.90950  1.0000
  C   C22       1.0  0.67399  0.11658  0.59100  1.0000
  C   C23       1.0  0.44305  0.11689  0.09050  1.0000
  C   C24       1.0  0.32600  0.88341  0.40900  1.0000
  C   C25       1.0  0.34515  0.65024  0.87641  1.0000
  C   C26       1.0  0.69457  0.34957  0.62399  1.0000
  C   C27       1.0  0.65484  0.34977  0.12359  1.0000
  C   C28       1.0  0.30543  0.65042  0.37600  1.0000
  C   C29       1.0  0.31869  0.51544  0.86024  1.0000
  C   C30       1.0  0.80281  0.48434  0.64006  1.0000
  C   C31       1.0  0.68130  0.48456  0.13976  1.0000
  C   C32       1.0  0.19720  0.51564  0.35994  1.0000
  C   C33       1.0  0.17517  0.41167  0.82534  1.0000
  C   C34       1.0  0.76306  0.58829  0.67487  1.0000
  C   C35       1.0  0.82482  0.58833  0.17465  1.0000
  C   C36       1.0  0.23697  0.41171  0.32514  1.0000
  C   C37       1.0  0.05671  0.44287  0.80785  1.0000
  C   C38       1.0  0.61340  0.55722  0.69226  1.0000
  C   C39       1.0  0.94329  0.55713  0.19215  1.0000
  C   C40       1.0  0.38662  0.44278  0.30774  1.0000
  C   C41       1.0  0.08317  0.57710  0.82533  1.0000
  C   C42       1.0  0.50574  0.42304  0.67479  1.0000
  C   C43       1.0  0.91683  0.42291  0.17467  1.0000
  C   C44       1.0  0.49428  0.57697  0.32522  1.0000
  C   C45       1.0  0.22630  0.68117  0.85895  1.0000
  C   C46       1.0  0.54488  0.31882  0.64138  1.0000
  C   C47       1.0  0.77369  0.31884  0.14105  1.0000
  C   C48       1.0  0.45512  0.68118  0.35863  1.0000
  C   C49       1.0  0.15086  0.26783  0.80417  1.0000
  C   C50       1.0  0.88240  0.73212  0.69596  1.0000
  C   C51       1.0  0.84914  0.73217  0.19582  1.0000
  C   C52       1.0  0.11762  0.26787  0.30403  1.0000
  N   N1        1.0  0.87575  0.03189  0.09962  1.0000
  N   N2        1.0  0.84402  0.96794  0.40042  1.0000
  N   N3        1.0  0.12425  0.96811  0.90038  1.0000
  N   N4        1.0  0.15598  0.03205  0.59957  1.0000
  N   N5        1.0  0.49210  0.75042  0.91212  1.0000
  N   N6        1.0  0.74136  0.24925  0.58822  1.0000
  N   N7        1.0  0.50790  0.24958  0.08788  1.0000
  N   N8        1.0  0.25863  0.75074  0.41178  1.0000
  O   O1        1.0  0.49606  0.93613  0.86973  1.0000
  O   O2        1.0  0.56061  0.06372  0.63114  1.0000
  O   O3        1.0  0.50394  0.06388  0.13028  1.0000
  O   O4        1.0  0.43938  0.93627  0.36885  1.0000
  O   O5        1.0  0.02392  0.17645  0.76127  1.0000
  O   O6        1.0  0.84689  0.82356  0.73900  1.0000
  O   O7        1.0  0.97607  0.82356  0.23872  1.0000
  O   O8        1.0  0.15313  0.17643  0.26100  1.0000
  O   O9        1.0  0.25738  0.24308  0.82824  1.0000
  O   O10       1.0  0.01351  0.75681  0.67164  1.0000
  O   O11       1.0  0.74262  0.75692  0.17175  1.0000
  O   O12       1.0  0.98652  0.24318  0.32836  1.0000
  O   O13       1.0  0.65551  0.00102  0.25024  1.0000
  O   O14       1.0  0.34449  0.99898  0.74977  1.0000
