data_image0
_chemical_formula_structural       Na4H40C20N44O4
_chemical_formula_sum              "Na4 H40 C20 N44 O4"
_cell_length_a       6.81739
_cell_length_b       8.35415
_cell_length_c       20.9725
_cell_angle_alpha    90
_cell_angle_beta     97.4274
_cell_angle_gamma    89.9997

_space_group_name_H-M_alt    "P 1"
_space_group_IT_number       1

loop_
  _space_group_symop_operation_xyz
  'x, y, z'

loop_
  _atom_site_type_symbol
  _atom_site_label
  _atom_site_symmetry_multiplicity
  _atom_site_fract_x
  _atom_site_fract_y
  _atom_site_fract_z
  _atom_site_occupancy
  Na  Na1       1.0  0.01137  0.12750  0.60474  1.0000
  Na  Na2       1.0  0.98863  0.62749  0.89526  1.0000
  Na  Na3       1.0  0.98863  0.87251  0.39526  1.0000
  Na  Na4       1.0  0.01137  0.37250  0.10475  1.0000
  H   H1        1.0  0.54676  0.54462  0.81356  1.0000
  H   H2        1.0  0.45324  0.04462  0.68643  1.0000
  H   H3        1.0  0.45324  0.45538  0.18644  1.0000
  H   H4        1.0  0.54675  0.95538  0.31357  1.0000
  H   H5        1.0  0.49466  0.56584  0.72775  1.0000
  H   H6        1.0  0.50534  0.06584  0.77225  1.0000
  H   H7        1.0  0.50534  0.43416  0.27225  1.0000
  H   H8        1.0  0.49466  0.93416  0.22775  1.0000
  H   H9        1.0  0.67307  0.69486  0.77241  1.0000
  H   H10       1.0  0.32694  0.19486  0.72759  1.0000
  H   H11       1.0  0.32694  0.30514  0.22759  1.0000
  H   H12       1.0  0.67306  0.80514  0.27242  1.0000
  H   H13       1.0  0.21038  0.25991  0.46055  1.0000
  H   H14       1.0  0.78961  0.75990  0.03944  1.0000
  H   H15       1.0  0.78961  0.74009  0.53944  1.0000
  H   H16       1.0  0.21039  0.24009  0.96056  1.0000
  H   H17       1.0  0.26082  0.23141  0.37906  1.0000
  H   H18       1.0  0.73919  0.73140  0.12093  1.0000
  H   H19       1.0  0.73918  0.76859  0.62094  1.0000
  H   H20       1.0  0.26082  0.26859  0.87907  1.0000
  H   H21       1.0  0.34985  0.40616  0.42299  1.0000
  H   H22       1.0  0.65016  0.90615  0.07700  1.0000
  H   H23       1.0  0.65015  0.59384  0.57701  1.0000
  H   H24       1.0  0.34985  0.09385  0.92299  1.0000
  H   H25       1.0  0.02106  0.52483  0.62127  1.0000
  H   H26       1.0  0.97894  0.02483  0.87873  1.0000
  H   H27       1.0  0.97895  0.47517  0.37874  1.0000
  H   H28       1.0  0.02105  0.97517  0.12127  1.0000
  H   H29       1.0  0.12155  0.59428  0.55178  1.0000
  H   H30       1.0  0.87844  0.09427  0.94822  1.0000
  H   H31       1.0  0.87845  0.40573  0.44822  1.0000
  H   H32       1.0  0.12155  0.90573  0.05178  1.0000
  H   H33       1.0  0.28003  0.56023  0.62592  1.0000
  H   H34       1.0  0.71996  0.06023  0.87409  1.0000
  H   H35       1.0  0.71997  0.43977  0.37409  1.0000
  H   H36       1.0  0.28003  0.93977  0.12591  1.0000
  H   H37       1.0  0.31281  0.33782  0.56895  1.0000
  H   H38       1.0  0.68719  0.83782  0.93105  1.0000
  H   H39       1.0  0.68720  0.66219  0.43105  1.0000
  H   H40       1.0  0.31280  0.16218  0.06895  1.0000
  C   C1        1.0  0.60887  0.57431  0.76940  1.0000
  C   C2        1.0  0.39113  0.07431  0.73060  1.0000
  C   C3        1.0  0.39113  0.42569  0.23060  1.0000
  C   C4        1.0  0.60887  0.92569  0.26940  1.0000
  C   C5        1.0  0.61014  0.19833  0.50798  1.0000
  C   C6        1.0  0.38985  0.69834  0.99202  1.0000
  C   C7        1.0  0.38985  0.80167  0.49202  1.0000
  C   C8        1.0  0.61015  0.30166  0.00798  1.0000
  C   C9        1.0  0.78198  0.36794  0.70757  1.0000
  C   C10       1.0  0.21802  0.86794  0.79243  1.0000
  C   C11       1.0  0.21802  0.63206  0.29243  1.0000
  C   C12       1.0  0.78198  0.13205  0.20757  1.0000
  C   C13       1.0  0.31796  0.27812  0.42666  1.0000
  C   C14       1.0  0.68205  0.77811  0.07334  1.0000
  C   C15       1.0  0.68204  0.72188  0.57334  1.0000
  C   C16       1.0  0.31795  0.22188  0.92666  1.0000
  C   C17       1.0  0.14884  0.51670  0.59458  1.0000
  C   C18       1.0  0.85115  0.01670  0.90542  1.0000
  C   C19       1.0  0.85116  0.48330  0.40543  1.0000
  C   C20       1.0  0.14884  0.98330  0.09458  1.0000
  N   N1        1.0  0.49963  0.19380  0.44931  1.0000
  N   N2        1.0  0.50037  0.69380  0.05069  1.0000
  N   N3        1.0  0.50037  0.80620  0.55070  1.0000
  N   N4        1.0  0.49963  0.30620  0.94931  1.0000
  N   N5        1.0  0.68940  0.28408  0.60814  1.0000
  N   N6        1.0  0.31059  0.78408  0.89186  1.0000
  N   N7        1.0  0.31060  0.71592  0.39186  1.0000
  N   N8        1.0  0.68940  0.21592  0.10814  1.0000
  N   N9        1.0  0.64051  0.37170  0.65485  1.0000
  N   N10       1.0  0.35950  0.87170  0.84515  1.0000
  N   N11       1.0  0.35950  0.62830  0.34515  1.0000
  N   N12       1.0  0.64050  0.12829  0.15485  1.0000
  N   N13       1.0  0.76193  0.45889  0.76002  1.0000
  N   N14       1.0  0.23808  0.95890  0.73998  1.0000
  N   N15       1.0  0.23808  0.54111  0.23998  1.0000
  N   N16       1.0  0.76192  0.04110  0.26002  1.0000
  N   N17       1.0  0.55650  0.28964  0.55694  1.0000
  N   N18       1.0  0.44350  0.78964  0.94306  1.0000
  N   N19       1.0  0.44350  0.71036  0.44306  1.0000
  N   N20       1.0  0.55650  0.21035  0.05694  1.0000
  N   N21       1.0  0.95196  0.28511  0.71983  1.0000
  N   N22       1.0  0.04804  0.78511  0.78017  1.0000
  N   N23       1.0  0.04804  0.71489  0.28017  1.0000
  N   N24       1.0  0.95196  0.21488  0.21983  1.0000
  N   N25       1.0  0.58993  0.09643  0.41075  1.0000
  N   N26       1.0  0.41007  0.59642  0.08925  1.0000
  N   N27       1.0  0.41007  0.90358  0.58925  1.0000
  N   N28       1.0  0.58993  0.40358  0.91075  1.0000
  N   N29       1.0  0.03141  0.32753  0.77987  1.0000
  N   N30       1.0  0.96859  0.82754  0.72013  1.0000
  N   N31       1.0  0.96859  0.67247  0.22013  1.0000
  N   N32       1.0  0.03141  0.17247  0.27987  1.0000
  N   N33       1.0  0.74917  0.04307  0.44536  1.0000
  N   N34       1.0  0.25083  0.54307  0.05464  1.0000
  N   N35       1.0  0.25083  0.95693  0.55464  1.0000
  N   N36       1.0  0.74917  0.45693  0.94536  1.0000
  N   N37       1.0  0.91988  0.43169  0.80467  1.0000
  N   N38       1.0  0.08012  0.93169  0.69533  1.0000
  N   N39       1.0  0.08012  0.56831  0.19533  1.0000
  N   N40       1.0  0.91988  0.06831  0.30467  1.0000
  N   N41       1.0  0.76758  0.10225  0.50586  1.0000
  N   N42       1.0  0.23241  0.60225  0.99414  1.0000
  N   N43       1.0  0.23242  0.89775  0.49414  1.0000
  N   N44       1.0  0.76759  0.39775  0.00586  1.0000
  O   O1        1.0  0.17264  0.35358  0.57709  1.0000
  O   O2        1.0  0.82735  0.85358  0.92291  1.0000
  O   O3        1.0  0.82736  0.64643  0.42292  1.0000
  O   O4        1.0  0.17264  0.14643  0.07709  1.0000
