data_image0
_chemical_formula_structural       Cu2H18C24S2N6Cl4
_chemical_formula_sum              "Cu2 H18 C24 S2 N6 Cl4"
_cell_length_a       7.00317
_cell_length_b       8.61216
_cell_length_c       11.9319
_cell_angle_alpha    104.761
_cell_angle_beta     99.5281
_cell_angle_gamma    111.031

_space_group_name_H-M_alt    "P 1"
_space_group_IT_number       1

loop_
  _space_group_symop_operation_xyz
  'x, y, z'

loop_
  _atom_site_type_symbol
  _atom_site_label
  _atom_site_symmetry_multiplicity
  _atom_site_fract_x
  _atom_site_fract_y
  _atom_site_fract_z
  _atom_site_occupancy
  Cu  Cu1       1.0  0.35653  0.83493  0.83645  1.0000
  Cu  Cu2       1.0  0.01979  0.99892  0.16356  1.0000
  H   H1        1.0  0.10406  0.52064  0.59383  1.0000
  H   H2        1.0  0.01145  0.92716  0.40613  1.0000
  H   H3        1.0  0.90962  0.19154  0.53714  1.0000
  H   H4        1.0  0.87068  0.65475  0.46252  1.0000
  H   H5        1.0  0.91704  0.05881  0.70329  1.0000
  H   H6        1.0  0.71332  0.35602  0.29668  1.0000
  H   H7        1.0  0.12374  0.25389  0.91275  1.0000
  H   H8        1.0  0.71184  0.34164  0.08740  1.0000
  H   H9        1.0  0.30718  0.43898  0.07254  1.0000
  H   H10       1.0  0.73541  0.36728  0.92772  1.0000
  H   H11       1.0  0.26436  0.47415  0.26670  1.0000
  H   H12       1.0  0.49874  0.20790  0.73345  1.0000
  H   H13       1.0  0.33353  0.67900  0.47391  1.0000
  H   H14       1.0  0.36060  0.20502  0.52585  1.0000
  H   H15       1.0  0.50830  0.00226  0.52285  1.0000
  H   H16       1.0  0.48574  0.47911  0.47663  1.0000
  H   H17       1.0  0.61357  0.12706  0.36310  1.0000
  H   H18       1.0  0.74991  0.76411  0.63647  1.0000
  C   C1        1.0  0.10647  0.45561  0.66104  1.0000
  C   C2        1.0  0.94625  0.79494  0.33893  1.0000
  C   C3        1.0  0.99644  0.27288  0.63104  1.0000
  C   C4        1.0  0.86499  0.64225  0.36880  1.0000
  C   C5        1.0  0.00297  0.20005  0.72220  1.0000
  C   C6        1.0  0.78086  0.47831  0.27780  1.0000
  C   C7        1.0  0.12021  0.31042  0.84076  1.0000
  C   C8        1.0  0.78031  0.47016  0.15936  1.0000
  C   C9        1.0  0.22656  0.49141  0.86355  1.0000
  C   C10       1.0  0.86387  0.62838  0.13659  1.0000
  C   C11       1.0  0.34947  0.62377  0.98489  1.0000
  C   C12       1.0  0.86502  0.63955  0.01520  1.0000
  C   C13       1.0  0.40855  0.68699  0.20086  1.0000
  C   C14       1.0  0.70782  0.48669  0.79924  1.0000
  C   C15       1.0  0.34460  0.61724  0.28901  1.0000
  C   C16       1.0  0.55604  0.32865  0.71102  1.0000
  C   C17       1.0  0.38412  0.73198  0.40483  1.0000
  C   C18       1.0  0.47976  0.32731  0.59501  1.0000
  C   C19       1.0  0.48161  0.91486  0.43237  1.0000
  C   C20       1.0  0.54934  0.48259  0.56737  1.0000
  C   C21       1.0  0.53954  0.98461  0.34324  1.0000
  C   C22       1.0  0.69590  0.64167  0.65660  1.0000
  C   C23       1.0  0.50818  0.87100  0.22815  1.0000
  C   C24       1.0  0.77983  0.64340  0.77187  1.0000
  S   S1        1.0  0.60385  0.95734  0.11923  1.0000
  S   S2        1.0  0.98473  0.83860  0.88082  1.0000
  N   N1        1.0  0.21880  0.56206  0.77427  1.0000
  N   N2        1.0  0.94565  0.78822  0.22577  1.0000
  N   N3        1.0  0.43363  0.78991  0.99024  1.0000
  N   N4        1.0  0.94358  0.80032  0.00983  1.0000
  N   N5        1.0  0.36404  0.57192  0.08300  1.0000
  N   N6        1.0  0.78165  0.48968  0.91718  1.0000
  Cl  Cl1       1.0  0.21616  0.87320  0.66854  1.0000
  Cl  Cl2       1.0  0.04822  0.20469  0.33185  1.0000
  Cl  Cl3       1.0  0.66448  0.08877  0.90110  1.0000
  Cl  Cl4       1.0  0.26413  0.18793  0.09943  1.0000
