data_image0
_chemical_formula_structural       CoH30C38N2O12
_chemical_formula_sum              "Co1 H30 C38 N2 O12"
_cell_length_a       7.87834
_cell_length_b       10.0269
_cell_length_c       10.2436
_cell_angle_alpha    91.3646
_cell_angle_beta     99.6358
_cell_angle_gamma    92.2713

_space_group_name_H-M_alt    "P 1"
_space_group_IT_number       1

loop_
  _space_group_symop_operation_xyz
  'x, y, z'

loop_
  _atom_site_type_symbol
  _atom_site_label
  _atom_site_symmetry_multiplicity
  _atom_site_fract_x
  _atom_site_fract_y
  _atom_site_fract_z
  _atom_site_occupancy
  Co  Co1       1.0  0.49999  0.50000  0.50000  1.0000
  H   H1        1.0  0.34975  0.61406  0.68315  1.0000
  H   H2        1.0  0.65024  0.38594  0.31684  1.0000
  H   H3        1.0  0.52658  0.54124  0.73167  1.0000
  H   H4        1.0  0.47341  0.45876  0.26832  1.0000
  H   H5        1.0  0.37311  0.63004  0.05227  1.0000
  H   H6        1.0  0.62689  0.36996  0.94772  1.0000
  H   H7        1.0  0.97260  0.40027  0.54386  1.0000
  H   H8        1.0  0.02739  0.59974  0.45615  1.0000
  H   H9        1.0  0.83830  0.17978  0.56825  1.0000
  H   H10       1.0  0.16169  0.82023  0.43176  1.0000
  H   H11       1.0  0.23536  0.00755  0.37742  1.0000
  H   H12       1.0  0.76464  0.99245  0.62261  1.0000
  H   H13       1.0  0.34630  0.23806  0.35276  1.0000
  H   H14       1.0  0.65369  0.76194  0.64725  1.0000
  H   H15       1.0  0.62496  0.88084  0.37578  1.0000
  H   H16       1.0  0.37504  0.11916  0.62421  1.0000
  H   H17       1.0  0.65026  0.10886  0.28627  1.0000
  H   H18       1.0  0.34974  0.89114  0.71373  1.0000
  H   H19       1.0  0.43080  0.17570  0.09779  1.0000
  H   H20       1.0  0.56919  0.82431  0.90221  1.0000
  H   H21       1.0  0.18561  0.02055  0.00605  1.0000
  H   H22       1.0  0.81439  0.97945  0.99395  1.0000
  H   H23       1.0  0.89974  0.57644  0.82526  1.0000
  H   H24       1.0  0.10026  0.42356  0.17473  1.0000
  H   H25       1.0  0.66082  0.59875  0.95400  1.0000
  H   H26       1.0  0.33919  0.40125  0.04599  1.0000
  H   H27       1.0  0.70760  0.73536  0.16358  1.0000
  H   H28       1.0  0.29242  0.26463  0.83642  1.0000
  H   H29       1.0  0.98757  0.85628  0.23805  1.0000
  H   H30       1.0  0.01245  0.14370  0.76195  1.0000
  C   C1        1.0  0.02795  0.30926  0.51313  1.0000
  C   C2        1.0  0.97204  0.69075  0.48687  1.0000
  C   C3        1.0  0.95640  0.18410  0.52622  1.0000
  C   C4        1.0  0.04359  0.81590  0.47379  1.0000
  C   C5        1.0  0.03104  0.06642  0.48631  1.0000
  C   C6        1.0  0.96895  0.93358  0.51371  1.0000
  C   C7        1.0  0.17165  0.08944  0.41803  1.0000
  C   C8        1.0  0.82835  0.91056  0.58198  1.0000
  C   C9        1.0  0.23686  0.21609  0.40167  1.0000
  C   C10       1.0  0.76314  0.78391  0.59834  1.0000
  C   C11       1.0  0.40681  0.68116  0.28423  1.0000
  C   C12       1.0  0.59319  0.31884  0.71576  1.0000
  C   C13       1.0  0.39636  0.82145  0.23856  1.0000
  C   C14       1.0  0.60365  0.17855  0.76143  1.0000
  C   C15       1.0  0.53024  0.91253  0.29398  1.0000
  C   C16       1.0  0.46977  0.08747  0.70602  1.0000
  C   C17       1.0  0.54426  0.03953  0.24373  1.0000
  C   C18       1.0  0.45574  0.96048  0.75628  1.0000
  C   C19       1.0  0.42136  0.07695  0.13815  1.0000
  C   C20       1.0  0.57863  0.92305  0.86185  1.0000
  C   C21       1.0  0.28446  0.98859  0.08536  1.0000
  C   C22       1.0  0.71554  0.01141  0.91464  1.0000
  C   C23       1.0  0.26968  0.85965  0.13323  1.0000
  C   C24       1.0  0.73032  0.14035  0.86676  1.0000
  C   C25       1.0  0.10921  0.77680  0.08202  1.0000
  C   C26       1.0  0.89080  0.22319  0.91798  1.0000
  C   C27       1.0  0.08162  0.69744  0.96407  1.0000
  C   C28       1.0  0.91839  0.30256  0.03592  1.0000
  C   C29       1.0  0.21989  0.66986  0.88594  1.0000
  C   C30       1.0  0.78011  0.33014  0.11404  1.0000
  C   C31       1.0  0.91908  0.63612  0.91733  1.0000
  C   C32       1.0  0.08092  0.36388  0.08267  1.0000
  C   C33       1.0  0.78576  0.64761  0.98969  1.0000
  C   C34       1.0  0.21425  0.35239  0.01030  1.0000
  C   C35       1.0  0.81206  0.72415  0.10718  1.0000
  C   C36       1.0  0.18796  0.27584  0.89281  1.0000
  C   C37       1.0  0.97077  0.79064  0.15041  1.0000
  C   C38       1.0  0.02924  0.20935  0.84959  1.0000
  N   N1        1.0  0.17036  0.32570  0.45363  1.0000
  N   N2        1.0  0.82963  0.67430  0.54638  1.0000
  O   O1        1.0  0.46614  0.59736  0.65988  1.0000
  O   O2        1.0  0.53385  0.40263  0.34011  1.0000
  O   O3        1.0  0.23766  0.44758  0.44157  1.0000
  O   O4        1.0  0.76233  0.55242  0.55842  1.0000
  O   O5        1.0  0.44989  0.66386  0.40834  1.0000
  O   O6        1.0  0.55010  0.33613  0.59165  1.0000
  O   O7        1.0  0.38315  0.58780  0.19479  1.0000
  O   O8        1.0  0.61685  0.41220  0.80520  1.0000
  O   O9        1.0  0.37478  0.64603  0.95261  1.0000
  O   O10       1.0  0.62523  0.35398  0.04738  1.0000
  O   O11       1.0  0.19189  0.66535  0.76307  1.0000
  O   O12       1.0  0.80811  0.33465  0.23692  1.0000
