data_image0
_chemical_formula_structural       Mg4H28C28N4O28
_chemical_formula_sum              "Mg4 H28 C28 N4 O28"
_cell_length_a       4.7221
_cell_length_b       8.66329
_cell_length_c       20.8073
_cell_angle_alpha    90.0001
_cell_angle_beta     89.9999
_cell_angle_gamma    91.3529

_space_group_name_H-M_alt    "P 1"
_space_group_IT_number       1

loop_
  _space_group_symop_operation_xyz
  'x, y, z'

loop_
  _atom_site_type_symbol
  _atom_site_label
  _atom_site_symmetry_multiplicity
  _atom_site_fract_x
  _atom_site_fract_y
  _atom_site_fract_z
  _atom_site_occupancy
  Mg  Mg1       1.0  0.68845  0.31716  0.37824  1.0000
  Mg  Mg2       1.0  0.31155  0.18284  0.87824  1.0000
  Mg  Mg3       1.0  0.31155  0.68284  0.62176  1.0000
  Mg  Mg4       1.0  0.68845  0.81716  0.12176  1.0000
  H   H1        1.0  0.44158  0.22824  0.26809  1.0000
  H   H2        1.0  0.55843  0.27176  0.76809  1.0000
  H   H3        1.0  0.55843  0.77176  0.73191  1.0000
  H   H4        1.0  0.44157  0.72824  0.23191  1.0000
  H   H5        1.0  0.20471  0.19766  0.32330  1.0000
  H   H6        1.0  0.79529  0.30234  0.82330  1.0000
  H   H7        1.0  0.79529  0.80235  0.67670  1.0000
  H   H8        1.0  0.20471  0.69766  0.17670  1.0000
  H   H9        1.0  0.09786  0.41201  0.29703  1.0000
  H   H10       1.0  0.90214  0.08799  0.79703  1.0000
  H   H11       1.0  0.90214  0.58799  0.70297  1.0000
  H   H12       1.0  0.09786  0.91201  0.20297  1.0000
  H   H13       1.0  0.81829  0.52361  0.29161  1.0000
  H   H14       1.0  0.18171  0.97639  0.79161  1.0000
  H   H15       1.0  0.18170  0.47639  0.70839  1.0000
  H   H16       1.0  0.81829  0.02361  0.20839  1.0000
  H   H17       1.0  0.17506  0.60640  0.45697  1.0000
  H   H18       1.0  0.82494  0.89360  0.95697  1.0000
  H   H19       1.0  0.82494  0.39360  0.54303  1.0000
  H   H20       1.0  0.17506  0.10640  0.04303  1.0000
  H   H21       1.0  0.66001  0.99405  0.45837  1.0000
  H   H22       1.0  0.33999  0.50595  0.95837  1.0000
  H   H23       1.0  0.33999  0.00595  0.54163  1.0000
  H   H24       1.0  0.66001  0.49405  0.04163  1.0000
  H   H25       1.0  0.28023  0.92136  0.30754  1.0000
  H   H26       1.0  0.71977  0.57864  0.80754  1.0000
  H   H27       1.0  0.71977  0.07864  0.69246  1.0000
  H   H28       1.0  0.28023  0.42136  0.19246  1.0000
  C   C1        1.0  0.80433  0.72977  0.52804  1.0000
  C   C2        1.0  0.19567  0.77023  0.02804  1.0000
  C   C3        1.0  0.19567  0.27023  0.47196  1.0000
  C   C4        1.0  0.80433  0.22977  0.97196  1.0000
  C   C5        1.0  0.90864  0.79097  0.46395  1.0000
  C   C6        1.0  0.09136  0.70903  0.96395  1.0000
  C   C7        1.0  0.09136  0.20903  0.53605  1.0000
  C   C8        1.0  0.90864  0.29097  0.03605  1.0000
  C   C9        1.0  0.82342  0.92597  0.43581  1.0000
  C   C10       1.0  0.17658  0.57404  0.93581  1.0000
  C   C11       1.0  0.17658  0.07403  0.56419  1.0000
  C   C12       1.0  0.82341  0.42596  0.06419  1.0000
  C   C13       1.0  0.96047  0.98278  0.37885  1.0000
  C   C14       1.0  0.03953  0.51722  0.87885  1.0000
  C   C15       1.0  0.03953  0.01722  0.62115  1.0000
  C   C16       1.0  0.96047  0.48278  0.12115  1.0000
  C   C17       1.0  0.46032  0.64023  0.35671  1.0000
  C   C18       1.0  0.53968  0.85977  0.85671  1.0000
  C   C19       1.0  0.53968  0.35977  0.64329  1.0000
  C   C20       1.0  0.46032  0.14023  0.14329  1.0000
  C   C21       1.0  0.24081  0.75042  0.38056  1.0000
  C   C22       1.0  0.75919  0.74958  0.88056  1.0000
  C   C23       1.0  0.75919  0.24958  0.61944  1.0000
  C   C24       1.0  0.24081  0.25042  0.11944  1.0000
  C   C25       1.0  0.17025  0.88630  0.35125  1.0000
  C   C26       1.0  0.82975  0.61370  0.85125  1.0000
  C   C27       1.0  0.82975  0.11370  0.64875  1.0000
  C   C28       1.0  0.17025  0.38630  0.14875  1.0000
  N   N1        1.0  0.11406  0.70781  0.43625  1.0000
  N   N2        1.0  0.88594  0.79219  0.93625  1.0000
  N   N3        1.0  0.88594  0.29219  0.56375  1.0000
  N   N4        1.0  0.11406  0.20781  0.06375  1.0000
  O   O1        1.0  0.97423  0.64272  0.55729  1.0000
  O   O2        1.0  0.02577  0.85728  0.05729  1.0000
  O   O3        1.0  0.02577  0.35728  0.44271  1.0000
  O   O4        1.0  0.97424  0.14272  0.94271  1.0000
  O   O5        1.0  0.90438  0.11513  0.35400  1.0000
  O   O6        1.0  0.09562  0.38487  0.85400  1.0000
  O   O7        1.0  0.09562  0.88487  0.64600  1.0000
  O   O8        1.0  0.90438  0.61513  0.14600  1.0000
  O   O9        1.0  0.52766  0.53588  0.39621  1.0000
  O   O10       1.0  0.47234  0.96412  0.89621  1.0000
  O   O11       1.0  0.47234  0.46412  0.60379  1.0000
  O   O12       1.0  0.52766  0.03588  0.10379  1.0000
  O   O13       1.0  0.55919  0.65951  0.30054  1.0000
  O   O14       1.0  0.44081  0.84049  0.80054  1.0000
  O   O15       1.0  0.44081  0.34049  0.69946  1.0000
  O   O16       1.0  0.55919  0.15951  0.19946  1.0000
  O   O17       1.0  0.56313  0.77114  0.54692  1.0000
  O   O18       1.0  0.43687  0.72886  0.04692  1.0000
  O   O19       1.0  0.43687  0.22886  0.45308  1.0000
  O   O20       1.0  0.56313  0.27114  0.95308  1.0000
  O   O21       1.0  0.37291  0.26383  0.31101  1.0000
  O   O22       1.0  0.62709  0.23617  0.81101  1.0000
  O   O23       1.0  0.62709  0.73617  0.68899  1.0000
  O   O24       1.0  0.37291  0.76383  0.18899  1.0000
  O   O25       1.0  0.89114  0.41865  0.29980  1.0000
  O   O26       1.0  0.10886  0.08136  0.79980  1.0000
  O   O27       1.0  0.10886  0.58136  0.70020  1.0000
  O   O28       1.0  0.89114  0.91865  0.20020  1.0000
