data_image0
_chemical_formula_structural       Zn2H36C50S2N12O12
_chemical_formula_sum              "Zn2 H36 C50 S2 N12 O12"
_cell_length_a       8.16598
_cell_length_b       8.16603
_cell_length_c       20.641
_cell_angle_alpha    92.3466
_cell_angle_beta     92.3462
_cell_angle_gamma    107.933

_space_group_name_H-M_alt    "P 1"
_space_group_IT_number       1

loop_
  _space_group_symop_operation_xyz
  'x, y, z'

loop_
  _atom_site_type_symbol
  _atom_site_label
  _atom_site_symmetry_multiplicity
  _atom_site_fract_x
  _atom_site_fract_y
  _atom_site_fract_z
  _atom_site_occupancy
  Zn  Zn1       1.0  0.85713  0.08256  0.43896  1.0000
  Zn  Zn2       1.0  0.08257  0.85712  0.93896  1.0000
  H   H1        1.0  0.41569  0.09951  0.23629  1.0000
  H   H2        1.0  0.09951  0.41569  0.73628  1.0000
  H   H3        1.0  0.26851  0.30634  0.58748  1.0000
  H   H4        1.0  0.30635  0.26851  0.08748  1.0000
  H   H5        1.0  0.62907  0.04587  0.14959  1.0000
  H   H6        1.0  0.04587  0.62907  0.64958  1.0000
  H   H7        1.0  0.50049  0.51515  0.66172  1.0000
  H   H8        1.0  0.51515  0.50049  0.16172  1.0000
  H   H9        1.0  0.60338  0.82602  0.63279  1.0000
  H   H10       1.0  0.82602  0.60339  0.13279  1.0000
  H   H11       1.0  0.28106  0.06435  0.43486  1.0000
  H   H12       1.0  0.06435  0.28107  0.93486  1.0000
  H   H13       1.0  0.35565  0.03722  0.51447  1.0000
  H   H14       1.0  0.03722  0.35565  0.01447  1.0000
  H   H15       1.0  0.18240  0.23117  0.37146  1.0000
  H   H16       1.0  0.23118  0.18240  0.87146  1.0000
  H   H17       1.0  0.71635  0.85817  0.31965  1.0000
  H   H18       1.0  0.85817  0.71636  0.81965  1.0000
  H   H19       1.0  0.83975  0.75503  0.22141  1.0000
  H   H20       1.0  0.75503  0.83975  0.72140  1.0000
  H   H21       1.0  0.14962  0.89502  0.20075  1.0000
  H   H22       1.0  0.89502  0.14962  0.70075  1.0000
  H   H23       1.0  0.77417  0.50489  0.36573  1.0000
  H   H24       1.0  0.50489  0.77418  0.86573  1.0000
  H   H25       1.0  0.07302  0.57717  0.32666  1.0000
  H   H26       1.0  0.57718  0.07302  0.82666  1.0000
  H   H27       1.0  0.11869  0.41249  0.22510  1.0000
  H   H28       1.0  0.41249  0.11869  0.72510  1.0000
  H   H29       1.0  0.44456  0.82786  0.07431  1.0000
  H   H30       1.0  0.82785  0.44457  0.57431  1.0000
  H   H31       1.0  0.42132  0.63693  0.97566  1.0000
  H   H32       1.0  0.63693  0.42133  0.47566  1.0000
  H   H33       1.0  0.69143  0.63772  0.92076  1.0000
  H   H34       1.0  0.63772  0.69144  0.42076  1.0000
  H   H35       1.0  0.99521  0.01702  0.05291  1.0000
  H   H36       1.0  0.01702  0.99521  0.55291  1.0000
  C   C1        1.0  0.11089  0.38086  0.48072  1.0000
  C   C2        1.0  0.38086  0.11089  0.98072  1.0000
  C   C3        1.0  0.24740  0.50277  0.52459  1.0000
  C   C4        1.0  0.50277  0.24741  0.02459  1.0000
  C   C5        1.0  0.31669  0.44326  0.57853  1.0000
  C   C6        1.0  0.44326  0.31670  0.07853  1.0000
  C   C7        1.0  0.44485  0.55812  0.61926  1.0000
  C   C8        1.0  0.55812  0.44485  0.11926  1.0000
  C   C9        1.0  0.50084  0.73020  0.60343  1.0000
  C   C10       1.0  0.73021  0.50084  0.10343  1.0000
  C   C11       1.0  0.31061  0.68160  0.51364  1.0000
  C   C12       1.0  0.68160  0.31061  0.01364  1.0000
  C   C13       1.0  0.35141  0.99431  0.46335  1.0000
  C   C14       1.0  0.99431  0.35141  0.96336  1.0000
  C   C15       1.0  0.53170  0.03097  0.43947  1.0000
  C   C16       1.0  0.03098  0.53171  0.93947  1.0000
  C   C17       1.0  0.11250  0.12357  0.33819  1.0000
  C   C18       1.0  0.12358  0.11251  0.83819  1.0000
  C   C19       1.0  0.85049  0.91385  0.30815  1.0000
  C   C20       1.0  0.91386  0.85049  0.80815  1.0000
  C   C21       1.0  0.92046  0.85896  0.25416  1.0000
  C   C22       1.0  0.85897  0.92046  0.75416  1.0000
  C   C23       1.0  0.09271  0.93679  0.24278  1.0000
  C   C24       1.0  0.93679  0.09271  0.74278  1.0000
  C   C25       1.0  0.19286  0.07218  0.28547  1.0000
  C   C26       1.0  0.07218  0.19286  0.78547  1.0000
  C   C27       1.0  0.48793  0.27413  0.31179  1.0000
  C   C28       1.0  0.27412  0.48794  0.81179  1.0000
  C   C29       1.0  0.66683  0.31321  0.28789  1.0000
  C   C30       1.0  0.31322  0.66683  0.78789  1.0000
  C   C31       1.0  0.80062  0.44095  0.32202  1.0000
  C   C32       1.0  0.44095  0.80063  0.82202  1.0000
  C   C33       1.0  0.96649  0.48062  0.29992  1.0000
  C   C34       1.0  0.48062  0.96650  0.79992  1.0000
  C   C35       1.0  0.99263  0.38979  0.24498  1.0000
  C   C36       1.0  0.38980  0.99263  0.74498  1.0000
  C   C37       1.0  0.85177  0.26150  0.21449  1.0000
  C   C38       1.0  0.26150  0.85177  0.71449  1.0000
  C   C39       1.0  0.88447  0.16186  0.15631  1.0000
  C   C40       1.0  0.16187  0.88446  0.65631  1.0000
  C   C41       1.0  0.72347  0.93479  0.07290  1.0000
  C   C42       1.0  0.93479  0.72347  0.57291  1.0000
  C   C43       1.0  0.56063  0.82699  0.04998  1.0000
  C   C44       1.0  0.82698  0.56064  0.54998  1.0000
  C   C45       1.0  0.54715  0.71976  0.99467  1.0000
  C   C46       1.0  0.71976  0.54715  0.49467  1.0000
  C   C47       1.0  0.69560  0.72264  0.96331  1.0000
  C   C48       1.0  0.72264  0.69560  0.46331  1.0000
  C   C49       1.0  0.86699  0.93234  0.03820  1.0000
  C   C50       1.0  0.93234  0.86699  0.53820  1.0000
  S   S1        1.0  0.22358  0.76981  0.44944  1.0000
  S   S2        1.0  0.76981  0.22358  0.94944  1.0000
  N   N1        1.0  0.94671  0.04270  0.34937  1.0000
  N   N2        1.0  0.04270  0.94672  0.84937  1.0000
  N   N3        1.0  0.36586  0.14880  0.27419  1.0000
  N   N4        1.0  0.14880  0.36586  0.77419  1.0000
  N   N5        1.0  0.69115  0.22332  0.23501  1.0000
  N   N6        1.0  0.22332  0.69115  0.73501  1.0000
  N   N7        1.0  0.73891  0.04462  0.12804  1.0000
  N   N8        1.0  0.04462  0.73891  0.62804  1.0000
  N   N9        1.0  0.85179  0.82876  0.98465  1.0000
  N   N10       1.0  0.82876  0.85180  0.48465  1.0000
  N   N11       1.0  0.43659  0.79095  0.55256  1.0000
  N   N12       1.0  0.79095  0.43659  0.05256  1.0000
  O   O1        1.0  0.06356  0.22031  0.49486  1.0000
  O   O2        1.0  0.22031  0.06355  0.99487  1.0000
  O   O3        1.0  0.04809  0.43596  0.43301  1.0000
  O   O4        1.0  0.43596  0.04809  0.93301  1.0000
  O   O5        1.0  0.55768  0.95237  0.38900  1.0000
  O   O6        1.0  0.95238  0.55769  0.88900  1.0000
  O   O7        1.0  0.65513  0.14352  0.47335  1.0000
  O   O8        1.0  0.14353  0.65513  0.97336  1.0000
  O   O9        1.0  0.45776  0.35101  0.36040  1.0000
  O   O10       1.0  0.35101  0.45777  0.86040  1.0000
  O   O11       1.0  0.03241  0.18694  0.13813  1.0000
  O   O12       1.0  0.18695  0.03241  0.63813  1.0000
