data_image0
_chemical_formula_structural       Cd2H36C50S2N12O12
_chemical_formula_sum              "Cd2 H36 C50 S2 N12 O12"
_cell_length_a       8.22319
_cell_length_b       8.22314
_cell_length_c       20.6788
_cell_angle_alpha    93.2763
_cell_angle_beta     93.2756
_cell_angle_gamma    107.554

_space_group_name_H-M_alt    "P 1"
_space_group_IT_number       1

loop_
  _space_group_symop_operation_xyz
  'x, y, z'

loop_
  _atom_site_type_symbol
  _atom_site_label
  _atom_site_symmetry_multiplicity
  _atom_site_fract_x
  _atom_site_fract_y
  _atom_site_fract_z
  _atom_site_occupancy
  Cd  Cd1       1.0  0.51521  0.24311  0.21896  1.0000
  Cd  Cd2       1.0  0.24312  0.51521  0.71897  1.0000
  H   H1        1.0  0.17947  0.11670  0.29364  1.0000
  H   H2        1.0  0.11670  0.17947  0.79364  1.0000
  H   H3        1.0  0.94415  0.25860  0.42484  1.0000
  H   H4        1.0  0.25861  0.94415  0.92484  1.0000
  H   H5        1.0  0.20579  0.47012  0.46017  1.0000
  H   H6        1.0  0.47014  0.20579  0.96017  1.0000
  H   H7        1.0  0.72790  0.31213  0.50940  1.0000
  H   H8        1.0  0.31213  0.72790  0.00940  1.0000
  H   H9        1.0  0.51040  0.61317  0.43988  1.0000
  H   H10       1.0  0.61319  0.51040  0.93987  1.0000
  H   H11       1.0  0.63471  0.50226  0.34423  1.0000
  H   H12       1.0  0.50227  0.63472  0.84423  1.0000
  H   H13       1.0  0.59152  0.85397  0.29041  1.0000
  H   H14       1.0  0.85397  0.59152  0.79041  1.0000
  H   H15       1.0  0.29244  0.78458  0.32555  1.0000
  H   H16       1.0  0.78458  0.29243  0.82555  1.0000
  H   H17       1.0  0.24572  0.94361  0.42850  1.0000
  H   H18       1.0  0.94362  0.24572  0.92850  1.0000
  H   H19       1.0  0.36050  0.34155  0.60174  1.0000
  H   H20       1.0  0.34155  0.36050  0.10173  1.0000
  H   H21       1.0  0.65582  0.72573  0.73626  1.0000
  H   H22       1.0  0.72572  0.65581  0.23626  1.0000
  H   H23       1.0  0.92581  0.73007  0.68333  1.0000
  H   H24       1.0  0.73007  0.92580  0.18332  1.0000
  H   H25       1.0  0.90699  0.53300  0.58583  1.0000
  H   H26       1.0  0.53301  0.90699  0.08583  1.0000
  H   H27       1.0  0.05550  0.33137  0.15236  1.0000
  H   H28       1.0  0.33137  0.05551  0.65236  1.0000
  H   H29       1.0  0.12024  0.33130  0.23620  1.0000
  H   H30       1.0  0.33130  0.12024  0.73620  1.0000
  H   H31       1.0  0.73649  0.48219  0.03378  1.0000
  H   H32       1.0  0.48219  0.73650  0.53379  1.0000
  H   H33       1.0  0.81832  0.77639  0.99180  1.0000
  H   H34       1.0  0.77638  0.81832  0.49180  1.0000
  H   H35       1.0  0.06298  0.00781  0.05356  1.0000
  H   H36       1.0  0.00781  0.06298  0.55357  1.0000
  C   C1        1.0  0.24624  0.22852  0.32621  1.0000
  C   C2        1.0  0.22852  0.24625  0.82621  1.0000
  C   C3        1.0  0.16518  0.28452  0.37734  1.0000
  C   C4        1.0  0.28452  0.16518  0.87734  1.0000
  C   C5        1.0  0.26266  0.42526  0.41906  1.0000
  C   C6        1.0  0.42527  0.26267  0.91906  1.0000
  C   C7        1.0  0.43239  0.50437  0.40807  1.0000
  C   C8        1.0  0.50438  0.43240  0.90807  1.0000
  C   C9        1.0  0.50247  0.44467  0.35536  1.0000
  C   C10       1.0  0.44468  0.50248  0.85536  1.0000
  C   C11       1.0  0.87430  0.08088  0.34908  1.0000
  C   C12       1.0  0.08088  0.87431  0.84909  1.0000
  C   C13       1.0  0.69551  0.04373  0.37038  1.0000
  C   C14       1.0  0.04373  0.69552  0.87039  1.0000
  C   C15       1.0  0.56345  0.91780  0.33392  1.0000
  C   C16       1.0  0.91781  0.56345  0.83392  1.0000
  C   C17       1.0  0.39816  0.87907  0.35398  1.0000
  C   C18       1.0  0.87907  0.39816  0.85398  1.0000
  C   C19       1.0  0.37104  0.96706  0.40970  1.0000
  C   C20       1.0  0.96706  0.37104  0.90970  1.0000
  C   C21       1.0  0.50984  0.09373  0.44238  1.0000
  C   C22       1.0  0.09373  0.50985  0.94238  1.0000
  C   C23       1.0  0.47534  0.19143  0.50097  1.0000
  C   C24       1.0  0.19143  0.47534  0.00096  1.0000
  C   C25       1.0  0.63101  0.42241  0.58527  1.0000
  C   C26       1.0  0.42241  0.63100  0.08527  1.0000
  C   C27       1.0  0.48725  0.42566  0.61823  1.0000
  C   C28       1.0  0.42566  0.48725  0.11823  1.0000
  C   C29       1.0  0.65372  0.63910  0.69405  1.0000
  C   C30       1.0  0.63910  0.65371  0.19405  1.0000
  C   C31       1.0  0.80220  0.64298  0.66411  1.0000
  C   C32       1.0  0.64298  0.80220  0.16410  1.0000
  C   C33       1.0  0.79132  0.53326  0.60923  1.0000
  C   C34       1.0  0.53326  0.79132  0.10922  1.0000
  C   C35       1.0  0.85915  0.32389  0.21820  1.0000
  C   C36       1.0  0.32390  0.85915  0.71820  1.0000
  C   C37       1.0  0.04464  0.38151  0.20159  1.0000
  C   C38       1.0  0.38151  0.04465  0.70159  1.0000
  C   C39       1.0  0.04672  0.67186  0.14426  1.0000
  C   C40       1.0  0.67186  0.04673  0.64426  1.0000
  C   C41       1.0  0.84100  0.58798  0.05807  1.0000
  C   C42       1.0  0.58799  0.84100  0.55807  1.0000
  C   C43       1.0  0.88559  0.75045  0.03507  1.0000
  C   C44       1.0  0.75046  0.88560  0.53507  1.0000
  C   C45       1.0  0.01979  0.87802  0.06905  1.0000
  C   C46       1.0  0.87802  0.01980  0.56905  1.0000
  C   C47       1.0  0.10283  0.84126  0.12471  1.0000
  C   C48       1.0  0.84126  0.10283  0.62471  1.0000
  C   C49       1.0  0.24800  0.97816  0.15958  1.0000
  C   C50       1.0  0.97817  0.24801  0.65958  1.0000
  S   S1        1.0  0.14656  0.61043  0.21204  1.0000
  S   S2        1.0  0.61043  0.14656  0.71204  1.0000
  N   N1        1.0  0.40950  0.30979  0.31562  1.0000
  N   N2        1.0  0.30980  0.40951  0.81563  1.0000
  N   N3        1.0  0.99421  0.20758  0.38765  1.0000
  N   N4        1.0  0.20758  0.99422  0.88765  1.0000
  N   N5        1.0  0.66961  0.13250  0.42338  1.0000
  N   N6        1.0  0.13250  0.66961  0.92338  1.0000
  N   N7        1.0  0.61818  0.31130  0.53019  1.0000
  N   N8        1.0  0.31130  0.61818  0.03019  1.0000
  N   N9        1.0  0.50004  0.53134  0.67139  1.0000
  N   N10       1.0  0.53134  0.50004  0.17139  1.0000
  N   N11       1.0  0.91897  0.54917  0.11073  1.0000
  N   N12       1.0  0.54918  0.91897  0.61073  1.0000
  O   O1        1.0  0.75588  0.20070  0.18160  1.0000
  O   O2        1.0  0.20071  0.75588  0.68160  1.0000
  O   O3        1.0  0.81335  0.39654  0.26664  1.0000
  O   O4        1.0  0.39654  0.81335  0.76664  1.0000
  O   O5        1.0  0.32113  0.10809  0.12911  1.0000
  O   O6        1.0  0.10809  0.32113  0.62912  1.0000
  O   O7        1.0  0.29563  0.96170  0.21800  1.0000
  O   O8        1.0  0.96169  0.29564  0.71800  1.0000
  O   O9        1.0  0.90571  0.00124  0.30143  1.0000
  O   O10       1.0  0.00124  0.90572  0.80143  1.0000
  O   O11       1.0  0.32854  0.16316  0.51837  1.0000
  O   O12       1.0  0.16317  0.32854  0.01837  1.0000
