data_image0
_chemical_formula_structural       Zn2H36C44N8O8
_chemical_formula_sum              "Zn2 H36 C44 N8 O8"
_cell_length_a       10.461
_cell_length_b       10.43
_cell_length_c       10.7405
_cell_angle_alpha    60.9518
_cell_angle_beta     84.4345
_cell_angle_gamma    78.4783

_space_group_name_H-M_alt    "P 1"
_space_group_IT_number       1

loop_
  _space_group_symop_operation_xyz
  'x, y, z'

loop_
  _atom_site_type_symbol
  _atom_site_label
  _atom_site_symmetry_multiplicity
  _atom_site_fract_x
  _atom_site_fract_y
  _atom_site_fract_z
  _atom_site_occupancy
  Zn  Zn1       1.0  0.69916  0.86295  0.60413  1.0000
  Zn  Zn2       1.0  0.19916  0.46709  0.39587  1.0000
  H   H1        1.0  0.34864  0.40300  0.79802  1.0000
  H   H2        1.0  0.84864  0.20102  0.20199  1.0000
  H   H3        1.0  0.37516  0.42616  0.01474  1.0000
  H   H4        1.0  0.87516  0.44090  0.98526  1.0000
  H   H5        1.0  0.20096  0.57846  0.08300  1.0000
  H   H6        1.0  0.70096  0.66145  0.91700  1.0000
  H   H7        1.0  0.99952  0.71328  0.93132  1.0000
  H   H8        1.0  0.49952  0.64460  0.06867  1.0000
  H   H9        1.0  0.55953  0.34785  0.82554  1.0000
  H   H10       1.0  0.05953  0.17339  0.17446  1.0000
  H   H11       1.0  0.58751  0.16315  0.08132  1.0000
  H   H12       1.0  0.08751  0.24447  0.91868  1.0000
  H   H13       1.0  0.91652  0.90972  0.97745  1.0000
  H   H14       1.0  0.41651  0.88717  0.02255  1.0000
  H   H15       1.0  0.88290  0.08724  0.72296  1.0000
  H   H16       1.0  0.38290  0.81020  0.27704  1.0000
  H   H17       1.0  0.78904  0.32782  0.53836  1.0000
  H   H18       1.0  0.28904  0.86618  0.46164  1.0000
  H   H19       1.0  0.62292  0.31520  0.55269  1.0000
  H   H20       1.0  0.12292  0.86790  0.44731  1.0000
  H   H21       1.0  0.81997  0.96620  0.25745  1.0000
  H   H22       1.0  0.31997  0.22365  0.74256  1.0000
  H   H23       1.0  0.67956  0.89768  0.25839  1.0000
  H   H24       1.0  0.17956  0.15608  0.74161  1.0000
  H   H25       1.0  0.83516  0.52963  0.63236  1.0000
  H   H26       1.0  0.33516  0.16200  0.36764  1.0000
  H   H27       1.0  0.48120  0.82257  0.45908  1.0000
  H   H28       1.0  0.98120  0.28165  0.54092  1.0000
  H   H29       1.0  0.46720  0.54309  0.48620  1.0000
  H   H30       1.0  0.96720  0.02930  0.51380  1.0000
  H   H31       1.0  0.02839  0.79014  0.32038  1.0000
  H   H32       1.0  0.52839  0.11052  0.67962  1.0000
  H   H33       1.0  0.94710  0.45578  0.24102  1.0000
  H   H34       1.0  0.44709  0.69680  0.75898  1.0000
  H   H35       1.0  0.73135  0.68142  0.16675  1.0000
  H   H36       1.0  0.23134  0.84817  0.83326  1.0000
  C   C1        1.0  0.06353  0.63608  0.77981  1.0000
  C   C2        1.0  0.56353  0.41589  0.22019  1.0000
  C   C3        1.0  0.16070  0.54507  0.74378  1.0000
  C   C4        1.0  0.66070  0.28885  0.25622  1.0000
  C   C5        1.0  0.27321  0.47195  0.82777  1.0000
  C   C6        1.0  0.77321  0.29972  0.17223  1.0000
  C   C7        1.0  0.28747  0.48380  0.94941  1.0000
  C   C8        1.0  0.78748  0.43320  0.05059  1.0000
  C   C9        1.0  0.18861  0.56936  0.98837  1.0000
  C   C10       1.0  0.68861  0.55773  0.01163  1.0000
  C   C11       1.0  0.07755  0.64505  0.90356  1.0000
  C   C12       1.0  0.57755  0.54861  0.09644  1.0000
  C   C13       1.0  0.94923  0.72922  0.68377  1.0000
  C   C14       1.0  0.44923  0.41299  0.31623  1.0000
  C   C15       1.0  0.14100  0.50767  0.62909  1.0000
  C   C16       1.0  0.64100  0.13676  0.37091  1.0000
  C   C17       1.0  0.71919  0.23094  0.75532  1.0000
  C   C18       1.0  0.21919  0.98627  0.24468  1.0000
  C   C19       1.0  0.63681  0.25038  0.85818  1.0000
  C   C20       1.0  0.13681  0.10855  0.14183  1.0000
  C   C21       1.0  0.65318  0.14760  0.00241  1.0000
  C   C22       1.0  0.15317  0.15001  0.99759  1.0000
  C   C23       1.0  0.75483  0.02433  0.04754  1.0000
  C   C24       1.0  0.25483  0.07186  0.95246  1.0000
  C   C25       1.0  0.83704  0.00485  0.94517  1.0000
  C   C26       1.0  0.33703  0.95002  0.05484  1.0000
  C   C27       1.0  0.81863  0.10616  0.80073  1.0000
  C   C28       1.0  0.31862  0.90689  0.19927  1.0000
  C   C29       1.0  0.70004  0.33829  0.59806  1.0000
  C   C30       1.0  0.20004  0.93635  0.40194  1.0000
  C   C31       1.0  0.77409  0.91838  0.20545  1.0000
  C   C32       1.0  0.27409  0.12383  0.79455  1.0000
  C   C33       1.0  0.73603  0.57319  0.59061  1.0000
  C   C34       1.0  0.23603  0.16380  0.40939  1.0000
  C   C35       1.0  0.55032  0.71906  0.49984  1.0000
  C   C36       1.0  0.05032  0.21890  0.50016  1.0000
  C   C37       1.0  0.54407  0.58424  0.50964  1.0000
  C   C38       1.0  0.04407  0.09389  0.49035  1.0000
  C   C39       1.0  0.98048  0.72987  0.28606  1.0000
  C   C40       1.0  0.48048  0.01593  0.71394  1.0000
  C   C41       1.0  0.93288  0.55873  0.24623  1.0000
  C   C42       1.0  0.43288  0.80496  0.75377  1.0000
  C   C43       1.0  0.82495  0.66904  0.20986  1.0000
  C   C44       1.0  0.32495  0.87890  0.79014  1.0000
  N   N1        1.0  0.66955  0.71059  0.55115  1.0000
  N   N2        1.0  0.16955  0.26173  0.44885  1.0000
  N   N3        1.0  0.66236  0.49389  0.56674  1.0000
  N   N4        1.0  0.16236  0.06063  0.43326  1.0000
  N   N5        1.0  0.85665  0.77623  0.23604  1.0000
  N   N6        1.0  0.35665  0.01226  0.76396  1.0000
  N   N7        1.0  0.02943  0.59793  0.29389  1.0000
  N   N8        1.0  0.52943  0.89182  0.70611  1.0000
  O   O1        1.0  0.95883  0.77178  0.55242  1.0000
  O   O2        1.0  0.45883  0.32420  0.44758  1.0000
  O   O3        1.0  0.84467  0.76408  0.74413  1.0000
  O   O4        1.0  0.34467  0.50821  0.25587  1.0000
  O   O5        1.0  0.05016  0.43981  0.64203  1.0000
  O   O6        1.0  0.55017  0.08183  0.35797  1.0000
  O   O7        1.0  0.22847  0.53810  0.52930  1.0000
  O   O8        1.0  0.72847  0.06740  0.47070  1.0000
