data_image0
_chemical_formula_structural       Zn2H56C56N8O12
_chemical_formula_sum              "Zn2 H56 C56 N8 O12"
_cell_length_a       9.33264
_cell_length_b       11.4763
_cell_length_c       13.09
_cell_angle_alpha    90.0007
_cell_angle_beta     89.9988
_cell_angle_gamma    97.9598

_space_group_name_H-M_alt    "P 1"
_space_group_IT_number       1

loop_
  _space_group_symop_operation_xyz
  'x, y, z'

loop_
  _atom_site_type_symbol
  _atom_site_label
  _atom_site_symmetry_multiplicity
  _atom_site_fract_x
  _atom_site_fract_y
  _atom_site_fract_z
  _atom_site_occupancy
  Zn  Zn1       1.0  0.76908  0.85130  0.99280  1.0000
  Zn  Zn2       1.0  0.23092  0.14870  0.49280  1.0000
  H   H1        1.0  0.98380  0.07668  0.97562  1.0000
  H   H2        1.0  0.01620  0.92332  0.47562  1.0000
  H   H3        1.0  0.99301  0.29375  0.98957  1.0000
  H   H4        1.0  0.00700  0.70625  0.48957  1.0000
  H   H5        1.0  0.52853  0.23666  0.02993  1.0000
  H   H6        1.0  0.47147  0.76334  0.52993  1.0000
  H   H7        1.0  0.53825  0.02300  0.00569  1.0000
  H   H8        1.0  0.46174  0.97700  0.50569  1.0000
  H   H9        1.0  0.98134  0.45513  0.07200  1.0000
  H   H10       1.0  0.01867  0.54487  0.57201  1.0000
  H   H11       1.0  0.97772  0.67191  0.06223  1.0000
  H   H12       1.0  0.02228  0.32809  0.56224  1.0000
  H   H13       1.0  0.55998  0.62783  0.95061  1.0000
  H   H14       1.0  0.44002  0.37216  0.45060  1.0000
  H   H15       1.0  0.54271  0.40972  0.95671  1.0000
  H   H16       1.0  0.45730  0.59028  0.45671  1.0000
  H   H17       1.0  0.70642  0.97875  0.22699  1.0000
  H   H18       1.0  0.29358  0.02124  0.72699  1.0000
  H   H19       1.0  0.54139  0.87116  0.12565  1.0000
  H   H20       1.0  0.45862  0.12884  0.62565  1.0000
  H   H21       1.0  0.61024  0.74892  0.13946  1.0000
  H   H22       1.0  0.38975  0.25108  0.63947  1.0000
  H   H23       1.0  0.75156  0.85595  0.37777  1.0000
  H   H24       1.0  0.24843  0.14404  0.87778  1.0000
  H   H25       1.0  0.56873  0.83312  0.33593  1.0000
  H   H26       1.0  0.43127  0.16687  0.83594  1.0000
  H   H27       1.0  0.91218  0.69872  0.33868  1.0000
  H   H28       1.0  0.08781  0.30127  0.83868  1.0000
  H   H29       1.0  0.91830  0.48348  0.31936  1.0000
  H   H30       1.0  0.08170  0.51651  0.81935  1.0000
  H   H31       1.0  0.46906  0.43364  0.23521  1.0000
  H   H32       1.0  0.53095  0.56635  0.73522  1.0000
  H   H33       1.0  0.45977  0.64478  0.26469  1.0000
  H   H34       1.0  0.54023  0.35520  0.76471  1.0000
  H   H35       1.0  0.61018  0.27895  0.25018  1.0000
  H   H36       1.0  0.38983  0.72104  0.75018  1.0000
  H   H37       1.0  0.79220  0.95381  0.74354  1.0000
  H   H38       1.0  0.20780  0.04620  0.24352  1.0000
  H   H39       1.0  0.96424  0.93645  0.84373  1.0000
  H   H40       1.0  0.03577  0.06354  0.34373  1.0000
  H   H41       1.0  0.94600  0.79218  0.84941  1.0000
  H   H42       1.0  0.05400  0.20782  0.34941  1.0000
  H   H43       1.0  0.78405  0.83227  0.60314  1.0000
  H   H44       1.0  0.21595  0.16776  0.10314  1.0000
  H   H45       1.0  0.95289  0.82650  0.66074  1.0000
  H   H46       1.0  0.04712  0.17352  0.16074  1.0000
  H   H47       1.0  0.70894  0.66494  0.51582  1.0000
  H   H48       1.0  0.29105  0.33508  0.01583  1.0000
  H   H49       1.0  0.67432  0.44887  0.49426  1.0000
  H   H50       1.0  0.32566  0.55116  0.99429  1.0000
  H   H51       1.0  0.85626  0.41221  0.79233  1.0000
  H   H52       1.0  0.14372  0.58779  0.29237  1.0000
  H   H53       1.0  0.89821  0.62613  0.81182  1.0000
  H   H54       1.0  0.10179  0.37387  0.31185  1.0000
  H   H55       1.0  0.79735  0.25798  0.67579  1.0000
  H   H56       1.0  0.20261  0.74203  0.17583  1.0000
  C   C1        1.0  0.88517  0.11606  0.98622  1.0000
  C   C2        1.0  0.11484  0.88394  0.48623  1.0000
  C   C3        1.0  0.88960  0.23705  0.99450  1.0000
  C   C4        1.0  0.11041  0.76295  0.49450  1.0000
  C   C5        1.0  0.76070  0.28468  0.00869  1.0000
  C   C6        1.0  0.23930  0.71532  0.50870  1.0000
  C   C7        1.0  0.63150  0.20612  0.01388  1.0000
  C   C8        1.0  0.36850  0.79388  0.51388  1.0000
  C   C9        1.0  0.63679  0.08649  0.00347  1.0000
  C   C10       1.0  0.36321  0.91351  0.50347  1.0000
  C   C11       1.0  0.76203  0.41293  0.01332  1.0000
  C   C12       1.0  0.23797  0.58707  0.51333  1.0000
  C   C13       1.0  0.88554  0.48894  0.04363  1.0000
  C   C14       1.0  0.11446  0.51106  0.54364  1.0000
  C   C15       1.0  0.88441  0.60970  0.03891  1.0000
  C   C16       1.0  0.11560  0.39029  0.53892  1.0000
  C   C17       1.0  0.64965  0.58512  0.97852  1.0000
  C   C18       1.0  0.35035  0.41487  0.47852  1.0000
  C   C19       1.0  0.64113  0.46363  0.98238  1.0000
  C   C20       1.0  0.35887  0.53637  0.48238  1.0000
  C   C21       1.0  0.89016  0.89246  0.19664  1.0000
  C   C22       1.0  0.10984  0.10752  0.69665  1.0000
  C   C23       1.0  0.72475  0.88659  0.21711  1.0000
  C   C24       1.0  0.27525  0.11340  0.71712  1.0000
  C   C25       1.0  0.67945  0.81816  0.31633  1.0000
  C   C26       1.0  0.32055  0.18183  0.81633  1.0000
  C   C27       1.0  0.68495  0.68812  0.30485  1.0000
  C   C28       1.0  0.31505  0.31188  0.80485  1.0000
  C   C29       1.0  0.81422  0.64011  0.31822  1.0000
  C   C30       1.0  0.18578  0.35988  0.81822  1.0000
  C   C31       1.0  0.81890  0.52051  0.30589  1.0000
  C   C32       1.0  0.18110  0.47949  0.80589  1.0000
  C   C33       1.0  0.69537  0.44357  0.27574  1.0000
  C   C34       1.0  0.30463  0.55641  0.77575  1.0000
  C   C35       1.0  0.56602  0.49080  0.25956  1.0000
  C   C36       1.0  0.43398  0.50919  0.75957  1.0000
  C   C37       1.0  0.56230  0.61072  0.27527  1.0000
  C   C38       1.0  0.43771  0.38927  0.77528  1.0000
  C   C39       1.0  0.62900  0.82012  0.79505  1.0000
  C   C40       1.0  0.37101  0.17988  0.29505  1.0000
  C   C41       1.0  0.78809  0.86052  0.76509  1.0000
  C   C42       1.0  0.21192  0.13949  0.26509  1.0000
  C   C43       1.0  0.83597  0.79759  0.66969  1.0000
  C   C44       1.0  0.16403  0.20243  0.16969  1.0000
  C   C45       1.0  0.80602  0.66462  0.66520  1.0000
  C   C46       1.0  0.19397  0.33539  0.16522  1.0000
  C   C47       1.0  0.74106  0.61014  0.57751  1.0000
  C   C48       1.0  0.25892  0.38988  0.07752  1.0000
  C   C49       1.0  0.71983  0.48837  0.56480  1.0000
  C   C50       1.0  0.28015  0.51165  0.06482  1.0000
  C   C51       1.0  0.76228  0.41638  0.64208  1.0000
  C   C52       1.0  0.23769  0.58364  0.14211  1.0000
  C   C53       1.0  0.82385  0.46795  0.73141  1.0000
  C   C54       1.0  0.17614  0.53207  0.23144  1.0000
  C   C55       1.0  0.84645  0.59020  0.74188  1.0000
  C   C56       1.0  0.15355  0.40981  0.24190  1.0000
  N   N1        1.0  0.76112  0.04153  0.99019  1.0000
  N   N2        1.0  0.23888  0.95846  0.49019  1.0000
  N   N3        1.0  0.76944  0.65758  0.00525  1.0000
  N   N4        1.0  0.23056  0.34242  0.50525  1.0000
  N   N5        1.0  0.63715  0.83783  0.12908  1.0000
  N   N6        1.0  0.36285  0.16217  0.62908  1.0000
  N   N7        1.0  0.88956  0.86210  0.85277  1.0000
  N   N8        1.0  0.11044  0.13789  0.35277  1.0000
  O   O1        1.0  0.93243  0.87526  0.10548  1.0000
  O   O2        1.0  0.06758  0.12474  0.60548  1.0000
  O   O3        1.0  0.97275  0.91631  0.27201  1.0000
  O   O4        1.0  0.02725  0.08368  0.77201  1.0000
  O   O5        1.0  0.70817  0.32869  0.26376  1.0000
  O   O6        1.0  0.29184  0.67130  0.76377  1.0000
  O   O7        1.0  0.59446  0.81708  0.88932  1.0000
  O   O8        1.0  0.40554  0.18291  0.38932  1.0000
  O   O9        1.0  0.54091  0.79628  0.72196  1.0000
  O   O10       1.0  0.45909  0.20371  0.22195  1.0000
  O   O11       1.0  0.74061  0.29643  0.62665  1.0000
  O   O12       1.0  0.25935  0.70358  0.12669  1.0000
