data_image0
_chemical_formula_structural       Cd3H50C54N12O16
_chemical_formula_sum              "Cd3 H50 C54 N12 O16"
_cell_length_a       8.48187
_cell_length_b       10.5207
_cell_length_c       16.3395
_cell_angle_alpha    97.0499
_cell_angle_beta     101.789
_cell_angle_gamma    101.066

_space_group_name_H-M_alt    "P 1"
_space_group_IT_number       1

loop_
  _space_group_symop_operation_xyz
  'x, y, z'

loop_
  _atom_site_type_symbol
  _atom_site_label
  _atom_site_symmetry_multiplicity
  _atom_site_fract_x
  _atom_site_fract_y
  _atom_site_fract_z
  _atom_site_occupancy
  Cd  Cd1       1.0  0.50000  0.50000  0.50000  1.0000
  Cd  Cd2       1.0  0.43541  0.35950  0.11412  1.0000
  Cd  Cd3       1.0  0.56458  0.64051  0.88589  1.0000
  H   H1        1.0  0.50461  0.39091  0.77079  1.0000
  H   H2        1.0  0.49540  0.60910  0.22921  1.0000
  H   H3        1.0  0.54314  0.02128  0.64035  1.0000
  H   H4        1.0  0.45686  0.97872  0.35965  1.0000
  H   H5        1.0  0.54408  0.06910  0.90603  1.0000
  H   H6        1.0  0.45592  0.93090  0.09397  1.0000
  H   H7        1.0  0.75895  0.36889  0.29047  1.0000
  H   H8        1.0  0.24104  0.63111  0.70953  1.0000
  H   H9        1.0  0.06643  0.53932  0.31392  1.0000
  H   H10       1.0  0.93357  0.46068  0.68608  1.0000
  H   H11       1.0  0.74698  0.58352  0.08829  1.0000
  H   H12       1.0  0.25302  0.41646  0.91171  1.0000
  H   H13       1.0  0.08224  0.69142  0.12369  1.0000
  H   H14       1.0  0.91776  0.30857  0.87631  1.0000
  H   H15       1.0  0.18090  0.70880  0.23229  1.0000
  H   H16       1.0  0.81909  0.29119  0.76771  1.0000
  H   H17       1.0  0.91217  0.83885  0.07425  1.0000
  H   H18       1.0  0.08782  0.16114  0.92575  1.0000
  H   H19       1.0  0.82010  0.13614  0.25195  1.0000
  H   H20       1.0  0.17991  0.86387  0.74804  1.0000
  H   H21       1.0  0.07342  0.84472  0.34238  1.0000
  H   H22       1.0  0.92658  0.15528  0.65762  1.0000
  H   H23       1.0  0.81912  0.04318  0.40314  1.0000
  H   H24       1.0  0.18089  0.95682  0.59686  1.0000
  H   H25       1.0  0.99885  0.98342  0.43792  1.0000
  H   H26       1.0  0.00115  0.01658  0.56208  1.0000
  H   H27       1.0  0.87190  0.25520  0.49568  1.0000
  H   H28       1.0  0.12811  0.74480  0.50432  1.0000
  H   H29       1.0  0.13187  0.47835  0.53900  1.0000
  H   H30       1.0  0.86814  0.52165  0.46100  1.0000
  H   H31       1.0  0.25609  0.18855  0.37689  1.0000
  H   H32       1.0  0.74391  0.81145  0.62311  1.0000
  H   H33       1.0  0.73912  0.98541  0.02465  1.0000
  H   H34       1.0  0.26089  0.01459  0.97535  1.0000
  H   H35       1.0  0.68449  0.10042  0.09703  1.0000
  H   H36       1.0  0.31550  0.89958  0.90296  1.0000
  H   H37       1.0  0.76834  0.30842  0.04199  1.0000
  H   H38       1.0  0.23166  0.69158  0.95801  1.0000
  H   H39       1.0  0.08140  0.45888  0.04196  1.0000
  H   H40       1.0  0.91859  0.54112  0.95804  1.0000
  H   H41       1.0  0.13288  0.08889  0.10010  1.0000
  H   H42       1.0  0.86712  0.91112  0.89989  1.0000
  H   H43       1.0  0.41298  0.72771  0.51885  1.0000
  H   H44       1.0  0.58703  0.27229  0.48115  1.0000
  H   H45       1.0  0.44722  0.72030  0.61750  1.0000
  H   H46       1.0  0.55279  0.27970  0.38250  1.0000
  H   H47       1.0  0.39609  0.47717  0.29290  1.0000
  H   H48       1.0  0.60391  0.52283  0.70710  1.0000
  H   H49       1.0  0.37349  0.32171  0.26769  1.0000
  H   H50       1.0  0.62651  0.67829  0.73232  1.0000
  C   C1        1.0  0.53359  0.32479  0.92996  1.0000
  C   C2        1.0  0.46641  0.67521  0.07004  1.0000
  C   C3        1.0  0.52448  0.23941  0.84726  1.0000
  C   C4        1.0  0.47552  0.76060  0.15274  1.0000
  C   C5        1.0  0.51435  0.28953  0.77143  1.0000
  C   C6        1.0  0.48565  0.71047  0.22857  1.0000
  C   C7        1.0  0.52176  0.21169  0.69693  1.0000
  C   C8        1.0  0.47824  0.78832  0.30307  1.0000
  C   C9        1.0  0.53484  0.08093  0.69809  1.0000
  C   C10       1.0  0.46517  0.91908  0.30191  1.0000
  C   C11       1.0  0.54116  0.02896  0.77322  1.0000
  C   C12       1.0  0.45884  0.97105  0.22679  1.0000
  C   C13       1.0  0.53682  0.10902  0.84737  1.0000
  C   C14       1.0  0.46318  0.89099  0.15263  1.0000
  C   C15       1.0  0.53267  0.27065  0.61796  1.0000
  C   C16       1.0  0.46733  0.72936  0.38204  1.0000
  C   C17       1.0  0.55320  0.88861  0.77648  1.0000
  C   C18       1.0  0.44680  0.11139  0.22353  1.0000
  C   C19       1.0  0.80217  0.43864  0.25187  1.0000
  C   C20       1.0  0.19782  0.56136  0.74813  1.0000
  C   C21       1.0  0.95348  0.52368  0.26515  1.0000
  C   C22       1.0  0.04651  0.47631  0.73485  1.0000
  C   C23       1.0  0.78956  0.54857  0.14684  1.0000
  C   C24       1.0  0.21044  0.45143  0.85316  1.0000
  C   C25       1.0  0.06357  0.70600  0.18841  1.0000
  C   C26       1.0  0.93642  0.29399  0.81159  1.0000
  C   C27       1.0  0.00286  0.82999  0.20620  1.0000
  C   C28       1.0  0.99713  0.17000  0.79380  1.0000
  C   C29       1.0  0.92522  0.88428  0.13962  1.0000
  C   C30       1.0  0.07476  0.11571  0.86038  1.0000
  C   C31       1.0  0.86070  0.99516  0.15559  1.0000
  C   C32       1.0  0.13929  0.00484  0.84441  1.0000
  C   C33       1.0  0.87188  0.05047  0.23923  1.0000
  C   C34       1.0  0.12813  0.94953  0.76077  1.0000
  C   C35       1.0  0.94622  0.99541  0.30652  1.0000
  C   C36       1.0  0.05378  0.00459  0.69348  1.0000
  C   C37       1.0  0.01376  0.88675  0.28970  1.0000
  C   C38       1.0  0.98624  0.11324  0.71030  1.0000
  C   C39       1.0  0.94641  0.04712  0.39653  1.0000
  C   C40       1.0  0.05359  0.95289  0.60346  1.0000
  C   C41       1.0  0.99146  0.27486  0.48006  1.0000
  C   C42       1.0  0.00855  0.72513  0.51994  1.0000
  C   C43       1.0  0.11853  0.38452  0.49957  1.0000
  C   C44       1.0  0.88148  0.61547  0.50043  1.0000
  C   C45       1.0  0.18986  0.23855  0.41618  1.0000
  C   C46       1.0  0.81014  0.76145  0.58382  1.0000
  C   C47       1.0  0.78686  0.05796  0.08333  1.0000
  C   C48       1.0  0.21314  0.94204  0.91667  1.0000
  C   C49       1.0  0.88948  0.28619  0.05151  1.0000
  C   C50       1.0  0.11052  0.71381  0.94848  1.0000
  C   C51       1.0  0.04292  0.35841  0.05114  1.0000
  C   C52       1.0  0.95708  0.64159  0.94886  1.0000
  C   C53       1.0  0.07730  0.16861  0.08163  1.0000
  C   C54       1.0  0.92270  0.83138  0.91837  1.0000
  N   N1        1.0  0.70167  0.45534  0.17785  1.0000
  N   N2        1.0  0.29833  0.54465  0.82215  1.0000
  N   N3        1.0  0.94294  0.59215  0.19799  1.0000
  N   N4        1.0  0.05706  0.40784  0.80201  1.0000
  N   N5        1.0  0.24078  0.36077  0.45930  1.0000
  N   N6        1.0  0.75923  0.63923  0.54070  1.0000
  N   N7        1.0  0.03827  0.18338  0.42708  1.0000
  N   N8        1.0  0.96174  0.81662  0.57292  1.0000
  N   N9        1.0  0.15798  0.28352  0.06935  1.0000
  N   N10       1.0  0.84202  0.71648  0.93065  1.0000
  N   N11       1.0  0.91363  0.16631  0.07096  1.0000
  N   N12       1.0  0.08636  0.83369  0.92904  1.0000
  O   O1        1.0  0.47655  0.26621  0.98524  1.0000
  O   O2        1.0  0.52345  0.73379  0.01476  1.0000
  O   O3        1.0  0.60463  0.44551  0.94114  1.0000
  O   O4        1.0  0.39537  0.55450  0.05886  1.0000
  O   O5        1.0  0.53470  0.39385  0.62219  1.0000
  O   O6        1.0  0.46531  0.60616  0.37782  1.0000
  O   O7        1.0  0.54540  0.19618  0.55378  1.0000
  O   O8        1.0  0.45461  0.80383  0.44622  1.0000
  O   O9        1.0  0.57227  0.82033  0.71045  1.0000
  O   O10       1.0  0.42774  0.17968  0.28956  1.0000
  O   O11       1.0  0.54436  0.84803  0.84605  1.0000
  O   O12       1.0  0.45564  0.15197  0.15395  1.0000
  O   O13       1.0  0.34698  0.40160  0.24589  1.0000
  O   O14       1.0  0.65302  0.59840  0.75411  1.0000
  O   O15       1.0  0.38559  0.66856  0.56154  1.0000
  O   O16       1.0  0.61442  0.33145  0.43846  1.0000
