data_image0
_chemical_formula_structural       Sc6H30C42N12O48
_chemical_formula_sum              "Sc6 H30 C42 N12 O48"
_cell_length_a       10.2471
_cell_length_b       13.8372
_cell_length_c       13.8371
_cell_angle_alpha    114.113
_cell_angle_beta     104.29
_cell_angle_gamma    104.292

_space_group_name_H-M_alt    "P 1"
_space_group_IT_number       1

loop_
  _space_group_symop_operation_xyz
  'x, y, z'

loop_
  _atom_site_type_symbol
  _atom_site_label
  _atom_site_symmetry_multiplicity
  _atom_site_fract_x
  _atom_site_fract_y
  _atom_site_fract_z
  _atom_site_occupancy
  Sc  Sc1       1.0  0.84713  0.65548  0.52361  1.0000
  Sc  Sc2       1.0  0.19161  0.86812  0.34454  1.0000
  Sc  Sc3       1.0  0.32349  0.47641  0.13188  1.0000
  Sc  Sc4       1.0  0.15287  0.34452  0.47639  1.0000
  Sc  Sc5       1.0  0.80839  0.13188  0.65546  1.0000
  Sc  Sc6       1.0  0.67651  0.52359  0.86812  1.0000
  H   H1        1.0  0.80098  0.82074  0.75831  1.0000
  H   H2        1.0  0.98021  0.93759  0.17925  1.0000
  H   H3        1.0  0.04264  0.24168  0.06246  1.0000
  H   H4        1.0  0.19902  0.17926  0.24169  1.0000
  H   H5        1.0  0.01979  0.06241  0.82075  1.0000
  H   H6        1.0  0.95736  0.75832  0.93754  1.0000
  H   H7        1.0  0.59352  0.83973  0.81916  1.0000
  H   H8        1.0  0.75374  0.97942  0.16024  1.0000
  H   H9        1.0  0.77434  0.18081  0.02057  1.0000
  H   H10       1.0  0.40648  0.16027  0.18084  1.0000
  H   H11       1.0  0.24626  0.02058  0.83976  1.0000
  H   H12       1.0  0.22566  0.81919  0.97943  1.0000
  H   H13       1.0  0.33632  0.71917  0.67272  1.0000
  H   H14       1.0  0.61711  0.95357  0.28082  1.0000
  H   H15       1.0  0.66354  0.32724  0.04645  1.0000
  H   H16       1.0  0.66368  0.28083  0.32728  1.0000
  H   H17       1.0  0.38289  0.04643  0.71918  1.0000
  H   H18       1.0  0.33646  0.67276  0.95355  1.0000
  H   H19       1.0  0.00122  0.57853  0.38929  1.0000
  H   H20       1.0  0.42266  0.81075  0.42145  1.0000
  H   H21       1.0  0.61188  0.61070  0.18924  1.0000
  H   H22       1.0  0.99877  0.42147  0.61071  1.0000
  H   H23       1.0  0.57734  0.18925  0.57855  1.0000
  H   H24       1.0  0.38812  0.38930  0.81076  1.0000
  H   H25       1.0  0.84368  0.56261  0.31063  1.0000
  H   H26       1.0  0.28104  0.74799  0.43737  1.0000
  H   H27       1.0  0.53303  0.68938  0.25201  1.0000
  H   H28       1.0  0.15632  0.43739  0.68937  1.0000
  H   H29       1.0  0.71896  0.25201  0.56263  1.0000
  H   H30       1.0  0.46697  0.31062  0.74799  1.0000
  C   C1        1.0  0.68772  0.77076  0.69688  1.0000
  C   C2        1.0  0.91693  0.92612  0.22922  1.0000
  C   C3        1.0  0.99081  0.30311  0.07389  1.0000
  C   C4        1.0  0.31228  0.22924  0.30312  1.0000
  C   C5        1.0  0.08307  0.07388  0.77078  1.0000
  C   C6        1.0  0.00919  0.69689  0.92611  1.0000
  C   C7        1.0  0.40526  0.64003  0.53484  1.0000
  C   C8        1.0  0.76518  0.89482  0.35996  1.0000
  C   C9        1.0  0.87035  0.46511  0.10518  1.0000
  C   C10       1.0  0.59474  0.35997  0.46516  1.0000
  C   C11       1.0  0.23482  0.10517  0.64004  1.0000
  C   C12       1.0  0.12966  0.53489  0.89482  1.0000
  C   C13       1.0  0.57167  0.78065  0.73032  1.0000
  C   C14       1.0  0.79098  0.94966  0.21932  1.0000
  C   C15       1.0  0.84131  0.26966  0.05033  1.0000
  C   C16       1.0  0.42833  0.21935  0.26968  1.0000
  C   C17       1.0  0.20902  0.05034  0.78068  1.0000
  C   C18       1.0  0.15869  0.73034  0.94967  1.0000
  C   C19       1.0  0.42909  0.71391  0.64902  1.0000
  C   C20       1.0  0.71512  0.93511  0.28607  1.0000
  C   C21       1.0  0.78000  0.35095  0.06491  1.0000
  C   C22       1.0  0.57091  0.28609  0.35098  1.0000
  C   C23       1.0  0.28488  0.06489  0.71393  1.0000
  C   C24       1.0  0.22000  0.64906  0.93510  1.0000
  C   C25       1.0  0.52731  0.63587  0.50815  1.0000
  C   C26       1.0  0.89141  0.87230  0.36412  1.0000
  C   C27       1.0  0.01909  0.49181  0.12766  1.0000
  C   C28       1.0  0.47269  0.36413  0.49185  1.0000
  C   C29       1.0  0.10859  0.12770  0.63588  1.0000
  C   C30       1.0  0.98091  0.50819  0.87234  1.0000
  C   C31       1.0  0.51845  0.56427  0.38941  1.0000
  C   C32       1.0  0.95408  0.82515  0.43574  1.0000
  C   C33       1.0  0.12894  0.61058  0.17485  1.0000
  C   C34       1.0  0.48155  0.43573  0.61059  1.0000
  C   C35       1.0  0.04592  0.17485  0.56426  1.0000
  C   C36       1.0  0.87107  0.38942  0.82515  1.0000
  C   C37       1.0  0.24896  0.57015  0.44876  1.0000
  C   C38       1.0  0.67881  0.87861  0.42988  1.0000
  C   C39       1.0  0.80021  0.55126  0.12139  1.0000
  C   C40       1.0  0.75104  0.42985  0.55124  1.0000
  C   C41       1.0  0.32119  0.12139  0.57012  1.0000
  C   C42       1.0  0.19979  0.44874  0.87861  1.0000
  N   N1        1.0  0.66605  0.69933  0.58844  1.0000
  N   N2        1.0  0.96670  0.88913  0.30067  1.0000
  N   N3        1.0  0.07757  0.41154  0.11087  1.0000
  N   N4        1.0  0.33395  0.30067  0.41156  1.0000
  N   N5        1.0  0.03330  0.11087  0.69933  1.0000
  N   N6        1.0  0.92243  0.58846  0.88913  1.0000
  N   N7        1.0  0.10261  0.77202  0.70651  1.0000
  N   N8        1.0  0.33058  0.93451  0.22801  1.0000
  N   N9        1.0  0.39605  0.29348  0.06552  1.0000
  N   N10       1.0  0.89738  0.22798  0.29349  1.0000
  N   N11       1.0  0.66942  0.06549  0.77199  1.0000
  N   N12       1.0  0.60395  0.70652  0.93448  1.0000
  O   O1        1.0  0.63739  0.56046  0.38009  1.0000
  O   O2        1.0  0.07683  0.81963  0.43957  1.0000
  O   O3        1.0  0.25722  0.61994  0.18039  1.0000
  O   O4        1.0  0.36261  0.43954  0.61991  1.0000
  O   O5        1.0  0.92317  0.18037  0.56043  1.0000
  O   O6        1.0  0.74278  0.38006  0.81961  1.0000
  O   O7        1.0  0.98376  0.78714  0.71064  1.0000
  O   O8        1.0  0.19664  0.92360  0.21296  1.0000
  O   O9        1.0  0.27304  0.28939  0.07647  1.0000
  O   O10       1.0  0.01624  0.21286  0.28936  1.0000
  O   O11       1.0  0.80336  0.07640  0.78704  1.0000
  O   O12       1.0  0.72696  0.71061  0.92353  1.0000
  O   O13       1.0  0.08873  0.69825  0.60662  1.0000
  O   O14       1.0  0.39043  0.90830  0.30173  1.0000
  O   O15       1.0  0.48217  0.39338  0.09173  1.0000
  O   O16       1.0  0.91127  0.30175  0.39338  1.0000
  O   O17       1.0  0.60956  0.09170  0.69827  1.0000
  O   O18       1.0  0.51783  0.60662  0.90827  1.0000
  O   O19       1.0  0.39447  0.51289  0.30552  1.0000
  O   O20       1.0  0.88145  0.79264  0.48710  1.0000
  O   O21       1.0  0.08882  0.69445  0.20738  1.0000
  O   O22       1.0  0.60553  0.48711  0.69448  1.0000
  O   O23       1.0  0.11855  0.20736  0.51290  1.0000
  O   O24       1.0  0.91118  0.30555  0.79262  1.0000
  O   O25       1.0  0.18859  0.46802  0.42878  1.0000
  O   O26       1.0  0.72063  0.96078  0.53201  1.0000
  O   O27       1.0  0.75992  0.57120  0.03920  1.0000
  O   O28       1.0  0.81141  0.53198  0.57122  1.0000
  O   O29       1.0  0.27936  0.03922  0.46799  1.0000
  O   O30       1.0  0.24009  0.42880  0.96080  1.0000
  O   O31       1.0  0.18268  0.61876  0.40765  1.0000
  O   O32       1.0  0.56392  0.78891  0.38130  1.0000
  O   O33       1.0  0.77503  0.59239  0.21108  1.0000
  O   O34       1.0  0.81732  0.38124  0.59235  1.0000
  O   O35       1.0  0.43608  0.21109  0.61870  1.0000
  O   O36       1.0  0.22497  0.40761  0.78892  1.0000
  O   O37       1.0  0.89728  0.56096  0.38126  1.0000
  O   O38       1.0  0.33628  0.82029  0.43902  1.0000
  O   O39       1.0  0.51596  0.61874  0.17972  1.0000
  O   O40       1.0  0.10272  0.43904  0.61874  1.0000
  O   O41       1.0  0.66372  0.17971  0.56098  1.0000
  O   O42       1.0  0.48404  0.38125  0.82028  1.0000
  O   O43       1.0  0.21875  0.82432  0.79106  1.0000
  O   O44       1.0  0.39441  0.96674  0.17570  1.0000
  O   O45       1.0  0.42755  0.20889  0.03324  1.0000
  O   O46       1.0  0.78125  0.17568  0.20894  1.0000
  O   O47       1.0  0.60559  0.03326  0.82430  1.0000
  O   O48       1.0  0.57245  0.79110  0.96676  1.0000
