data_image0
_chemical_formula_structural       Cu4H32C24N16
_chemical_formula_sum              "Cu4 H32 C24 N16"
_cell_length_a       7.68931
_cell_length_b       8.71398
_cell_length_c       13.0498
_cell_angle_alpha    82.5479
_cell_angle_beta     72.8773
_cell_angle_gamma    63.8098

_space_group_name_H-M_alt    "P 1"
_space_group_IT_number       1

loop_
  _space_group_symop_operation_xyz
  'x, y, z'

loop_
  _atom_site_type_symbol
  _atom_site_label
  _atom_site_symmetry_multiplicity
  _atom_site_fract_x
  _atom_site_fract_y
  _atom_site_fract_z
  _atom_site_occupancy
  Cu  Cu1       1.0  0.38599  0.16894  0.65848  1.0000
  Cu  Cu2       1.0  0.21365  0.83109  0.34135  1.0000
  Cu  Cu3       1.0  0.79436  0.66894  0.84160  1.0000
  Cu  Cu4       1.0  0.30542  0.33091  0.15841  1.0000
  H   H1        1.0  0.04124  0.92192  0.17710  1.0000
  H   H2        1.0  0.13965  0.07803  0.82273  1.0000
  H   H3        1.0  0.96791  0.42183  0.32304  1.0000
  H   H4        1.0  0.71214  0.57827  0.67730  1.0000
  H   H5        1.0  0.79718  0.98273  0.16123  1.0000
  H   H6        1.0  0.94057  0.01724  0.83871  1.0000
  H   H7        1.0  0.70796  0.48274  0.33883  1.0000
  H   H8        1.0  0.52868  0.51755  0.66161  1.0000
  H   H9        1.0  0.82716  0.91689  0.55216  1.0000
  H   H10       1.0  0.29615  0.08312  0.44781  1.0000
  H   H11       1.0  0.12933  0.41662  0.94793  1.0000
  H   H12       1.0  0.49422  0.58320  0.05218  1.0000
  H   H13       1.0  0.94402  0.22379  0.22250  1.0000
  H   H14       1.0  0.38963  0.77612  0.77750  1.0000
  H   H15       1.0  0.91607  0.72364  0.27770  1.0000
  H   H16       1.0  0.91727  0.27642  0.72223  1.0000
  H   H17       1.0  0.69611  0.28364  0.21079  1.0000
  H   H18       1.0  0.18983  0.71636  0.78906  1.0000
  H   H19       1.0  0.65653  0.78358  0.28927  1.0000
  H   H20       1.0  0.72902  0.21652  0.71086  1.0000
  H   H21       1.0  0.45892  0.32162  0.39015  1.0000
  H   H22       1.0  0.17083  0.67823  0.60957  1.0000
  H   H23       1.0  0.59934  0.82190  0.10973  1.0000
  H   H24       1.0  0.53090  0.17823  0.89030  1.0000
  H   H25       1.0  0.07793  0.14375  0.03137  1.0000
  H   H26       1.0  0.25292  0.85585  0.96832  1.0000
  H   H27       1.0  0.85892  0.64375  0.46871  1.0000
  H   H28       1.0  0.97035  0.35579  0.53162  1.0000
  H   H29       1.0  0.84934  0.17010  0.01134  1.0000
  H   H30       1.0  0.03024  0.83010  0.98863  1.0000
  H   H31       1.0  0.61014  0.67048  0.48863  1.0000
  H   H32       1.0  0.76755  0.33063  0.51149  1.0000
  C   C1        1.0  0.91361  0.02765  0.15343  1.0000
  C   C2        1.0  0.09413  0.97233  0.84645  1.0000
  C   C3        1.0  0.81660  0.52761  0.34665  1.0000
  C   C4        1.0  0.69009  0.47262  0.65364  1.0000
  C   C5        1.0  0.77499  0.00559  0.48990  1.0000
  C   C6        1.0  0.27034  0.99441  0.51004  1.0000
  C   C7        1.0  0.01491  0.50539  0.01017  1.0000
  C   C8        1.0  0.53076  0.49444  0.98994  1.0000
  C   C9        1.0  0.18789  0.37731  0.71558  1.0000
  C   C10       1.0  0.28105  0.62269  0.28432  1.0000
  C   C11       1.0  0.65307  0.87725  0.78460  1.0000
  C   C12       1.0  0.31566  0.12254  0.21528  1.0000
  C   C13       1.0  0.82936  0.17770  0.22881  1.0000
  C   C14       1.0  0.23523  0.82224  0.77111  1.0000
  C   C15       1.0  0.80776  0.67756  0.27132  1.0000
  C   C16       1.0  0.75638  0.32246  0.72880  1.0000
  C   C17       1.0  0.58315  0.21217  0.41143  1.0000
  C   C18       1.0  0.20686  0.78771  0.58831  1.0000
  C   C19       1.0  0.74485  0.71228  0.08851  1.0000
  C   C20       1.0  0.54567  0.28774  0.91155  1.0000
  C   C21       1.0  0.98195  0.07752  0.03732  1.0000
  C   C22       1.0  0.09655  0.92244  0.96255  1.0000
  C   C23       1.0  0.76867  0.57770  0.46276  1.0000
  C   C24       1.0  0.80819  0.42271  0.53753  1.0000
  N   N1        1.0  0.76328  0.13275  0.34073  1.0000
  N   N2        1.0  0.23646  0.86718  0.65914  1.0000
  N   N3        1.0  0.85388  0.63271  0.15931  1.0000
  N   N4        1.0  0.64601  0.36722  0.84081  1.0000
  N   N5        1.0  0.05517  0.50145  0.76091  1.0000
  N   N6        1.0  0.31761  0.49854  0.23907  1.0000
  N   N7        1.0  0.56579  0.00127  0.73918  1.0000
  N   N8        1.0  0.30682  0.99855  0.26065  1.0000
  N   N9        1.0  0.58649  0.13453  0.50700  1.0000
  N   N10       1.0  0.22822  0.86539  0.49278  1.0000
  N   N11       1.0  0.84377  0.63457  0.99297  1.0000
  N   N12       1.0  0.47141  0.36543  0.00710  1.0000
  N   N13       1.0  0.88815  0.00029  0.39006  1.0000
  N   N14       1.0  0.27814  0.99971  0.60994  1.0000
  N   N15       1.0  0.02802  0.50006  0.11007  1.0000
  N   N16       1.0  0.63839  0.49977  0.89005  1.0000
