data_image0
_chemical_formula_structural       Cd2H44C56N8O8
_chemical_formula_sum              "Cd2 H44 C56 N8 O8"
_cell_length_a       10.4814
_cell_length_b       10.4682
_cell_length_c       10.933
_cell_angle_alpha    92.1786
_cell_angle_beta     99.4586
_cell_angle_gamma    93.1977

_space_group_name_H-M_alt    "P 1"
_space_group_IT_number       1

loop_
  _space_group_symop_operation_xyz
  'x, y, z'

loop_
  _atom_site_type_symbol
  _atom_site_label
  _atom_site_symmetry_multiplicity
  _atom_site_fract_x
  _atom_site_fract_y
  _atom_site_fract_z
  _atom_site_occupancy
  Cd  Cd1       1.0  0.65966  0.62172  0.54516  1.0000
  Cd  Cd2       1.0  0.34035  0.37828  0.45483  1.0000
  H   H1        1.0  0.86515  0.41406  0.66872  1.0000
  H   H2        1.0  0.13485  0.58594  0.33128  1.0000
  H   H3        1.0  0.71972  0.41006  0.00850  1.0000
  H   H4        1.0  0.28028  0.58994  0.99150  1.0000
  H   H5        1.0  0.89662  0.18244  0.73199  1.0000
  H   H6        1.0  0.10338  0.81756  0.26801  1.0000
  H   H7        1.0  0.06691  0.04253  0.81584  1.0000
  H   H8        1.0  0.93309  0.95747  0.18416  1.0000
  H   H9        1.0  0.12704  0.26214  0.16518  1.0000
  H   H10       1.0  0.87296  0.73785  0.83482  1.0000
  H   H11       1.0  0.95698  0.40131  0.08096  1.0000
  H   H12       1.0  0.04302  0.59869  0.91904  1.0000
  H   H13       1.0  0.23795  0.96334  0.87171  1.0000
  H   H14       1.0  0.76205  0.03666  0.12829  1.0000
  H   H15       1.0  0.40629  0.82539  0.96052  1.0000
  H   H16       1.0  0.59371  0.17461  0.03949  1.0000
  H   H17       1.0  0.39721  0.99539  0.32542  1.0000
  H   H18       1.0  0.60278  0.00461  0.67458  1.0000
  H   H19       1.0  0.22556  0.12518  0.24032  1.0000
  H   H20       1.0  0.77443  0.87482  0.75969  1.0000
  H   H21       1.0  0.45021  0.80148  0.38403  1.0000
  H   H22       1.0  0.54979  0.19852  0.61597  1.0000
  H   H23       1.0  0.62322  0.78401  0.06066  1.0000
  H   H24       1.0  0.37677  0.21600  0.93934  1.0000
  H   H25       1.0  0.53446  0.59212  0.95111  1.0000
  H   H26       1.0  0.46554  0.40788  0.04889  1.0000
  H   H27       1.0  0.45932  0.55713  0.79351  1.0000
  H   H28       1.0  0.54068  0.44287  0.20649  1.0000
  H   H29       1.0  0.56850  0.69308  0.83086  1.0000
  H   H30       1.0  0.43150  0.30692  0.16914  1.0000
  H   H31       1.0  0.75703  0.50872  0.25675  1.0000
  H   H32       1.0  0.24297  0.49128  0.74325  1.0000
  H   H33       1.0  0.86527  0.64129  0.30643  1.0000
  H   H34       1.0  0.13473  0.35872  0.69357  1.0000
  H   H35       1.0  0.81007  0.61012  0.14397  1.0000
  H   H36       1.0  0.18993  0.38989  0.85603  1.0000
  H   H37       1.0  0.14455  0.60565  0.56271  1.0000
  H   H38       1.0  0.85545  0.39435  0.43729  1.0000
  H   H39       1.0  0.39348  0.95178  0.61323  1.0000
  H   H40       1.0  0.60652  0.04822  0.38677  1.0000
  H   H41       1.0  0.20291  0.08090  0.62810  1.0000
  H   H42       1.0  0.79710  0.91910  0.37191  1.0000
  H   H43       1.0  0.98321  0.96670  0.61764  1.0000
  H   H44       1.0  0.01680  0.03330  0.38236  1.0000
  C   C1        1.0  0.80341  0.43276  0.73700  1.0000
  C   C2        1.0  0.19658  0.56724  0.26300  1.0000
  C   C3        1.0  0.65828  0.51448  0.83474  1.0000
  C   C4        1.0  0.34172  0.48552  0.16526  1.0000
  C   C5        1.0  0.72795  0.43572  0.91501  1.0000
  C   C6        1.0  0.27205  0.56428  0.08499  1.0000
  C   C7        1.0  0.91668  0.30156  0.90069  1.0000
  C   C8        1.0  0.08332  0.69844  0.09931  1.0000
  C   C9        1.0  0.94912  0.20098  0.82625  1.0000
  C   C10       1.0  0.05088  0.79902  0.17375  1.0000
  C   C11       1.0  0.04586  0.12231  0.87446  1.0000
  C   C12       1.0  0.95414  0.87769  0.12554  1.0000
  C   C13       1.0  0.11306  0.14108  0.99684  1.0000
  C   C14       1.0  0.88694  0.85891  0.00316  1.0000
  C   C15       1.0  0.07786  0.24291  0.07001  1.0000
  C   C16       1.0  0.92214  0.75709  0.92999  1.0000
  C   C17       1.0  0.98102  0.32203  0.02307  1.0000
  C   C18       1.0  0.01898  0.67797  0.97693  1.0000
  C   C19       1.0  0.21615  0.05713  0.04767  1.0000
  C   C20       1.0  0.78385  0.94287  0.95233  1.0000
  C   C21       1.0  0.27039  0.97056  0.97180  1.0000
  C   C22       1.0  0.72961  0.02944  0.02820  1.0000
  C   C23       1.0  0.36696  0.89196  0.02154  1.0000
  C   C24       1.0  0.63304  0.10804  0.97846  1.0000
  C   C25       1.0  0.41251  0.89854  0.14945  1.0000
  C   C26       1.0  0.58749  0.10146  0.85055  1.0000
  C   C27       1.0  0.36133  0.98519  0.22606  1.0000
  C   C28       1.0  0.63867  0.01481  0.77394  1.0000
  C   C29       1.0  0.26439  0.06215  0.17583  1.0000
  C   C30       1.0  0.73561  0.93785  0.82417  1.0000
  C   C31       1.0  0.51516  0.77500  0.32144  1.0000
  C   C32       1.0  0.48484  0.22500  0.67856  1.0000
  C   C33       1.0  0.60517  0.76192  0.15233  1.0000
  C   C34       1.0  0.39483  0.23808  0.84767  1.0000
  C   C35       1.0  0.66961  0.68838  0.24169  1.0000
  C   C36       1.0  0.33039  0.31162  0.75831  1.0000
  C   C37       1.0  0.54905  0.59333  0.85421  1.0000
  C   C38       1.0  0.45095  0.40667  0.14579  1.0000
  C   C39       1.0  0.78159  0.60822  0.23600  1.0000
  C   C40       1.0  0.21842  0.39178  0.76400  1.0000
  C   C41       1.0  0.91777  0.71712  0.57708  1.0000
  C   C42       1.0  0.08223  0.28288  0.42292  1.0000
  C   C43       1.0  0.39956  0.69744  0.58206  1.0000
  C   C44       1.0  0.60045  0.30256  0.41793  1.0000
  C   C45       1.0  0.05179  0.78073  0.59059  1.0000
  C   C46       1.0  0.94821  0.21927  0.40941  1.0000
  C   C47       1.0  0.15878  0.70923  0.57999  1.0000
  C   C48       1.0  0.84122  0.29077  0.42001  1.0000
  C   C49       1.0  0.28233  0.77147  0.59062  1.0000
  C   C50       1.0  0.71767  0.22854  0.40938  1.0000
  C   C51       1.0  0.29713  0.90540  0.60778  1.0000
  C   C52       1.0  0.70287  0.09460  0.39222  1.0000
  C   C53       1.0  0.19068  0.97682  0.61722  1.0000
  C   C54       1.0  0.80932  0.02318  0.38278  1.0000
  C   C55       1.0  0.06863  0.91411  0.61063  1.0000
  C   C56       1.0  0.93138  0.08589  0.38937  1.0000
  N   N1        1.0  0.70721  0.51126  0.72428  1.0000
  N   N2        1.0  0.29279  0.48874  0.27572  1.0000
  N   N3        1.0  0.81934  0.38395  0.85204  1.0000
  N   N4        1.0  0.18066  0.61605  0.14796  1.0000
  N   N5        1.0  0.50728  0.81672  0.20407  1.0000
  N   N6        1.0  0.49272  0.18328  0.79593  1.0000
  N   N7        1.0  0.61138  0.69827  0.34676  1.0000
  N   N8        1.0  0.38862  0.30172  0.65324  1.0000
  O   O1        1.0  0.89764  0.60172  0.53562  1.0000
  O   O2        1.0  0.10236  0.39828  0.46438  1.0000
  O   O3        1.0  0.82814  0.78484  0.60652  1.0000
  O   O4        1.0  0.17186  0.21516  0.39348  1.0000
  O   O5        1.0  0.38678  0.57660  0.56508  1.0000
  O   O6        1.0  0.61321  0.42340  0.43491  1.0000
  O   O7        1.0  0.50874  0.76164  0.59339  1.0000
  O   O8        1.0  0.49126  0.23836  0.40661  1.0000
