data_image0
_chemical_formula_structural       Cu2H46C46N4O12
_chemical_formula_sum              "Cu2 H46 C46 N4 O12"
_cell_length_a       7.85514
_cell_length_b       11.447
_cell_length_c       13.4693
_cell_angle_alpha    100.835
_cell_angle_beta     98.3087
_cell_angle_gamma    105.517

_space_group_name_H-M_alt    "P 1"
_space_group_IT_number       1

loop_
  _space_group_symop_operation_xyz
  'x, y, z'

loop_
  _atom_site_type_symbol
  _atom_site_label
  _atom_site_symmetry_multiplicity
  _atom_site_fract_x
  _atom_site_fract_y
  _atom_site_fract_z
  _atom_site_occupancy
  Cu  Cu1       1.0  0.13987  0.56692  0.97278  1.0000
  Cu  Cu2       1.0  0.86014  0.43308  0.02721  1.0000
  H   H1        1.0  0.25083  0.89751  0.20038  1.0000
  H   H2        1.0  0.74917  0.10249  0.79962  1.0000
  H   H3        1.0  0.69287  0.74490  0.20952  1.0000
  H   H4        1.0  0.30712  0.25511  0.79048  1.0000
  H   H5        1.0  0.70754  0.93515  0.33701  1.0000
  H   H6        1.0  0.29247  0.06485  0.66299  1.0000
  H   H7        1.0  0.26994  0.09122  0.33177  1.0000
  H   H8        1.0  0.73007  0.90877  0.66824  1.0000
  H   H9        1.0  0.81629  0.07084  0.49655  1.0000
  H   H10       1.0  0.18370  0.92916  0.50344  1.0000
  H   H11       1.0  0.76052  0.15097  0.39996  1.0000
  H   H12       1.0  0.23948  0.84902  0.60003  1.0000
  H   H13       1.0  0.99549  0.34675  0.50393  1.0000
  H   H14       1.0  0.00450  0.65325  0.49607  1.0000
  H   H15       1.0  0.05453  0.26686  0.59751  1.0000
  H   H16       1.0  0.94546  0.73314  0.40249  1.0000
  H   H17       1.0  0.75507  0.23497  0.64513  1.0000
  H   H18       1.0  0.24492  0.76503  0.35487  1.0000
  H   H19       1.0  0.86526  0.39407  0.65722  1.0000
  H   H20       1.0  0.13473  0.60592  0.34278  1.0000
  H   H21       1.0  0.54794  0.21971  0.48611  1.0000
  H   H22       1.0  0.45205  0.78028  0.51389  1.0000
  H   H23       1.0  0.55250  0.35435  0.57957  1.0000
  H   H24       1.0  0.44749  0.64564  0.42042  1.0000
  H   H25       1.0  0.32633  0.31752  0.44147  1.0000
  H   H26       1.0  0.67368  0.68248  0.55853  1.0000
  H   H27       1.0  0.78563  0.49830  0.32355  1.0000
  H   H28       1.0  0.21438  0.50170  0.67645  1.0000
  H   H29       1.0  0.57987  0.54010  0.18684  1.0000
  H   H30       1.0  0.42016  0.45990  0.81317  1.0000
  H   H31       1.0  0.12287  0.35727  0.30296  1.0000
  H   H32       1.0  0.87713  0.64274  0.69703  1.0000
  H   H33       1.0  0.59156  0.66083  0.99759  1.0000
  H   H34       1.0  0.40843  0.33917  0.00241  1.0000
  H   H35       1.0  0.19242  0.78677  0.84662  1.0000
  H   H36       1.0  0.80757  0.21324  0.15337  1.0000
  H   H37       1.0  0.53166  0.92742  0.82704  1.0000
  H   H38       1.0  0.46833  0.07259  0.17296  1.0000
  H   H39       1.0  0.83928  0.85256  0.84632  1.0000
  H   H40       1.0  0.16071  0.14744  0.15368  1.0000
  H   H41       1.0  0.86894  0.78149  0.95041  1.0000
  H   H42       1.0  0.13104  0.21850  0.04959  1.0000
  H   H43       1.0  0.87083  0.97411  0.07457  1.0000
  H   H44       1.0  0.12917  0.02589  0.92544  1.0000
  H   H45       1.0  0.83780  0.04710  0.97174  1.0000
  H   H46       1.0  0.16220  0.95290  0.02827  1.0000
  C   C1        1.0  0.96898  0.69411  0.12211  1.0000
  C   C2        1.0  0.03103  0.30589  0.87788  1.0000
  C   C3        1.0  0.97167  0.80887  0.19731  1.0000
  C   C4        1.0  0.02833  0.19113  0.80270  1.0000
  C   C5        1.0  0.13372  0.90769  0.23165  1.0000
  C   C6        1.0  0.86628  0.09230  0.76836  1.0000
  C   C7        1.0  0.81947  0.82064  0.23598  1.0000
  C   C8        1.0  0.18053  0.17936  0.76402  1.0000
  C   C9        1.0  0.82771  0.92821  0.30797  1.0000
  C   C10       1.0  0.17230  0.07179  0.69203  1.0000
  C   C11       1.0  0.14479  0.01417  0.30411  1.0000
  C   C12       1.0  0.85521  0.98583  0.69589  1.0000
  C   C13       1.0  0.99174  0.02484  0.34352  1.0000
  C   C14       1.0  0.00826  0.97517  0.65648  1.0000
  C   C15       1.0  0.86871  0.14922  0.46133  1.0000
  C   C16       1.0  0.13129  0.85078  0.53867  1.0000
  C   C17       1.0  0.94125  0.27195  0.54193  1.0000
  C   C18       1.0  0.05874  0.72805  0.45807  1.0000
  C   C19       1.0  0.80063  0.30445  0.60053  1.0000
  C   C20       1.0  0.19935  0.69554  0.39947  1.0000
  C   C21       1.0  0.63431  0.31265  0.53237  1.0000
  C   C22       1.0  0.36568  0.68735  0.46763  1.0000
  C   C23       1.0  0.57064  0.40685  0.39182  1.0000
  C   C24       1.0  0.42936  0.59314  0.60817  1.0000
  C   C25       1.0  0.38352  0.36595  0.38615  1.0000
  C   C26       1.0  0.61647  0.63405  0.61385  1.0000
  C   C27       1.0  0.64058  0.47047  0.31995  1.0000
  C   C28       1.0  0.35944  0.52952  0.68005  1.0000
  C   C29       1.0  0.52486  0.49379  0.24379  1.0000
  C   C30       1.0  0.47517  0.50621  0.75621  1.0000
  C   C31       1.0  0.26840  0.38896  0.30831  1.0000
  C   C32       1.0  0.73161  0.61104  0.69169  1.0000
  C   C33       1.0  0.33704  0.45308  0.23679  1.0000
  C   C34       1.0  0.66298  0.54692  0.76321  1.0000
  C   C35       1.0  0.21453  0.47370  0.15127  1.0000
  C   C36       1.0  0.78550  0.52631  0.84872  1.0000
  C   C37       1.0  0.52616  0.71440  0.95532  1.0000
  C   C38       1.0  0.47382  0.28560  0.04468  1.0000
  C   C39       1.0  0.32608  0.78235  0.87565  1.0000
  C   C40       1.0  0.67391  0.21765  0.12434  1.0000
  C   C41       1.0  0.49168  0.85129  0.86428  1.0000
  C   C42       1.0  0.50831  0.14872  0.13571  1.0000
  C   C43       1.0  0.81205  0.85069  0.92393  1.0000
  C   C44       1.0  0.18794  0.14931  0.07608  1.0000
  C   C45       1.0  0.89860  0.97877  0.99731  1.0000
  C   C46       1.0  0.10140  0.02122  0.00270  1.0000
  N   N1        1.0  0.34983  0.69760  0.93253  1.0000
  N   N2        1.0  0.65016  0.30241  0.06746  1.0000
  N   N3        1.0  0.61741  0.80664  0.91497  1.0000
  N   N4        1.0  0.38259  0.19337  0.08503  1.0000
  O   O1        1.0  0.09439  0.70731  0.07088  1.0000
  O   O2        1.0  0.90561  0.29269  0.92911  1.0000
  O   O3        1.0  0.84465  0.59323  0.11541  1.0000
  O   O4        1.0  0.15535  0.40678  0.88459  1.0000
  O   O5        1.0  0.01804  0.13147  0.41612  1.0000
  O   O6        1.0  0.98197  0.86853  0.58389  1.0000
  O   O7        1.0  0.69574  0.38878  0.46347  1.0000
  O   O8        1.0  0.30425  0.61121  0.53653  1.0000
  O   O9        1.0  0.04479  0.42441  0.14241  1.0000
  O   O10       1.0  0.95523  0.57559  0.85759  1.0000
  O   O11       1.0  0.28892  0.53737  0.09200  1.0000
  O   O12       1.0  0.71109  0.46264  0.90799  1.0000
