data_image0
_chemical_formula_structural       Zn4H52C52N20O20
_chemical_formula_sum              "Zn4 H52 C52 N20 O20"
_cell_length_a       12.4772
_cell_length_b       12.4771
_cell_length_c       14.1943
_cell_angle_alpha    71.1382
_cell_angle_beta     71.138
_cell_angle_gamma    79.6259

_space_group_name_H-M_alt    "P 1"
_space_group_IT_number       1

loop_
  _space_group_symop_operation_xyz
  'x, y, z'

loop_
  _atom_site_type_symbol
  _atom_site_label
  _atom_site_symmetry_multiplicity
  _atom_site_fract_x
  _atom_site_fract_y
  _atom_site_fract_z
  _atom_site_occupancy
  Zn  Zn1       1.0  0.73488  0.13525  0.11875  1.0000
  Zn  Zn2       1.0  0.86475  0.26513  0.38125  1.0000
  Zn  Zn3       1.0  0.26513  0.86475  0.88125  1.0000
  Zn  Zn4       1.0  0.13525  0.73488  0.61875  1.0000
  H   H1        1.0  0.84368  0.12407  0.91650  1.0000
  H   H2        1.0  0.87593  0.15632  0.58350  1.0000
  H   H3        1.0  0.15632  0.87593  0.08350  1.0000
  H   H4        1.0  0.12407  0.84368  0.41650  1.0000
  H   H5        1.0  0.79576  0.25174  0.92412  1.0000
  H   H6        1.0  0.74826  0.20424  0.57588  1.0000
  H   H7        1.0  0.20424  0.74826  0.07588  1.0000
  H   H8        1.0  0.25174  0.79576  0.42412  1.0000
  H   H9        1.0  0.75014  0.33593  0.13242  1.0000
  H   H10       1.0  0.66407  0.24986  0.36757  1.0000
  H   H11       1.0  0.24986  0.66407  0.86758  1.0000
  H   H12       1.0  0.33593  0.75014  0.63242  1.0000
  H   H13       1.0  0.63914  0.32736  0.09683  1.0000
  H   H14       1.0  0.67265  0.36085  0.40317  1.0000
  H   H15       1.0  0.36085  0.67265  0.90317  1.0000
  H   H16       1.0  0.32735  0.63915  0.59683  1.0000
  H   H17       1.0  0.73048  0.07871  0.33207  1.0000
  H   H18       1.0  0.92129  0.26952  0.16793  1.0000
  H   H19       1.0  0.26952  0.92129  0.66793  1.0000
  H   H20       1.0  0.07871  0.73048  0.83207  1.0000
  H   H21       1.0  0.60339  0.09626  0.31959  1.0000
  H   H22       1.0  0.90374  0.39661  0.18041  1.0000
  H   H23       1.0  0.39661  0.90374  0.68040  1.0000
  H   H24       1.0  0.09626  0.60339  0.81959  1.0000
  H   H25       1.0  0.31175  0.34479  0.09509  1.0000
  H   H26       1.0  0.65521  0.68826  0.40491  1.0000
  H   H27       1.0  0.68826  0.65521  0.90491  1.0000
  H   H28       1.0  0.34479  0.31175  0.59509  1.0000
  H   H29       1.0  0.12705  0.29199  0.09623  1.0000
  H   H30       1.0  0.70801  0.87295  0.40377  1.0000
  H   H31       1.0  0.87295  0.70801  0.90377  1.0000
  H   H32       1.0  0.29199  0.12705  0.59622  1.0000
  H   H33       1.0  0.26204  0.94166  0.14395  1.0000
  H   H34       1.0  0.05835  0.73796  0.35605  1.0000
  H   H35       1.0  0.73796  0.05835  0.85605  1.0000
  H   H36       1.0  0.94165  0.26204  0.64395  1.0000
  H   H37       1.0  0.44450  0.99613  0.14261  1.0000
  H   H38       1.0  0.00387  0.55549  0.35739  1.0000
  H   H39       1.0  0.55549  0.00387  0.85739  1.0000
  H   H40       1.0  0.99613  0.44450  0.64261  1.0000
  H   H41       1.0  0.00141  0.76026  0.12570  1.0000
  H   H42       1.0  0.23975  0.99859  0.37430  1.0000
  H   H43       1.0  0.99859  0.23975  0.87430  1.0000
  H   H44       1.0  0.76025  0.00141  0.62571  1.0000
  H   H45       1.0  0.67808  0.70023  0.14343  1.0000
  H   H46       1.0  0.29977  0.32192  0.35657  1.0000
  H   H47       1.0  0.32192  0.29977  0.85657  1.0000
  H   H48       1.0  0.70024  0.67807  0.64343  1.0000
  H   H49       1.0  0.60982  0.90647  0.13851  1.0000
  H   H50       1.0  0.09353  0.39019  0.36150  1.0000
  H   H51       1.0  0.39018  0.09353  0.86149  1.0000
  H   H52       1.0  0.90648  0.60981  0.63851  1.0000
  C   C1        1.0  0.49839  0.20414  0.12257  1.0000
  C   C2        1.0  0.79587  0.50161  0.37743  1.0000
  C   C3        1.0  0.50161  0.79587  0.87743  1.0000
  C   C4        1.0  0.20413  0.49839  0.62257  1.0000
  C   C5        1.0  0.38871  0.17336  0.12002  1.0000
  C   C6        1.0  0.82664  0.61129  0.37998  1.0000
  C   C7        1.0  0.61130  0.82664  0.87997  1.0000
  C   C8        1.0  0.17336  0.38871  0.62002  1.0000
  C   C9        1.0  0.29894  0.25677  0.10648  1.0000
  C   C10       1.0  0.74323  0.70106  0.39352  1.0000
  C   C11       1.0  0.70106  0.74322  0.89352  1.0000
  C   C12       1.0  0.25677  0.29894  0.60648  1.0000
  C   C13       1.0  0.19626  0.22688  0.10787  1.0000
  C   C14       1.0  0.77312  0.80374  0.39213  1.0000
  C   C15       1.0  0.80374  0.77311  0.89213  1.0000
  C   C16       1.0  0.22688  0.19626  0.60787  1.0000
  C   C17       1.0  0.18129  0.11292  0.12211  1.0000
  C   C18       1.0  0.88708  0.81871  0.37789  1.0000
  C   C19       1.0  0.81871  0.88708  0.87789  1.0000
  C   C20       1.0  0.11291  0.18130  0.62211  1.0000
  C   C21       1.0  0.27191  0.02983  0.13409  1.0000
  C   C22       1.0  0.97017  0.72809  0.36591  1.0000
  C   C23       1.0  0.72809  0.97017  0.86591  1.0000
  C   C24       1.0  0.02982  0.27192  0.63409  1.0000
  C   C25       1.0  0.37417  0.06024  0.13280  1.0000
  C   C26       1.0  0.93975  0.62582  0.36720  1.0000
  C   C27       1.0  0.62582  0.93975  0.86720  1.0000
  C   C28       1.0  0.06024  0.37418  0.63280  1.0000
  C   C29       1.0  0.07387  0.08145  0.12316  1.0000
  C   C30       1.0  0.91855  0.92613  0.37684  1.0000
  C   C31       1.0  0.92613  0.91855  0.87684  1.0000
  C   C32       1.0  0.08145  0.07387  0.62315  1.0000
  C   C33       1.0  0.94586  0.98935  0.12425  1.0000
  C   C34       1.0  0.01065  0.05414  0.37575  1.0000
  C   C35       1.0  0.05414  0.01065  0.87575  1.0000
  C   C36       1.0  0.98935  0.94586  0.62425  1.0000
  C   C37       1.0  0.87599  0.90542  0.12822  1.0000
  C   C38       1.0  0.09458  0.12401  0.37178  1.0000
  C   C39       1.0  0.12401  0.09458  0.87178  1.0000
  C   C40       1.0  0.90542  0.87599  0.62823  1.0000
  C   C41       1.0  0.91342  0.79224  0.12902  1.0000
  C   C42       1.0  0.20776  0.08658  0.37098  1.0000
  C   C43       1.0  0.08657  0.20776  0.87098  1.0000
  C   C44       1.0  0.79224  0.91342  0.62902  1.0000
  C   C45       1.0  0.73551  0.75932  0.13888  1.0000
  C   C46       1.0  0.24068  0.26449  0.36112  1.0000
  C   C47       1.0  0.26449  0.24068  0.86113  1.0000
  C   C48       1.0  0.75932  0.73550  0.63887  1.0000
  C   C49       1.0  0.69701  0.87227  0.13685  1.0000
  C   C50       1.0  0.12773  0.30299  0.36315  1.0000
  C   C51       1.0  0.30299  0.12773  0.86315  1.0000
  C   C52       1.0  0.87227  0.69701  0.63685  1.0000
  N   N1        1.0  0.97923  0.15414  0.12492  1.0000
  N   N2        1.0  0.84586  0.02077  0.37508  1.0000
  N   N3        1.0  0.02077  0.84586  0.87508  1.0000
  N   N4        1.0  0.15414  0.97924  0.62492  1.0000
  N   N5        1.0  0.89849  0.09491  0.12540  1.0000
  N   N6        1.0  0.90509  0.10151  0.37460  1.0000
  N   N7        1.0  0.10151  0.90509  0.87460  1.0000
  N   N8        1.0  0.09491  0.89849  0.62540  1.0000
  N   N9        1.0  0.05608  0.97699  0.12235  1.0000
  N   N10       1.0  0.02301  0.94392  0.37765  1.0000
  N   N11       1.0  0.94392  0.02301  0.87765  1.0000
  N   N12       1.0  0.97699  0.05608  0.62235  1.0000
  N   N13       1.0  0.76697  0.94457  0.13156  1.0000
  N   N14       1.0  0.05543  0.23303  0.36844  1.0000
  N   N15       1.0  0.23303  0.05543  0.86844  1.0000
  N   N16       1.0  0.94458  0.76697  0.63156  1.0000
  N   N17       1.0  0.84379  0.71942  0.13426  1.0000
  N   N18       1.0  0.28058  0.15622  0.36574  1.0000
  N   N19       1.0  0.15621  0.28058  0.86574  1.0000
  N   N20       1.0  0.71943  0.84378  0.63426  1.0000
  O   O1        1.0  0.51130  0.30691  0.10723  1.0000
  O   O2        1.0  0.69309  0.48869  0.39277  1.0000
  O   O3        1.0  0.48870  0.69308  0.89278  1.0000
  O   O4        1.0  0.30691  0.51131  0.60723  1.0000
  O   O5        1.0  0.57217  0.11891  0.14128  1.0000
  O   O6        1.0  0.88109  0.42783  0.35872  1.0000
  O   O7        1.0  0.42782  0.88109  0.85872  1.0000
  O   O8        1.0  0.11890  0.57218  0.64128  1.0000
  O   O9        1.0  0.77692  0.17317  0.94919  1.0000
  O   O10       1.0  0.82684  0.22308  0.55081  1.0000
  O   O11       1.0  0.22308  0.82684  0.05081  1.0000
  O   O12       1.0  0.17316  0.77692  0.44919  1.0000
  O   O13       1.0  0.72553  0.31578  0.08160  1.0000
  O   O14       1.0  0.68423  0.27446  0.41840  1.0000
  O   O15       1.0  0.27447  0.68423  0.91840  1.0000
  O   O16       1.0  0.31577  0.72553  0.58160  1.0000
  O   O17       1.0  0.67489  0.13125  0.29496  1.0000
  O   O18       1.0  0.86875  0.32511  0.20504  1.0000
  O   O19       1.0  0.32511  0.86875  0.70504  1.0000
  O   O20       1.0  0.13125  0.67489  0.79496  1.0000
