data_image0
_chemical_formula_structural       Cu4H4C12N28
_chemical_formula_sum              "Cu4 H4 C12 N28"
_cell_length_a       7.35601
_cell_length_b       9.43126
_cell_length_c       9.65367
_cell_angle_alpha    90
_cell_angle_beta     90
_cell_angle_gamma    114.083

_space_group_name_H-M_alt    "P 1"
_space_group_IT_number       1

loop_
  _space_group_symop_operation_xyz
  'x, y, z'

loop_
  _atom_site_type_symbol
  _atom_site_label
  _atom_site_symmetry_multiplicity
  _atom_site_fract_x
  _atom_site_fract_y
  _atom_site_fract_z
  _atom_site_occupancy
  Cu  Cu1       1.0  0.75789  0.53326  0.07737  1.0000
  Cu  Cu2       1.0  0.74211  0.96674  0.57737  1.0000
  Cu  Cu3       1.0  0.24211  0.46675  0.92263  1.0000
  Cu  Cu4       1.0  0.25789  0.03325  0.42263  1.0000
  H   H1        1.0  0.52373  0.68670  0.33191  1.0000
  H   H2        1.0  0.97627  0.81330  0.83191  1.0000
  H   H3        1.0  0.47626  0.31329  0.66810  1.0000
  H   H4        1.0  0.02374  0.18671  0.16809  1.0000
  C   C1        1.0  0.68404  0.73950  0.31938  1.0000
  C   C2        1.0  0.81596  0.76050  0.81938  1.0000
  C   C3        1.0  0.31596  0.26050  0.68062  1.0000
  C   C4        1.0  0.18403  0.23951  0.18062  1.0000
  C   C5        1.0  0.12812  0.77237  0.16545  1.0000
  C   C6        1.0  0.37188  0.72763  0.66546  1.0000
  C   C7        1.0  0.87187  0.22763  0.83455  1.0000
  C   C8        1.0  0.62813  0.27237  0.33455  1.0000
  C   C9        1.0  0.97771  0.79525  0.24549  1.0000
  C   C10       1.0  0.52229  0.70475  0.74549  1.0000
  C   C11       1.0  0.02229  0.20475  0.75451  1.0000
  C   C12       1.0  0.47771  0.29525  0.25451  1.0000
  N   N1        1.0  0.22783  0.64723  0.02400  1.0000
  N   N2        1.0  0.27217  0.85277  0.52400  1.0000
  N   N3        1.0  0.77217  0.35277  0.97600  1.0000
  N   N4        1.0  0.72782  0.14723  0.47600  1.0000
  N   N5        1.0  0.80545  0.85831  0.39627  1.0000
  N   N6        1.0  0.69455  0.64168  0.89627  1.0000
  N   N7        1.0  0.19454  0.14168  0.60373  1.0000
  N   N8        1.0  0.30546  0.35832  0.10373  1.0000
  N   N9        1.0  0.99343  0.89382  0.34799  1.0000
  N   N10       1.0  0.50658  0.60618  0.84799  1.0000
  N   N11       1.0  0.00657  0.10618  0.65201  1.0000
  N   N12       1.0  0.49343  0.39383  0.15201  1.0000
  N   N13       1.0  0.06223  0.65004  0.07873  1.0000
  N   N14       1.0  0.43777  0.84996  0.57873  1.0000
  N   N15       1.0  0.93777  0.34996  0.92127  1.0000
  N   N16       1.0  0.56223  0.15004  0.42127  1.0000
  N   N17       1.0  0.78580  0.69618  0.22382  1.0000
  N   N18       1.0  0.71420  0.80382  0.72382  1.0000
  N   N19       1.0  0.21420  0.30382  0.77618  1.0000
  N   N20       1.0  0.28580  0.19619  0.27618  1.0000
  N   N21       1.0  0.38703  0.76336  0.07476  1.0000
  N   N22       1.0  0.11298  0.73664  0.57477  1.0000
  N   N23       1.0  0.61297  0.23664  0.92523  1.0000
  N   N24       1.0  0.88702  0.26336  0.42523  1.0000
  N   N25       1.0  0.32757  0.84443  0.16460  1.0000
  N   N26       1.0  0.17243  0.65557  0.66461  1.0000
  N   N27       1.0  0.67242  0.15557  0.83539  1.0000
  N   N28       1.0  0.82757  0.34443  0.33539  1.0000
