data_image0
_chemical_formula_structural       Cu4H8C12N28
_chemical_formula_sum              "Cu4 H8 C12 N28"
_cell_length_a       6.67427
_cell_length_b       8.58311
_cell_length_c       9.75409
_cell_angle_alpha    90.0001
_cell_angle_beta     90
_cell_angle_gamma    107.133

_space_group_name_H-M_alt    "P 1"
_space_group_IT_number       1

loop_
  _space_group_symop_operation_xyz
  'x, y, z'

loop_
  _atom_site_type_symbol
  _atom_site_label
  _atom_site_symmetry_multiplicity
  _atom_site_fract_x
  _atom_site_fract_y
  _atom_site_fract_z
  _atom_site_occupancy
  Cu  Cu1       1.0  0.56747  0.59202  0.16716  1.0000
  Cu  Cu2       1.0  0.93254  0.40798  0.66716  1.0000
  Cu  Cu3       1.0  0.43254  0.40798  0.83284  1.0000
  Cu  Cu4       1.0  0.06746  0.59202  0.33284  1.0000
  H   H1        1.0  0.25178  0.02278  0.88084  1.0000
  H   H2        1.0  0.24821  0.97722  0.38085  1.0000
  H   H3        1.0  0.74821  0.97722  0.11916  1.0000
  H   H4        1.0  0.75179  0.02278  0.61916  1.0000
  H   H5        1.0  0.10092  0.82598  0.67527  1.0000
  H   H6        1.0  0.39909  0.17402  0.17528  1.0000
  H   H7        1.0  0.89908  0.17402  0.32472  1.0000
  H   H8        1.0  0.60092  0.82599  0.82472  1.0000
  C   C1        1.0  0.52526  0.29807  0.49840  1.0000
  C   C2        1.0  0.97473  0.70193  0.99840  1.0000
  C   C3        1.0  0.47473  0.70192  0.50160  1.0000
  C   C4        1.0  0.02526  0.29807  0.00160  1.0000
  C   C5        1.0  0.40180  0.17705  0.59330  1.0000
  C   C6        1.0  0.09820  0.82296  0.09330  1.0000
  C   C7        1.0  0.59820  0.82296  0.40670  1.0000
  C   C8        1.0  0.90181  0.17705  0.90670  1.0000
  C   C9        1.0  0.20271  0.94997  0.66605  1.0000
  C   C10       1.0  0.29726  0.05000  0.16605  1.0000
  C   C11       1.0  0.79728  0.05001  0.33395  1.0000
  C   C12       1.0  0.70271  0.94997  0.83395  1.0000
  N   N1        1.0  0.60769  0.44562  0.32037  1.0000
  N   N2        1.0  0.89231  0.55438  0.82037  1.0000
  N   N3        1.0  0.39232  0.55438  0.67963  1.0000
  N   N4        1.0  0.10769  0.44562  0.17963  1.0000
  N   N5        1.0  0.77760  0.47612  0.39968  1.0000
  N   N6        1.0  0.72240  0.52388  0.89968  1.0000
  N   N7        1.0  0.22241  0.52388  0.60032  1.0000
  N   N8        1.0  0.27760  0.47612  0.10032  1.0000
  N   N9        1.0  0.72932  0.38424  0.51384  1.0000
  N   N10       1.0  0.77068  0.61576  0.01384  1.0000
  N   N11       1.0  0.27068  0.61576  0.48615  1.0000
  N   N12       1.0  0.22932  0.38424  0.98615  1.0000
  N   N13       1.0  0.44807  0.33317  0.37915  1.0000
  N   N14       1.0  0.05193  0.66683  0.87915  1.0000
  N   N15       1.0  0.55193  0.66683  0.62085  1.0000
  N   N16       1.0  0.94807  0.33317  0.12085  1.0000
  N   N17       1.0  0.39835  0.19505  0.73003  1.0000
  N   N18       1.0  0.10164  0.80495  0.23003  1.0000
  N   N19       1.0  0.60165  0.80495  0.26997  1.0000
  N   N20       1.0  0.89836  0.19505  0.76997  1.0000
  N   N21       1.0  0.27350  0.04784  0.77393  1.0000
  N   N22       1.0  0.22650  0.95217  0.27392  1.0000
  N   N23       1.0  0.72650  0.95217  0.22607  1.0000
  N   N24       1.0  0.77350  0.04784  0.72606  1.0000
  N   N25       1.0  0.27950  0.02795  0.55025  1.0000
  N   N26       1.0  0.22050  0.97205  0.05025  1.0000
  N   N27       1.0  0.72050  0.97205  0.44975  1.0000
  N   N28       1.0  0.77950  0.02796  0.94975  1.0000
