data_image0
_chemical_formula_structural       Zn4H36C44N8O8
_chemical_formula_sum              "Zn4 H36 C44 N8 O8"
_cell_length_a       7.50864
_cell_length_b       10.8189
_cell_length_c       13.9835
_cell_angle_alpha    105.291
_cell_angle_beta     105.57
_cell_angle_gamma    90.0116

_space_group_name_H-M_alt    "P 1"
_space_group_IT_number       1

loop_
  _space_group_symop_operation_xyz
  'x, y, z'

loop_
  _atom_site_type_symbol
  _atom_site_label
  _atom_site_symmetry_multiplicity
  _atom_site_fract_x
  _atom_site_fract_y
  _atom_site_fract_z
  _atom_site_occupancy
  Zn  Zn1       1.0  0.05818  0.72950  0.42959  1.0000
  Zn  Zn2       1.0  0.62873  0.77046  0.57046  1.0000
  Zn  Zn3       1.0  0.94182  0.27050  0.57041  1.0000
  Zn  Zn4       1.0  0.37127  0.22954  0.42954  1.0000
  H   H1        1.0  0.07687  0.66595  0.72565  1.0000
  H   H2        1.0  0.35137  0.83408  0.27453  1.0000
  H   H3        1.0  0.92313  0.33405  0.27435  1.0000
  H   H4        1.0  0.64863  0.16592  0.72547  1.0000
  H   H5        1.0  0.17681  0.64500  0.90545  1.0000
  H   H6        1.0  0.27153  0.85488  0.09468  1.0000
  H   H7        1.0  0.82319  0.35500  0.09455  1.0000
  H   H8        1.0  0.72847  0.14512  0.90532  1.0000
  H   H9        1.0  0.57334  0.90573  0.78863  1.0000
  H   H10       1.0  0.78478  0.59424  0.21155  1.0000
  H   H11       1.0  0.42666  0.09427  0.21137  1.0000
  H   H12       1.0  0.21522  0.40576  0.78845  1.0000
  H   H13       1.0  0.69912  0.98560  0.04949  1.0000
  H   H14       1.0  0.64950  0.51436  0.95058  1.0000
  H   H15       1.0  0.30088  0.01440  0.95051  1.0000
  H   H16       1.0  0.35050  0.48564  0.04942  1.0000
  H   H17       1.0  0.80439  0.94831  0.94647  1.0000
  H   H18       1.0  0.85785  0.55160  0.05355  1.0000
  H   H19       1.0  0.19561  0.05169  0.05353  1.0000
  H   H20       1.0  0.14215  0.44840  0.94645  1.0000
  H   H21       1.0  0.81744  0.84502  0.02754  1.0000
  H   H22       1.0  0.78979  0.65496  0.97256  1.0000
  H   H23       1.0  0.18256  0.15498  0.97246  1.0000
  H   H24       1.0  0.21021  0.34504  0.02744  1.0000
  H   H25       1.0  0.19146  0.57453  0.23036  1.0000
  H   H26       1.0  0.96125  0.92558  0.76969  1.0000
  H   H27       1.0  0.80854  0.42547  0.76964  1.0000
  H   H28       1.0  0.03875  0.07442  0.23031  1.0000
  H   H29       1.0  0.34994  0.34378  0.23247  1.0000
  H   H30       1.0  0.11749  0.15645  0.76760  1.0000
  H   H31       1.0  0.65006  0.65622  0.76753  1.0000
  H   H32       1.0  0.88251  0.84355  0.23240  1.0000
  H   H33       1.0  0.19911  0.48751  0.50833  1.0000
  H   H34       1.0  0.69106  0.01246  0.49165  1.0000
  H   H35       1.0  0.80089  0.51249  0.49167  1.0000
  H   H36       1.0  0.30894  0.98754  0.50835  1.0000
  C   C1        1.0  0.27036  0.78992  0.63644  1.0000
  C   C2        1.0  0.63382  0.71003  0.36373  1.0000
  C   C3        1.0  0.72964  0.21007  0.36356  1.0000
  C   C4        1.0  0.36618  0.28997  0.63627  1.0000
  C   C5        1.0  0.32167  0.78522  0.74606  1.0000
  C   C6        1.0  0.57575  0.71479  0.25414  1.0000
  C   C7        1.0  0.67833  0.21478  0.25394  1.0000
  C   C8        1.0  0.42425  0.28521  0.74586  1.0000
  C   C9        1.0  0.20726  0.71341  0.77913  1.0000
  C   C10       1.0  0.42834  0.78660  0.22107  1.0000
  C   C11       1.0  0.79274  0.28659  0.22087  1.0000
  C   C12       1.0  0.57166  0.21340  0.77893  1.0000
  C   C13       1.0  0.26455  0.70150  0.87926  1.0000
  C   C14       1.0  0.38540  0.79843  0.12092  1.0000
  C   C15       1.0  0.73545  0.29850  0.12074  1.0000
  C   C16       1.0  0.61460  0.20157  0.87908  1.0000
  C   C17       1.0  0.43542  0.75891  0.94741  1.0000
  C   C18       1.0  0.48809  0.74092  0.05278  1.0000
  C   C19       1.0  0.56458  0.24109  0.05259  1.0000
  C   C20       1.0  0.51191  0.25908  0.94722  1.0000
  C   C21       1.0  0.54878  0.83560  0.91583  1.0000
  C   C22       1.0  0.63306  0.66428  0.08433  1.0000
  C   C23       1.0  0.45122  0.16440  0.08417  1.0000
  C   C24       1.0  0.36695  0.33572  0.91567  1.0000
  C   C25       1.0  0.48854  0.84747  0.81514  1.0000
  C   C26       1.0  0.67343  0.65251  0.18505  1.0000
  C   C27       1.0  0.51146  0.15253  0.18486  1.0000
  C   C28       1.0  0.32657  0.34749  0.81495  1.0000
  C   C29       1.0  0.72682  0.90693  0.98838  1.0000
  C   C30       1.0  0.73835  0.59301  0.01171  1.0000
  C   C31       1.0  0.27318  0.09307  0.01162  1.0000
  C   C32       1.0  0.26165  0.40699  0.98828  1.0000
  C   C33       1.0  0.21334  0.52130  0.28774  1.0000
  C   C34       1.0  0.92579  0.97878  0.71228  1.0000
  C   C35       1.0  0.78666  0.47871  0.71226  1.0000
  C   C36       1.0  0.07421  0.02122  0.28772  1.0000
  C   C37       1.0  0.29319  0.40710  0.28902  1.0000
  C   C38       1.0  0.00422  0.09308  0.71106  1.0000
  C   C39       1.0  0.70681  0.59290  0.71098  1.0000
  C   C40       1.0  0.99578  0.90692  0.28895  1.0000
  C   C41       1.0  0.21832  0.48060  0.43298  1.0000
  C   C42       1.0  0.78557  0.01942  0.56702  1.0000
  C   C43       1.0  0.78168  0.51940  0.56702  1.0000
  C   C44       1.0  0.21443  0.98057  0.43298  1.0000
  N   N1        1.0  0.16674  0.56709  0.37908  1.0000
  N   N2        1.0  0.78792  0.93290  0.62093  1.0000
  N   N3        1.0  0.83326  0.43291  0.62092  1.0000
  N   N4        1.0  0.21208  0.06710  0.37908  1.0000
  N   N5        1.0  0.29593  0.38170  0.38149  1.0000
  N   N6        1.0  0.91451  0.11842  0.61856  1.0000
  N   N7        1.0  0.70407  0.61830  0.61851  1.0000
  N   N8        1.0  0.08550  0.88158  0.38144  1.0000
  O   O1        1.0  0.10585  0.74904  0.58112  1.0000
  O   O2        1.0  0.52435  0.75071  0.41892  1.0000
  O   O3        1.0  0.89415  0.25096  0.41888  1.0000
  O   O4        1.0  0.47565  0.24929  0.58108  1.0000
  O   O5        1.0  0.39086  0.83283  0.60162  1.0000
  O   O6        1.0  0.78913  0.66724  0.39868  1.0000
  O   O7        1.0  0.60914  0.16717  0.39838  1.0000
  O   O8        1.0  0.21087  0.33276  0.60132  1.0000
