data_image0
_chemical_formula_structural       Sr2P4H24C8O16
_chemical_formula_sum              "Sr2 P4 H24 C8 O16"
_cell_length_a       5.20605
_cell_length_b       9.93219
_cell_length_c       9.9322
_cell_angle_alpha    89.9998
_cell_angle_beta     90
_cell_angle_gamma    90

_space_group_name_H-M_alt    "P 1"
_space_group_IT_number       1

loop_
  _space_group_symop_operation_xyz
  'x, y, z'

loop_
  _atom_site_type_symbol
  _atom_site_label
  _atom_site_symmetry_multiplicity
  _atom_site_fract_x
  _atom_site_fract_y
  _atom_site_fract_z
  _atom_site_occupancy
  Sr  Sr1       1.0  0.83063  0.50000  0.00000  1.0000
  Sr  Sr2       1.0  0.16936  0.00000  0.50000  1.0000
  P   P1        1.0  0.39496  0.27146  0.77146  1.0000
  P   P2        1.0  0.60506  0.77145  0.72855  1.0000
  P   P3        1.0  0.39495  0.72854  0.22854  1.0000
  P   P4        1.0  0.60505  0.22855  0.27146  1.0000
  H   H1        1.0  0.31310  0.56054  0.80099  1.0000
  H   H2        1.0  0.68691  0.80098  0.43947  1.0000
  H   H3        1.0  0.68691  0.06054  0.69901  1.0000
  H   H4        1.0  0.31310  0.43947  0.19901  1.0000
  H   H5        1.0  0.31310  0.69902  0.93947  1.0000
  H   H6        1.0  0.68691  0.19902  0.56053  1.0000
  H   H7        1.0  0.68691  0.93947  0.30099  1.0000
  H   H8        1.0  0.31310  0.30099  0.06054  1.0000
  H   H9        1.0  0.29098  0.43907  0.60364  1.0000
  H   H10       1.0  0.70902  0.60364  0.56094  1.0000
  H   H11       1.0  0.70903  0.93906  0.89636  1.0000
  H   H12       1.0  0.29098  0.56094  0.39636  1.0000
  H   H13       1.0  0.29097  0.89636  0.06094  1.0000
  H   H14       1.0  0.70902  0.39636  0.43906  1.0000
  H   H15       1.0  0.70902  0.06094  0.10364  1.0000
  H   H16       1.0  0.29098  0.10364  0.93906  1.0000
  H   H17       1.0  0.00979  0.35884  0.66666  1.0000
  H   H18       1.0  0.99022  0.66666  0.64116  1.0000
  H   H19       1.0  0.99021  0.85884  0.83334  1.0000
  H   H20       1.0  0.00978  0.64116  0.33334  1.0000
  H   H21       1.0  0.00978  0.83334  0.14116  1.0000
  H   H22       1.0  0.99021  0.33334  0.35884  1.0000
  H   H23       1.0  0.99021  0.14116  0.16666  1.0000
  H   H24       1.0  0.00979  0.16666  0.85884  1.0000
  C   C1        1.0  0.19483  0.40253  0.69596  1.0000
  C   C2        1.0  0.80518  0.69596  0.59747  1.0000
  C   C3        1.0  0.80518  0.90253  0.80404  1.0000
  C   C4        1.0  0.19482  0.59747  0.30404  1.0000
  C   C5        1.0  0.19481  0.80404  0.09747  1.0000
  C   C6        1.0  0.80517  0.30404  0.40253  1.0000
  C   C7        1.0  0.80517  0.09747  0.19596  1.0000
  C   C8        1.0  0.19482  0.19596  0.90253  1.0000
  O   O1        1.0  0.62933  0.33553  0.83553  1.0000
  O   O2        1.0  0.37067  0.83553  0.66447  1.0000
  O   O3        1.0  0.62932  0.66447  0.16447  1.0000
  O   O4        1.0  0.37067  0.16447  0.33553  1.0000
  O   O5        1.0  0.44312  0.16260  0.66260  1.0000
  O   O6        1.0  0.55688  0.66260  0.83740  1.0000
  O   O7        1.0  0.44311  0.83740  0.33740  1.0000
  O   O8        1.0  0.55688  0.33740  0.16260  1.0000
  O   O9        1.0  0.14871  0.50942  0.78910  1.0000
  O   O10       1.0  0.85129  0.78909  0.49058  1.0000
  O   O11       1.0  0.85130  0.00942  0.71090  1.0000
  O   O12       1.0  0.14870  0.49058  0.21091  1.0000
  O   O13       1.0  0.14870  0.71091  0.99058  1.0000
  O   O14       1.0  0.85130  0.21091  0.50942  1.0000
  O   O15       1.0  0.85129  0.99058  0.28910  1.0000
  O   O16       1.0  0.14871  0.28910  0.00942  1.0000
