data_image0
_chemical_formula_structural       MnH24C18S2N14
_chemical_formula_sum              "Mn1 H24 C18 S2 N14"
_cell_length_a       8.3966
_cell_length_b       8.71081
_cell_length_c       11.2342
_cell_angle_alpha    108.433
_cell_angle_beta     91.08
_cell_angle_gamma    105.223

_space_group_name_H-M_alt    "P 1"
_space_group_IT_number       1

loop_
  _space_group_symop_operation_xyz
  'x, y, z'

loop_
  _atom_site_type_symbol
  _atom_site_label
  _atom_site_symmetry_multiplicity
  _atom_site_fract_x
  _atom_site_fract_y
  _atom_site_fract_z
  _atom_site_occupancy
  Mn  Mn1       1.0  0.00007  0.00001  0.99990  1.0000
  H   H1        1.0  0.51119  0.72052  0.18351  1.0000
  H   H2        1.0  0.48881  0.27948  0.81650  1.0000
  H   H3        1.0  0.64094  0.79135  0.07643  1.0000
  H   H4        1.0  0.35907  0.20866  0.92358  1.0000
  H   H5        1.0  0.45723  0.56431  0.89433  1.0000
  H   H6        1.0  0.54278  0.43569  0.10568  1.0000
  H   H7        1.0  0.31752  0.50075  0.99814  1.0000
  H   H8        1.0  0.68248  0.49925  0.00186  1.0000
  H   H9        1.0  0.35638  0.20675  0.17932  1.0000
  H   H10       1.0  0.64363  0.79326  0.82064  1.0000
  H   H11       1.0  0.19014  0.69244  0.96191  1.0000
  H   H12       1.0  0.80989  0.30757  0.03805  1.0000
  H   H13       1.0  0.73401  0.20837  0.47581  1.0000
  H   H14       1.0  0.26597  0.79162  0.52420  1.0000
  H   H15       1.0  0.79570  0.07555  0.54734  1.0000
  H   H16       1.0  0.20426  0.92444  0.45269  1.0000
  H   H17       1.0  0.54510  0.83664  0.42942  1.0000
  H   H18       1.0  0.45486  0.16335  0.57058  1.0000
  H   H19       1.0  0.48561  0.96992  0.35717  1.0000
  H   H20       1.0  0.51436  0.03009  0.64283  1.0000
  H   H21       1.0  0.97593  0.74950  0.18033  1.0000
  H   H22       1.0  0.02406  0.25050  0.81971  1.0000
  H   H23       1.0  0.82968  0.19511  0.25762  1.0000
  H   H24       1.0  0.17031  0.80487  0.74240  1.0000
  C   C1        1.0  0.51304  0.73106  0.08849  1.0000
  C   C2        1.0  0.48697  0.26894  0.91151  1.0000
  C   C3        1.0  0.44880  0.55674  0.99015  1.0000
  C   C4        1.0  0.55121  0.44327  0.00986  1.0000
  C   C5        1.0  0.35222  0.07541  0.13554  1.0000
  C   C6        1.0  0.64779  0.92461  0.86442  1.0000
  C   C7        1.0  0.26451  0.81453  0.02379  1.0000
  C   C8        1.0  0.73551  0.18548  0.97618  1.0000
  C   C9        1.0  0.72706  0.07648  0.46349  1.0000
  C   C10       1.0  0.27290  0.92351  0.53654  1.0000
  C   C11       1.0  0.54663  0.96811  0.44399  1.0000
  C   C12       1.0  0.45334  0.03189  0.55602  1.0000
  C   C13       1.0  0.92485  0.85342  0.22479  1.0000
  C   C14       1.0  0.07514  0.14657  0.77525  1.0000
  C   C15       1.0  0.85387  0.08089  0.26203  1.0000
  C   C16       1.0  0.14612  0.91909  0.73801  1.0000
  C   C17       1.0  0.12624  0.38198  0.15341  1.0000
  C   C18       1.0  0.87379  0.61801  0.84656  1.0000
  S   S1        1.0  0.17059  0.57452  0.24862  1.0000
  S   S2        1.0  0.82940  0.42544  0.75140  1.0000
  N   N1        1.0  0.41569  0.84585  0.08371  1.0000
  N   N2        1.0  0.58431  0.15415  0.91630  1.0000
  N   N3        1.0  0.47319  0.01155  0.15572  1.0000
  N   N4        1.0  0.52680  0.98845  0.84428  1.0000
  N   N5        1.0  0.22087  0.95893  0.05412  1.0000
  N   N6        1.0  0.77917  0.04109  0.94582  1.0000
  N   N7        1.0  0.81584  0.01721  0.35584  1.0000
  N   N8        1.0  0.18413  0.98279  0.64419  1.0000
  N   N9        1.0  0.86016  0.87196  0.33376  1.0000
  N   N10       1.0  0.13981  0.12803  0.66629  1.0000
  N   N11       1.0  0.92298  0.97921  0.17661  1.0000
  N   N12       1.0  0.07702  0.02078  0.82345  1.0000
  N   N13       1.0  0.09190  0.23957  0.08370  1.0000
  N   N14       1.0  0.90815  0.76046  0.91621  1.0000
