data_image0
_chemical_formula_structural       MnH30C20S2N16O4
_chemical_formula_sum              "Mn1 H30 C20 S2 N16 O4"
_cell_length_a       8.65443
_cell_length_b       8.85398
_cell_length_c       10.5668
_cell_angle_alpha    82.6386
_cell_angle_beta     83.6311
_cell_angle_gamma    69.8913

_space_group_name_H-M_alt    "P 1"
_space_group_IT_number       1

loop_
  _space_group_symop_operation_xyz
  'x, y, z'

loop_
  _atom_site_type_symbol
  _atom_site_label
  _atom_site_symmetry_multiplicity
  _atom_site_fract_x
  _atom_site_fract_y
  _atom_site_fract_z
  _atom_site_occupancy
  Mn  Mn1       1.0  0.00000  0.50000  0.00001  1.0000
  H   H1        1.0  0.32331  0.99079  0.13162  1.0000
  H   H2        1.0  0.67670  0.00921  0.86838  1.0000
  H   H3        1.0  0.43876  0.78949  0.18446  1.0000
  H   H4        1.0  0.56124  0.21051  0.81554  1.0000
  H   H5        1.0  0.39443  0.97131  0.35433  1.0000
  H   H6        1.0  0.60557  0.02869  0.64567  1.0000
  H   H7        1.0  0.17797  0.03421  0.34682  1.0000
  H   H8        1.0  0.82204  0.96578  0.65318  1.0000
  H   H9        1.0  0.17891  0.75456  0.41646  1.0000
  H   H10       1.0  0.82109  0.24543  0.58354  1.0000
  H   H11       1.0  0.39698  0.68364  0.41778  1.0000
  H   H12       1.0  0.60302  0.31636  0.58222  1.0000
  H   H13       1.0  0.38272  0.84215  0.59627  1.0000
  H   H14       1.0  0.61728  0.15784  0.40373  1.0000
  H   H15       1.0  0.16717  0.93783  0.58952  1.0000
  H   H16       1.0  0.83282  0.06217  0.41048  1.0000
  H   H17       1.0  0.82698  0.87760  0.11233  1.0000
  H   H18       1.0  0.17302  0.12241  0.88767  1.0000
  H   H19       1.0  0.32786  0.58956  0.11042  1.0000
  H   H20       1.0  0.67213  0.41045  0.88958  1.0000
  H   H21       1.0  0.30078  0.33306  0.76408  1.0000
  H   H22       1.0  0.69921  0.66694  0.23592  1.0000
  H   H23       1.0  0.04372  0.82805  0.78965  1.0000
  H   H24       1.0  0.95628  0.17195  0.21035  1.0000
  H   H25       1.0  0.13865  0.46824  0.35318  1.0000
  H   H26       1.0  0.86135  0.53176  0.64682  1.0000
  H   H27       1.0  0.33358  0.31002  0.31853  1.0000
  H   H28       1.0  0.66642  0.68998  0.68147  1.0000
  H   H29       1.0  0.32434  0.45263  0.42721  1.0000
  H   H30       1.0  0.67566  0.54737  0.57279  1.0000
  C   C1        1.0  0.32096  0.88678  0.19938  1.0000
  C   C2        1.0  0.67904  0.11322  0.80062  1.0000
  C   C3        1.0  0.29271  0.93070  0.33703  1.0000
  C   C4        1.0  0.70729  0.06930  0.66297  1.0000
  C   C5        1.0  0.28516  0.78859  0.43276  1.0000
  C   C6        1.0  0.71484  0.21141  0.56723  1.0000
  C   C7        1.0  0.26974  0.82637  0.57118  1.0000
  C   C8        1.0  0.73026  0.17362  0.42882  1.0000
  C   C9        1.0  0.95847  0.83499  0.12441  1.0000
  C   C10       1.0  0.04153  0.16501  0.87558  1.0000
  C   C11       1.0  0.21100  0.68646  0.12211  1.0000
  C   C12       1.0  0.78899  0.31354  0.87789  1.0000
  C   C13       1.0  0.26019  0.46354  0.74523  1.0000
  C   C14       1.0  0.73981  0.53646  0.25477  1.0000
  C   C15       1.0  0.12450  0.71206  0.75946  1.0000
  C   C16       1.0  0.87549  0.28794  0.24054  1.0000
  C   C17       1.0  0.36393  0.26370  0.07982  1.0000
  C   C18       1.0  0.63608  0.73629  0.92019  1.0000
  C   C19       1.0  0.25438  0.38756  0.39020  1.0000
  C   C20       1.0  0.74562  0.61244  0.60980  1.0000
  S   S1        1.0  0.54790  0.19473  0.12959  1.0000
  S   S2        1.0  0.45211  0.80527  0.87042  1.0000
  N   N1        1.0  0.19429  0.82860  0.16425  1.0000
  N   N2        1.0  0.80571  0.17140  0.83575  1.0000
  N   N3        1.0  0.03334  0.92517  0.16640  1.0000
  N   N4        1.0  0.96666  0.07483  0.83359  1.0000
  N   N5        1.0  0.06320  0.68623  0.09605  1.0000
  N   N6        1.0  0.93680  0.31377  0.90395  1.0000
  N   N7        1.0  0.23741  0.69758  0.65947  1.0000
  N   N8        1.0  0.76259  0.30241  0.34053  1.0000
  N   N9        1.0  0.32631  0.53894  0.64880  1.0000
  N   N10       1.0  0.67368  0.46106  0.35121  1.0000
  N   N11       1.0  0.13552  0.56497  0.81608  1.0000
  N   N12       1.0  0.86448  0.43503  0.18392  1.0000
  N   N13       1.0  0.22705  0.31445  0.04590  1.0000
  N   N14       1.0  0.77295  0.68556  0.95411  1.0000
  N   N15       1.0  0.21652  0.27962  0.49942  1.0000
  N   N16       1.0  0.78348  0.72038  0.50058  1.0000
  O   O1        1.0  0.07021  0.29241  0.52953  1.0000
  O   O2        1.0  0.92979  0.70759  0.47047  1.0000
  O   O3        1.0  0.33466  0.18094  0.55472  1.0000
  O   O4        1.0  0.66534  0.81906  0.44528  1.0000
