data_image0
_chemical_formula_structural       Zn2H40C32N12Cl4O4
_chemical_formula_sum              "Zn2 H40 C32 N12 Cl4 O4"
_cell_length_a       8.88034
_cell_length_b       8.88037
_cell_length_c       13.7528
_cell_angle_alpha    98.7678
_cell_angle_beta     98.7678
_cell_angle_gamma    106.186

_space_group_name_H-M_alt    "P 1"
_space_group_IT_number       1

loop_
  _space_group_symop_operation_xyz
  'x, y, z'

loop_
  _atom_site_type_symbol
  _atom_site_label
  _atom_site_symmetry_multiplicity
  _atom_site_fract_x
  _atom_site_fract_y
  _atom_site_fract_z
  _atom_site_occupancy
  Zn  Zn1       1.0  0.37214  0.62786  0.75000  1.0000
  Zn  Zn2       1.0  0.62786  0.37214  0.25000  1.0000
  H   H1        1.0  0.39247  0.26256  0.60583  1.0000
  H   H2        1.0  0.73744  0.60753  0.89417  1.0000
  H   H3        1.0  0.60753  0.73744  0.39417  1.0000
  H   H4        1.0  0.26256  0.39247  0.10583  1.0000
  H   H5        1.0  0.32966  0.82973  0.60999  1.0000
  H   H6        1.0  0.17027  0.67034  0.89001  1.0000
  H   H7        1.0  0.67034  0.17027  0.39001  1.0000
  H   H8        1.0  0.82973  0.32966  0.10999  1.0000
  H   H9        1.0  0.33001  0.26798  0.45204  1.0000
  H   H10       1.0  0.73202  0.66999  0.04796  1.0000
  H   H11       1.0  0.66999  0.73202  0.54796  1.0000
  H   H12       1.0  0.26798  0.33001  0.95204  1.0000
  H   H13       1.0  0.59698  0.22000  0.92656  1.0000
  H   H14       1.0  0.78000  0.40302  0.57344  1.0000
  H   H15       1.0  0.40301  0.78000  0.07344  1.0000
  H   H16       1.0  0.22000  0.59698  0.42656  1.0000
  H   H17       1.0  0.54714  0.92202  0.91241  1.0000
  H   H18       1.0  0.07798  0.45286  0.58759  1.0000
  H   H19       1.0  0.45286  0.07798  0.08759  1.0000
  H   H20       1.0  0.92202  0.54714  0.41241  1.0000
  H   H21       1.0  0.50310  0.31869  0.77631  1.0000
  H   H22       1.0  0.68131  0.49690  0.72370  1.0000
  H   H23       1.0  0.49690  0.68131  0.22369  1.0000
  H   H24       1.0  0.31869  0.50310  0.27630  1.0000
  H   H25       1.0  0.22940  0.96448  0.30518  1.0000
  H   H26       1.0  0.03552  0.77060  0.19482  1.0000
  H   H27       1.0  0.77059  0.03552  0.69482  1.0000
  H   H28       1.0  0.96448  0.22940  0.80518  1.0000
  H   H29       1.0  0.26387  0.15987  0.28002  1.0000
  H   H30       1.0  0.84013  0.73613  0.21998  1.0000
  H   H31       1.0  0.73613  0.84013  0.71998  1.0000
  H   H32       1.0  0.15987  0.26387  0.78002  1.0000
  H   H33       1.0  0.00544  0.17159  0.32399  1.0000
  H   H34       1.0  0.82840  0.99456  0.17600  1.0000
  H   H35       1.0  0.99456  0.82841  0.67600  1.0000
  H   H36       1.0  0.17160  0.00544  0.82399  1.0000
  H   H37       1.0  0.97004  0.98131  0.35557  1.0000
  H   H38       1.0  0.01869  0.02996  0.14443  1.0000
  H   H39       1.0  0.02996  0.01869  0.64443  1.0000
  H   H40       1.0  0.98131  0.97004  0.85557  1.0000
  C   C1        1.0  0.41229  0.08249  0.67913  1.0000
  C   C2        1.0  0.91751  0.58771  0.82087  1.0000
  C   C3        1.0  0.58771  0.91751  0.32087  1.0000
  C   C4        1.0  0.08249  0.41230  0.17913  1.0000
  C   C5        1.0  0.38787  0.91902  0.67853  1.0000
  C   C6        1.0  0.08098  0.61213  0.82147  1.0000
  C   C7        1.0  0.61213  0.08098  0.32147  1.0000
  C   C8        1.0  0.91902  0.38787  0.17853  1.0000
  C   C9        1.0  0.29673  0.05232  0.49799  1.0000
  C   C10       1.0  0.94768  0.70327  0.00201  1.0000
  C   C11       1.0  0.70327  0.94768  0.50201  1.0000
  C   C12       1.0  0.05232  0.29673  0.99799  1.0000
  C   C13       1.0  0.53636  0.13637  0.85585  1.0000
  C   C14       1.0  0.86363  0.46364  0.64415  1.0000
  C   C15       1.0  0.46364  0.86363  0.14415  1.0000
  C   C16       1.0  0.13637  0.53636  0.35585  1.0000
  C   C17       1.0  0.50973  0.97269  0.84904  1.0000
  C   C18       1.0  0.02731  0.49027  0.65096  1.0000
  C   C19       1.0  0.49027  0.02731  0.15096  1.0000
  C   C20       1.0  0.97269  0.50973  0.34904  1.0000
  C   C21       1.0  0.48636  0.19116  0.77121  1.0000
  C   C22       1.0  0.80884  0.51364  0.72879  1.0000
  C   C23       1.0  0.51364  0.80884  0.22879  1.0000
  C   C24       1.0  0.19116  0.48636  0.27121  1.0000
  C   C25       1.0  0.20555  0.07886  0.32569  1.0000
  C   C26       1.0  0.92114  0.79445  0.17431  1.0000
  C   C27       1.0  0.79445  0.92114  0.67431  1.0000
  C   C28       1.0  0.07886  0.20555  0.82569  1.0000
  C   C29       1.0  0.02498  0.05461  0.30477  1.0000
  C   C30       1.0  0.94539  0.97502  0.19523  1.0000
  C   C31       1.0  0.97502  0.94539  0.69523  1.0000
  C   C32       1.0  0.05461  0.02498  0.80477  1.0000
  N   N1        1.0  0.43558  0.86843  0.76179  1.0000
  N   N2        1.0  0.13157  0.56442  0.73821  1.0000
  N   N3        1.0  0.56442  0.13157  0.23821  1.0000
  N   N4        1.0  0.86843  0.43558  0.26179  1.0000
  N   N5        1.0  0.36711  0.14044  0.59558  1.0000
  N   N6        1.0  0.85956  0.63289  0.90442  1.0000
  N   N7        1.0  0.63289  0.85956  0.40442  1.0000
  N   N8        1.0  0.14044  0.36711  0.09558  1.0000
  N   N9        1.0  0.28281  0.14691  0.43015  1.0000
  N   N10       1.0  0.85309  0.71719  0.06985  1.0000
  N   N11       1.0  0.71719  0.85309  0.56985  1.0000
  N   N12       1.0  0.14691  0.28281  0.93015  1.0000
  Cl  Cl1       1.0  0.48168  0.58024  0.89572  1.0000
  Cl  Cl2       1.0  0.41976  0.51832  0.60428  1.0000
  Cl  Cl3       1.0  0.51832  0.41975  0.10428  1.0000
  Cl  Cl4       1.0  0.58024  0.48168  0.39572  1.0000
  O   O1        1.0  0.25142  0.90374  0.47567  1.0000
  O   O2        1.0  0.09625  0.74859  0.02433  1.0000
  O   O3        1.0  0.74858  0.09625  0.52433  1.0000
  O   O4        1.0  0.90374  0.25142  0.97567  1.0000
