data_image0
_chemical_formula_structural       Co4H16C36N8O16
_chemical_formula_sum              "Co4 H16 C36 N8 O16"
_cell_length_a       5.90602
_cell_length_b       10.0484
_cell_length_c       13.3659
_cell_angle_alpha    96.0277
_cell_angle_beta     89.9994
_cell_angle_gamma    90.0005

_space_group_name_H-M_alt    "P 1"
_space_group_IT_number       1

loop_
  _space_group_symop_operation_xyz
  'x, y, z'

loop_
  _atom_site_type_symbol
  _atom_site_label
  _atom_site_symmetry_multiplicity
  _atom_site_fract_x
  _atom_site_fract_y
  _atom_site_fract_z
  _atom_site_occupancy
  Co  Co1       1.0  0.22720  0.75422  0.17154  1.0000
  Co  Co2       1.0  0.72720  0.74578  0.32846  1.0000
  Co  Co3       1.0  0.77280  0.24578  0.82846  1.0000
  Co  Co4       1.0  0.27281  0.25422  0.67154  1.0000
  H   H1        1.0  0.13118  0.36141  0.07334  1.0000
  H   H2        1.0  0.63117  0.13858  0.42667  1.0000
  H   H3        1.0  0.86882  0.63859  0.92666  1.0000
  H   H4        1.0  0.36883  0.86141  0.57334  1.0000
  H   H5        1.0  0.34915  0.41416  0.91992  1.0000
  H   H6        1.0  0.84916  0.08583  0.58008  1.0000
  H   H7        1.0  0.65086  0.58585  0.08008  1.0000
  H   H8        1.0  0.15086  0.91416  0.41992  1.0000
  H   H9        1.0  0.18941  0.17394  0.22422  1.0000
  H   H10       1.0  0.68938  0.32606  0.27579  1.0000
  H   H11       1.0  0.81061  0.82607  0.77578  1.0000
  H   H12       1.0  0.31059  0.67394  0.72422  1.0000
  H   H13       1.0  0.91165  0.08224  0.02866  1.0000
  H   H14       1.0  0.41164  0.41777  0.47133  1.0000
  H   H15       1.0  0.08836  0.91777  0.97134  1.0000
  H   H16       1.0  0.58836  0.58223  0.52866  1.0000
  C   C1        1.0  0.40379  0.34116  0.96903  1.0000
  C   C2        1.0  0.90378  0.15883  0.53097  1.0000
  C   C3        1.0  0.59623  0.65885  0.03097  1.0000
  C   C4        1.0  0.09623  0.84116  0.46903  1.0000
  C   C5        1.0  0.59517  0.19032  0.03891  1.0000
  C   C6        1.0  0.09516  0.30968  0.46110  1.0000
  C   C7        1.0  0.40483  0.80969  0.96109  1.0000
  C   C8        1.0  0.90483  0.69032  0.53891  1.0000
  C   C9        1.0  0.39547  0.21810  0.09657  1.0000
  C   C10       1.0  0.89547  0.28190  0.40344  1.0000
  C   C11       1.0  0.60453  0.78191  0.90343  1.0000
  C   C12       1.0  0.10452  0.71809  0.59657  1.0000
  C   C13       1.0  0.34494  0.15354  0.18150  1.0000
  C   C14       1.0  0.84492  0.34645  0.31851  1.0000
  C   C15       1.0  0.65507  0.84646  0.81851  1.0000
  C   C16       1.0  0.15506  0.65354  0.68150  1.0000
  C   C17       1.0  0.50009  0.05871  0.20811  1.0000
  C   C18       1.0  0.00006  0.44129  0.29190  1.0000
  C   C19       1.0  0.49991  0.94129  0.79189  1.0000
  C   C20       1.0  0.99993  0.55870  0.70811  1.0000
  C   C21       1.0  0.70502  0.03450  0.15367  1.0000
  C   C22       1.0  0.20499  0.46551  0.34634  1.0000
  C   C23       1.0  0.29499  0.96551  0.84633  1.0000
  C   C24       1.0  0.79500  0.53449  0.65367  1.0000
  C   C25       1.0  0.75341  0.09987  0.06910  1.0000
  C   C26       1.0  0.25340  0.40014  0.43090  1.0000
  C   C27       1.0  0.24660  0.90015  0.93090  1.0000
  C   C28       1.0  0.74660  0.59986  0.56909  1.0000
  C   C29       1.0  0.44868  0.98099  0.29498  1.0000
  C   C30       1.0  0.94866  0.51901  0.20502  1.0000
  C   C31       1.0  0.55132  0.01901  0.70502  1.0000
  C   C32       1.0  0.05133  0.48097  0.79497  1.0000
  C   C33       1.0  0.87825  0.94463  0.19155  1.0000
  C   C34       1.0  0.37824  0.55538  0.30845  1.0000
  C   C35       1.0  0.12175  0.05537  0.80845  1.0000
  C   C36       1.0  0.62175  0.44462  0.69154  1.0000
  N   N1        1.0  0.59373  0.26866  0.95841  1.0000
  N   N2        1.0  0.09372  0.23134  0.54159  1.0000
  N   N3        1.0  0.40628  0.73134  0.04159  1.0000
  N   N4        1.0  0.90628  0.76866  0.45840  1.0000
  N   N5        1.0  0.28080  0.31362  0.04950  1.0000
  N   N6        1.0  0.78080  0.18638  0.45050  1.0000
  N   N7        1.0  0.71921  0.68639  0.95050  1.0000
  N   N8        1.0  0.21920  0.81362  0.54950  1.0000
  O   O1        1.0  0.43936  0.84863  0.27682  1.0000
  O   O2        1.0  0.93934  0.65138  0.22317  1.0000
  O   O3        1.0  0.56064  0.15137  0.72317  1.0000
  O   O4        1.0  0.06064  0.34861  0.77682  1.0000
  O   O5        1.0  0.41150  0.03981  0.37993  1.0000
  O   O6        1.0  0.91146  0.46019  0.12007  1.0000
  O   O7        1.0  0.58850  0.96020  0.62007  1.0000
  O   O8        1.0  0.08851  0.53980  0.87993  1.0000
  O   O9        1.0  0.87868  0.92530  0.28427  1.0000
  O   O10       1.0  0.37865  0.57471  0.21573  1.0000
  O   O11       1.0  0.12134  0.07470  0.71573  1.0000
  O   O12       1.0  0.62134  0.42530  0.78427  1.0000
  O   O13       1.0  0.02369  0.89252  0.12793  1.0000
  O   O14       1.0  0.52367  0.60748  0.37207  1.0000
  O   O15       1.0  0.97631  0.10747  0.87206  1.0000
  O   O16       1.0  0.47631  0.39251  0.62794  1.0000
