data_image0
_chemical_formula_structural       Zn4H32C38N4O18
_chemical_formula_sum              "Zn4 H32 C38 N4 O18"
_cell_length_a       8.38899
_cell_length_b       9.70187
_cell_length_c       12.9869
_cell_angle_alpha    94.286
_cell_angle_beta     108.63
_cell_angle_gamma    91.4312

_space_group_name_H-M_alt    "P 1"
_space_group_IT_number       1

loop_
  _space_group_symop_operation_xyz
  'x, y, z'

loop_
  _atom_site_type_symbol
  _atom_site_label
  _atom_site_symmetry_multiplicity
  _atom_site_fract_x
  _atom_site_fract_y
  _atom_site_fract_z
  _atom_site_occupancy
  Zn  Zn1       1.0  0.76743  0.38300  0.22170  1.0000
  Zn  Zn2       1.0  0.23257  0.61701  0.77830  1.0000
  Zn  Zn3       1.0  0.80161  0.73849  0.90210  1.0000
  Zn  Zn4       1.0  0.19839  0.26151  0.09790  1.0000
  H   H1        1.0  0.51270  0.80115  0.31217  1.0000
  H   H2        1.0  0.48731  0.19885  0.68783  1.0000
  H   H3        1.0  0.24277  0.75903  0.18329  1.0000
  H   H4        1.0  0.75723  0.24097  0.81672  1.0000
  H   H5        1.0  0.36730  0.61073  0.01351  1.0000
  H   H6        1.0  0.63270  0.38927  0.98649  1.0000
  H   H7        1.0  0.34912  0.91735  0.00695  1.0000
  H   H8        1.0  0.65087  0.08264  0.99305  1.0000
  H   H9        1.0  0.47968  0.97357  0.18961  1.0000
  H   H10       1.0  0.52032  0.02643  0.81039  1.0000
  H   H11       1.0  0.66315  0.90306  0.17186  1.0000
  H   H12       1.0  0.33685  0.09694  0.82814  1.0000
  H   H13       1.0  0.79312  0.08822  0.25623  1.0000
  H   H14       1.0  0.20688  0.91178  0.74377  1.0000
  H   H15       1.0  0.80325  0.93069  0.40049  1.0000
  H   H16       1.0  0.19675  0.06931  0.59951  1.0000
  H   H17       1.0  0.62500  0.84267  0.50262  1.0000
  H   H18       1.0  0.37500  0.15733  0.49737  1.0000
  H   H19       1.0  0.63793  0.70475  0.66067  1.0000
  H   H20       1.0  0.36206  0.29525  0.33933  1.0000
  H   H21       1.0  0.94644  0.00984  0.88089  1.0000
  H   H22       1.0  0.05356  0.99015  0.11911  1.0000
  H   H23       1.0  0.95409  0.15556  0.73326  1.0000
  H   H24       1.0  0.04591  0.84443  0.26674  1.0000
  H   H25       1.0  0.75335  0.29452  0.60352  1.0000
  H   H26       1.0  0.24666  0.70548  0.39649  1.0000
  H   H27       1.0  0.75802  0.43488  0.45268  1.0000
  H   H28       1.0  0.24198  0.56512  0.54732  1.0000
  H   H29       1.0  0.94261  0.59179  0.32499  1.0000
  H   H30       1.0  0.05739  0.40821  0.67501  1.0000
  H   H31       1.0  0.09121  0.50147  0.30191  1.0000
  H   H32       1.0  0.90879  0.49853  0.69809  1.0000
  C   C1        1.0  0.51058  0.75979  0.23052  1.0000
  C   C2        1.0  0.48942  0.24021  0.76948  1.0000
  C   C3        1.0  0.33601  0.69259  0.16444  1.0000
  C   C4        1.0  0.66399  0.30741  0.83556  1.0000
  C   C5        1.0  0.31921  0.70347  0.04468  1.0000
  C   C6        1.0  0.68079  0.29653  0.95532  1.0000
  C   C7        1.0  0.43012  0.83404  0.04270  1.0000
  C   C8        1.0  0.56987  0.16596  0.95730  1.0000
  C   C9        1.0  0.53076  0.87962  0.16278  1.0000
  C   C10       1.0  0.46924  0.12038  0.83722  1.0000
  C   C11       1.0  0.65870  0.66526  0.24937  1.0000
  C   C12       1.0  0.34130  0.33474  0.75063  1.0000
  C   C13       1.0  0.29090  0.54803  0.18900  1.0000
  C   C14       1.0  0.70910  0.45197  0.81101  1.0000
  C   C15       1.0  0.14096  0.71785  0.97251  1.0000
  C   C16       1.0  0.85903  0.28215  0.02750  1.0000
  C   C17       1.0  0.53276  0.80180  0.96704  1.0000
  C   C18       1.0  0.46724  0.19820  0.03296  1.0000
  C   C19       1.0  0.78616  0.12861  0.33506  1.0000
  C   C20       1.0  0.21383  0.87139  0.66495  1.0000
  C   C21       1.0  0.79020  0.04153  0.41591  1.0000
  C   C22       1.0  0.20980  0.95848  0.58409  1.0000
  C   C23       1.0  0.78019  0.09979  0.51569  1.0000
  C   C24       1.0  0.21981  0.90021  0.48431  1.0000
  C   C25       1.0  0.78482  0.01317  0.60515  1.0000
  C   C26       1.0  0.21518  0.98682  0.39485  1.0000
  C   C27       1.0  0.69761  0.88352  0.58527  1.0000
  C   C28       1.0  0.30239  0.11648  0.41473  1.0000
  C   C29       1.0  0.70190  0.80684  0.67219  1.0000
  C   C30       1.0  0.29810  0.19316  0.32780  1.0000
  C   C31       1.0  0.87636  0.97615  0.79608  1.0000
  C   C32       1.0  0.12364  0.02384  0.20392  1.0000
  C   C33       1.0  0.87758  0.05872  0.71346  1.0000
  C   C34       1.0  0.12242  0.94128  0.28654  1.0000
  C   C35       1.0  0.76633  0.24332  0.52903  1.0000
  C   C36       1.0  0.23367  0.75668  0.47097  1.0000
  C   C37       1.0  0.76492  0.32280  0.44405  1.0000
  C   C38       1.0  0.23508  0.67720  0.55595  1.0000
  N   N1        1.0  0.77364  0.26626  0.34830  1.0000
  N   N2        1.0  0.22636  0.73374  0.65169  1.0000
  N   N3        1.0  0.78877  0.85320  0.77605  1.0000
  N   N4        1.0  0.21123  0.14680  0.22396  1.0000
  O   O1        1.0  0.62490  0.54304  0.20001  1.0000
  O   O2        1.0  0.37510  0.45697  0.79999  1.0000
  O   O3        1.0  0.99036  0.49768  0.32609  1.0000
  O   O4        1.0  0.00964  0.50232  0.67391  1.0000
  O   O5        1.0  0.80125  0.71351  0.31140  1.0000
  O   O6        1.0  0.19875  0.28649  0.68859  1.0000
  O   O7        1.0  0.29294  0.52778  0.28421  1.0000
  O   O8        1.0  0.70706  0.47223  0.71579  1.0000
  O   O9        1.0  0.24315  0.45862  0.10559  1.0000
  O   O10       1.0  0.75685  0.54137  0.89442  1.0000
  O   O11       1.0  0.03472  0.76850  0.01453  1.0000
  O   O12       1.0  0.96528  0.23149  0.98547  1.0000
  O   O13       1.0  0.09825  0.68551  0.86982  1.0000
  O   O14       1.0  0.90175  0.31449  0.13018  1.0000
  O   O15       1.0  0.45949  0.74820  0.87084  1.0000
  O   O16       1.0  0.54051  0.25180  0.12915  1.0000
  O   O17       1.0  0.69192  0.83171  0.00319  1.0000
  O   O18       1.0  0.30809  0.16829  0.99681  1.0000
