data_image0
_chemical_formula_structural       Mg6H16C28N4O20
_chemical_formula_sum              "Mg6 H16 C28 N4 O20"
_cell_length_a       11.0754
_cell_length_b       11.0844
_cell_length_c       11.0844
_cell_angle_alpha    67.6489
_cell_angle_beta     79.7423
_cell_angle_gamma    79.7423

_space_group_name_H-M_alt    "P 1"
_space_group_IT_number       1

loop_
  _space_group_symop_operation_xyz
  'x, y, z'

loop_
  _atom_site_type_symbol
  _atom_site_label
  _atom_site_symmetry_multiplicity
  _atom_site_fract_x
  _atom_site_fract_y
  _atom_site_fract_z
  _atom_site_occupancy
  Mg  Mg1       1.0  0.25000  0.89911  0.10089  1.0000
  Mg  Mg2       1.0  0.75000  0.10089  0.89911  1.0000
  Mg  Mg3       1.0  0.03856  0.87780  0.95503  1.0000
  Mg  Mg4       1.0  0.46144  0.04497  0.12220  1.0000
  Mg  Mg5       1.0  0.96144  0.12220  0.04497  1.0000
  Mg  Mg6       1.0  0.53856  0.95503  0.87780  1.0000
  H   H1        1.0  0.02592  0.88200  0.20223  1.0000
  H   H2        1.0  0.47408  0.79777  0.11800  1.0000
  H   H3        1.0  0.97408  0.11800  0.79777  1.0000
  H   H4        1.0  0.52592  0.20223  0.88200  1.0000
  H   H5        1.0  0.37387  0.96129  0.54670  1.0000
  H   H6        1.0  0.12613  0.45330  0.03871  1.0000
  H   H7        1.0  0.62613  0.03871  0.45330  1.0000
  H   H8        1.0  0.87387  0.54670  0.96129  1.0000
  H   H9        1.0  0.05559  0.82868  0.48423  1.0000
  H   H10       1.0  0.44440  0.51577  0.17132  1.0000
  H   H11       1.0  0.94441  0.17132  0.51577  1.0000
  H   H12       1.0  0.55560  0.48423  0.82868  1.0000
  H   H13       1.0  0.95983  0.81969  0.71144  1.0000
  H   H14       1.0  0.54017  0.28856  0.18030  1.0000
  H   H15       1.0  0.04017  0.18031  0.28856  1.0000
  H   H16       1.0  0.45983  0.71144  0.81970  1.0000
  C   C1        1.0  0.22361  0.91924  0.70473  1.0000
  C   C2        1.0  0.27639  0.29527  0.08076  1.0000
  C   C3        1.0  0.77639  0.08076  0.29527  1.0000
  C   C4        1.0  0.72361  0.70473  0.91924  1.0000
  C   C5        1.0  0.28228  0.92924  0.57972  1.0000
  C   C6        1.0  0.21772  0.42028  0.07077  1.0000
  C   C7        1.0  0.71772  0.07077  0.42028  1.0000
  C   C8        1.0  0.78228  0.57972  0.92923  1.0000
  C   C9        1.0  0.22082  0.89773  0.49776  1.0000
  C   C10       1.0  0.27918  0.50224  0.10227  1.0000
  C   C11       1.0  0.77918  0.10227  0.50224  1.0000
  C   C12       1.0  0.72082  0.49776  0.89773  1.0000
  C   C13       1.0  0.10412  0.85560  0.54577  1.0000
  C   C14       1.0  0.39588  0.45423  0.14440  1.0000
  C   C15       1.0  0.89588  0.14440  0.45423  1.0000
  C   C16       1.0  0.60412  0.54577  0.85560  1.0000
  C   C17       1.0  0.05134  0.85061  0.67121  1.0000
  C   C18       1.0  0.44866  0.32879  0.14939  1.0000
  C   C19       1.0  0.94866  0.14939  0.32879  1.0000
  C   C20       1.0  0.55134  0.67121  0.85061  1.0000
  C   C21       1.0  0.28546  0.94501  0.80201  1.0000
  C   C22       1.0  0.21454  0.19799  0.05500  1.0000
  C   C23       1.0  0.71454  0.05500  0.19799  1.0000
  C   C24       1.0  0.78546  0.80201  0.94501  1.0000
  C   C25       1.0  0.27662  0.91249  0.35884  1.0000
  C   C26       1.0  0.22338  0.64116  0.08751  1.0000
  C   C27       1.0  0.72338  0.08751  0.64116  1.0000
  C   C28       1.0  0.77662  0.35884  0.91249  1.0000
  N   N1        1.0  0.10893  0.88271  0.74931  1.0000
  N   N2        1.0  0.39107  0.25069  0.11729  1.0000
  N   N3        1.0  0.89107  0.11729  0.25069  1.0000
  N   N4        1.0  0.60893  0.74931  0.88271  1.0000
  O   O1        1.0  0.21733  0.94251  0.90843  1.0000
  O   O2        1.0  0.28267  0.09157  0.05749  1.0000
  O   O3        1.0  0.78267  0.05749  0.09157  1.0000
  O   O4        1.0  0.71733  0.90843  0.94251  1.0000
  O   O5        1.0  0.39742  0.96322  0.77486  1.0000
  O   O6        1.0  0.10258  0.22514  0.03678  1.0000
  O   O7        1.0  0.60258  0.03678  0.22514  1.0000
  O   O8        1.0  0.89742  0.77486  0.96322  1.0000
  O   O9        1.0  0.37095  0.97303  0.31358  1.0000
  O   O10       1.0  0.12904  0.68642  0.02698  1.0000
  O   O11       1.0  0.62905  0.02697  0.68642  1.0000
  O   O12       1.0  0.87095  0.31358  0.97302  1.0000
  O   O13       1.0  0.22183  0.86537  0.29846  1.0000
  O   O14       1.0  0.27817  0.70154  0.13463  1.0000
  O   O15       1.0  0.77818  0.13463  0.70153  1.0000
  O   O16       1.0  0.72182  0.29846  0.86537  1.0000
  O   O17       1.0  0.05414  0.93125  0.11141  1.0000
  O   O18       1.0  0.44587  0.88859  0.06875  1.0000
  O   O19       1.0  0.94587  0.06875  0.88859  1.0000
  O   O20       1.0  0.55414  0.11141  0.93125  1.0000
