data_image0
_chemical_formula_structural       Ag4P4H52C58N6O12
_chemical_formula_sum              "Ag4 P4 H52 C58 N6 O12"
_cell_length_a       10.4144
_cell_length_b       12.3093
_cell_length_c       12.3428
_cell_angle_alpha    95.558
_cell_angle_beta     97.3505
_cell_angle_gamma    108.791

_space_group_name_H-M_alt    "P 1"
_space_group_IT_number       1

loop_
  _space_group_symop_operation_xyz
  'x, y, z'

loop_
  _atom_site_type_symbol
  _atom_site_label
  _atom_site_symmetry_multiplicity
  _atom_site_fract_x
  _atom_site_fract_y
  _atom_site_fract_z
  _atom_site_occupancy
  Ag  Ag1       1.0  0.77966  0.61973  0.65633  1.0000
  Ag  Ag2       1.0  0.22034  0.38027  0.34368  1.0000
  Ag  Ag3       1.0  0.44733  0.61694  0.58462  1.0000
  Ag  Ag4       1.0  0.55268  0.38306  0.41538  1.0000
  P   P1        1.0  0.41710  0.71363  0.74426  1.0000
  P   P2        1.0  0.58290  0.28637  0.25574  1.0000
  P   P3        1.0  0.95738  0.79055  0.73055  1.0000
  P   P4        1.0  0.04263  0.20945  0.26945  1.0000
  H   H1        1.0  0.96079  0.68724  0.49524  1.0000
  H   H2        1.0  0.03920  0.31276  0.50475  1.0000
  H   H3        1.0  0.16592  0.47041  0.64688  1.0000
  H   H4        1.0  0.83407  0.52958  0.35311  1.0000
  H   H5        1.0  0.19706  0.58143  0.78116  1.0000
  H   H6        1.0  0.80294  0.41857  0.21883  1.0000
  H   H7        1.0  0.23040  0.72726  0.83829  1.0000
  H   H8        1.0  0.76960  0.27274  0.16170  1.0000
  H   H9        1.0  0.70560  0.79793  0.83846  1.0000
  H   H10       1.0  0.29440  0.20207  0.16155  1.0000
  H   H11       1.0  0.83536  0.79074  0.01898  1.0000
  H   H12       1.0  0.16463  0.20925  0.98103  1.0000
  H   H13       1.0  0.71029  0.69055  0.16050  1.0000
  H   H14       1.0  0.28969  0.30945  0.83951  1.0000
  H   H15       1.0  0.45678  0.59823  0.12064  1.0000
  H   H16       1.0  0.54321  0.40176  0.87936  1.0000
  H   H17       1.0  0.32566  0.60735  0.94306  1.0000
  H   H18       1.0  0.67433  0.39264  0.05694  1.0000
  H   H19       1.0  0.47349  0.91197  0.91990  1.0000
  H   H20       1.0  0.52653  0.08802  0.08011  1.0000
  H   H21       1.0  0.47563  0.11422  0.91043  1.0000
  H   H22       1.0  0.52439  0.88578  0.08958  1.0000
  H   H23       1.0  0.44736  0.18078  0.72773  1.0000
  H   H24       1.0  0.55266  0.81922  0.27228  1.0000
  H   H25       1.0  0.42220  0.04991  0.55650  1.0000
  H   H26       1.0  0.57781  0.95010  0.44351  1.0000
  H   H27       1.0  0.42370  0.84779  0.56432  1.0000
  H   H28       1.0  0.57630  0.15222  0.43568  1.0000
  H   H29       1.0  0.11002  0.82052  0.59116  1.0000
  H   H30       1.0  0.88998  0.17948  0.40883  1.0000
  H   H31       1.0  0.20364  0.86210  0.72677  1.0000
  H   H32       1.0  0.79636  0.13790  0.27322  1.0000
  H   H33       1.0  0.93356  0.61022  0.86456  1.0000
  H   H34       1.0  0.06644  0.38979  0.13544  1.0000
  H   H35       1.0  0.04896  0.60640  0.05417  1.0000
  H   H36       1.0  0.95103  0.39360  0.94584  1.0000
  H   H37       1.0  0.19760  0.78887  0.17140  1.0000
  H   H38       1.0  0.80239  0.21114  0.82860  1.0000
  H   H39       1.0  0.22742  0.97854  0.10352  1.0000
  H   H40       1.0  0.77258  0.02146  0.89648  1.0000
  H   H41       1.0  0.11735  0.98411  0.91477  1.0000
  H   H42       1.0  0.88266  0.01589  0.08522  1.0000
  H   H43       1.0  0.72144  0.85961  0.66335  1.0000
  H   H44       1.0  0.27857  0.14039  0.33665  1.0000
  H   H45       1.0  0.69872  0.04791  0.62556  1.0000
  H   H46       1.0  0.30128  0.95210  0.37445  1.0000
  H   H47       1.0  0.90520  0.21991  0.63520  1.0000
  H   H48       1.0  0.09480  0.78009  0.36480  1.0000
  H   H49       1.0  0.14020  0.20570  0.68384  1.0000
  H   H50       1.0  0.85980  0.79430  0.31616  1.0000
  H   H51       1.0  0.16466  0.02360  0.73046  1.0000
  H   H52       1.0  0.83534  0.97641  0.26954  1.0000
  C   C1        1.0  0.97899  0.60548  0.49976  1.0000
  C   C2        1.0  0.02100  0.39452  0.50024  1.0000
  C   C3        1.0  0.07391  0.59408  0.58658  1.0000
  C   C4        1.0  0.92608  0.40592  0.41342  1.0000
  C   C5        1.0  0.09278  0.48585  0.58440  1.0000
  C   C6        1.0  0.90721  0.51415  0.41560  1.0000
  C   C7        1.0  0.23263  0.67129  0.76429  1.0000
  C   C8        1.0  0.76736  0.32871  0.23570  1.0000
  C   C9        1.0  0.50646  0.70404  0.87776  1.0000
  C   C10       1.0  0.49353  0.29596  0.12224  1.0000
  C   C11       1.0  0.65066  0.75490  0.90058  1.0000
  C   C12       1.0  0.34934  0.24509  0.09942  1.0000
  C   C13       1.0  0.72370  0.75079  0.00197  1.0000
  C   C14       1.0  0.27628  0.24920  0.99804  1.0000
  C   C15       1.0  0.65414  0.69425  0.08116  1.0000
  C   C16       1.0  0.34584  0.30574  0.91885  1.0000
  C   C17       1.0  0.51127  0.64249  0.05893  1.0000
  C   C18       1.0  0.48872  0.35750  0.94107  1.0000
  C   C19       1.0  0.43724  0.64763  0.95793  1.0000
  C   C20       1.0  0.56275  0.35236  0.04207  1.0000
  C   C21       1.0  0.45032  0.86789  0.74289  1.0000
  C   C22       1.0  0.54969  0.13211  0.25711  1.0000
  C   C23       1.0  0.46495  0.94292  0.84038  1.0000
  C   C24       1.0  0.53507  0.05708  0.15963  1.0000
  C   C25       1.0  0.46521  0.05565  0.83513  1.0000
  C   C26       1.0  0.53481  0.94434  0.16488  1.0000
  C   C27       1.0  0.44972  0.09367  0.73279  1.0000
  C   C28       1.0  0.55029  0.90633  0.26722  1.0000
  C   C29       1.0  0.43552  0.01938  0.63567  1.0000
  C   C30       1.0  0.56449  0.98061  0.36434  1.0000
  C   C31       1.0  0.43705  0.90691  0.64022  1.0000
  C   C32       1.0  0.56295  0.09309  0.35978  1.0000
  C   C33       1.0  0.11794  0.79365  0.67342  1.0000
  C   C34       1.0  0.88206  0.20635  0.32657  1.0000
  C   C35       1.0  0.02021  0.79717  0.87650  1.0000
  C   C36       1.0  0.97980  0.20284  0.12350  1.0000
  C   C37       1.0  0.99901  0.69088  0.91698  1.0000
  C   C38       1.0  0.00100  0.30913  0.08302  1.0000
  C   C39       1.0  0.06345  0.68857  0.02269  1.0000
  C   C40       1.0  0.93655  0.31144  0.97731  1.0000
  C   C41       1.0  0.14709  0.79181  0.08937  1.0000
  C   C42       1.0  0.85290  0.20820  0.91063  1.0000
  C   C43       1.0  0.16410  0.89787  0.05078  1.0000
  C   C44       1.0  0.83590  0.10213  0.94922  1.0000
  C   C45       1.0  0.10171  0.90101  0.94462  1.0000
  C   C46       1.0  0.89829  0.09900  0.05538  1.0000
  C   C47       1.0  0.94392  0.92911  0.70405  1.0000
  C   C48       1.0  0.05608  0.07090  0.29595  1.0000
  C   C49       1.0  0.81305  0.93656  0.67169  1.0000
  C   C50       1.0  0.18694  0.06344  0.32831  1.0000
  C   C51       1.0  0.80023  0.04120  0.64741  1.0000
  C   C52       1.0  0.19977  0.95881  0.35259  1.0000
  C   C53       1.0  0.91739  0.13836  0.65258  1.0000
  C   C54       1.0  0.08260  0.86164  0.34742  1.0000
  C   C55       1.0  0.04801  0.13097  0.68158  1.0000
  C   C56       1.0  0.95199  0.86904  0.31841  1.0000
  C   C57       1.0  0.06157  0.02718  0.70807  1.0000
  C   C58       1.0  0.93842  0.97282  0.29193  1.0000
  N   N1        1.0  0.14461  0.68607  0.67102  1.0000
  N   N2        1.0  0.85539  0.31393  0.32898  1.0000
  N   N3        1.0  0.64877  0.66267  0.41141  1.0000
  N   N4        1.0  0.35123  0.33732  0.58859  1.0000
  N   N5        1.0  0.72501  0.36497  0.66185  1.0000
  N   N6        1.0  0.27500  0.63503  0.33813  1.0000
  O   O1        1.0  0.61382  0.58791  0.48139  1.0000
  O   O2        1.0  0.38619  0.41209  0.51861  1.0000
  O   O3        1.0  0.65741  0.76486  0.43949  1.0000
  O   O4        1.0  0.34260  0.23513  0.56051  1.0000
  O   O5        1.0  0.67221  0.62579  0.32054  1.0000
  O   O6        1.0  0.32778  0.37420  0.67946  1.0000
  O   O7        1.0  0.80943  0.41029  0.74887  1.0000
  O   O8        1.0  0.19058  0.58970  0.25113  1.0000
  O   O9        1.0  0.66971  0.43153  0.60837  1.0000
  O   O10       1.0  0.33029  0.56847  0.39163  1.0000
  O   O11       1.0  0.68893  0.26065  0.62255  1.0000
  O   O12       1.0  0.31109  0.73936  0.37742  1.0000
