data_image0
_chemical_formula_structural       Zn2H44C36N4O14
_chemical_formula_sum              "Zn2 H44 C36 N4 O14"
_cell_length_a       5.95546
_cell_length_b       8.11107
_cell_length_c       20.297
_cell_angle_alpha    89.9981
_cell_angle_beta     98.3736
_cell_angle_gamma    90.0012

_space_group_name_H-M_alt    "P 1"
_space_group_IT_number       1

loop_
  _space_group_symop_operation_xyz
  'x, y, z'

loop_
  _atom_site_type_symbol
  _atom_site_label
  _atom_site_symmetry_multiplicity
  _atom_site_fract_x
  _atom_site_fract_y
  _atom_site_fract_z
  _atom_site_occupancy
  Zn  Zn1       1.0  0.00052  0.17524  0.75367  1.0000
  Zn  Zn2       1.0  0.99945  0.67522  0.24633  1.0000
  H   H1        1.0  0.47540  0.32071  0.88998  1.0000
  H   H2        1.0  0.52458  0.82071  0.11001  1.0000
  H   H3        1.0  0.10519  0.36296  0.85760  1.0000
  H   H4        1.0  0.89479  0.86296  0.14240  1.0000
  H   H5        1.0  0.06988  0.17164  0.87996  1.0000
  H   H6        1.0  0.93010  0.67165  0.12003  1.0000
  H   H7        1.0  0.40553  0.95131  0.86358  1.0000
  H   H8        1.0  0.59443  0.45130  0.13643  1.0000
  H   H9        1.0  0.64566  0.05236  0.90872  1.0000
  H   H10       1.0  0.35432  0.55236  0.09128  1.0000
  H   H11       1.0  0.60246  0.18346  0.02225  1.0000
  H   H12       1.0  0.39758  0.68347  0.97775  1.0000
  H   H13       1.0  0.39051  0.18975  0.11846  1.0000
  H   H14       1.0  0.60956  0.68978  0.88154  1.0000
  H   H15       1.0  0.04487  0.11685  0.15975  1.0000
  H   H16       1.0  0.95517  0.61685  0.84026  1.0000
  H   H17       1.0  0.85607  0.90162  0.00795  1.0000
  H   H18       1.0  0.14393  0.40158  0.99206  1.0000
  H   H19       1.0  0.07233  0.89164  0.91199  1.0000
  H   H20       1.0  0.92764  0.39162  0.08802  1.0000
  H   H21       1.0  0.61909  0.81551  0.67321  1.0000
  H   H22       1.0  0.38089  0.31552  0.32680  1.0000
  H   H23       1.0  0.62858  0.09198  0.68941  1.0000
  H   H24       1.0  0.37139  0.59199  0.31059  1.0000
  H   H25       1.0  0.78322  0.08932  0.62872  1.0000
  H   H26       1.0  0.21675  0.58932  0.37127  1.0000
  H   H27       1.0  0.09151  0.85853  0.63328  1.0000
  H   H28       1.0  0.90848  0.35850  0.36672  1.0000
  H   H29       1.0  0.95491  0.66759  0.63799  1.0000
  H   H30       1.0  0.04510  0.16757  0.36201  1.0000
  H   H31       1.0  0.49730  0.93634  0.57655  1.0000
  H   H32       1.0  0.50271  0.43635  0.42344  1.0000
  H   H33       1.0  0.33126  0.96913  0.45982  1.0000
  H   H34       1.0  0.66875  0.46914  0.54017  1.0000
  H   H35       1.0  0.58727  0.81079  0.32367  1.0000
  H   H36       1.0  0.41273  0.31079  0.67633  1.0000
  H   H37       1.0  0.91277  0.73376  0.39783  1.0000
  H   H38       1.0  0.08725  0.23376  0.60217  1.0000
  H   H39       1.0  0.08590  0.70257  0.51617  1.0000
  H   H40       1.0  0.91411  0.20257  0.48383  1.0000
  H   H41       1.0  0.78177  0.38906  0.67191  1.0000
  H   H42       1.0  0.21821  0.88904  0.32808  1.0000
  H   H43       1.0  0.92938  0.49767  0.72346  1.0000
  H   H44       1.0  0.07060  0.99766  0.27654  1.0000
  C   C1        1.0  0.48964  0.21997  0.79413  1.0000
  C   C2        1.0  0.51034  0.71996  0.20587  1.0000
  C   C3        1.0  0.39246  0.21898  0.85973  1.0000
  C   C4        1.0  0.60752  0.71897  0.14027  1.0000
  C   C5        1.0  0.45985  0.05483  0.89711  1.0000
  C   C6        1.0  0.54013  0.55483  0.10289  1.0000
  C   C7        1.0  0.34906  0.04190  0.95905  1.0000
  C   C8        1.0  0.65094  0.54190  0.04095  1.0000
  C   C9        1.0  0.43816  0.12206  0.01837  1.0000
  C   C10       1.0  0.56187  0.62207  0.98163  1.0000
  C   C11       1.0  0.31896  0.12671  0.07272  1.0000
  C   C12       1.0  0.68107  0.62672  0.92728  1.0000
  C   C13       1.0  0.10397  0.05283  0.06806  1.0000
  C   C14       1.0  0.89609  0.55283  0.93195  1.0000
  C   C15       1.0  0.01891  0.96445  0.01049  1.0000
  C   C16       1.0  0.98107  0.46443  0.98953  1.0000
  C   C17       1.0  0.14041  0.95973  0.95686  1.0000
  C   C18       1.0  0.85959  0.45972  0.04314  1.0000
  C   C19       1.0  0.90111  0.81647  0.75058  1.0000
  C   C20       1.0  0.09889  0.31647  0.24942  1.0000
  C   C21       1.0  0.79100  0.86936  0.68039  1.0000
  C   C22       1.0  0.20899  0.36936  0.31962  1.0000
  C   C23       1.0  0.92277  0.79921  0.62743  1.0000
  C   C24       1.0  0.07722  0.29920  0.37257  1.0000
  C   C25       1.0  0.80825  0.81925  0.55611  1.0000
  C   C26       1.0  0.19176  0.31925  0.44389  1.0000
  C   C27       1.0  0.59411  0.89180  0.53850  1.0000
  C   C28       1.0  0.40588  0.39179  0.46149  1.0000
  C   C29       1.0  0.49623  0.90967  0.47215  1.0000
  C   C30       1.0  0.50380  0.40968  0.52785  1.0000
  C   C31       1.0  0.61099  0.85244  0.42131  1.0000
  C   C32       1.0  0.38903  0.35244  0.57868  1.0000
  C   C33       1.0  0.82319  0.77634  0.43774  1.0000
  C   C34       1.0  0.17683  0.27633  0.56227  1.0000
  C   C35       1.0  0.91975  0.76125  0.50423  1.0000
  C   C36       1.0  0.08025  0.26124  0.49576  1.0000
  N   N1        1.0  0.14615  0.24243  0.84775  1.0000
  N   N2        1.0  0.85383  0.74243  0.15225  1.0000
  N   N3        1.0  0.77976  0.05115  0.67655  1.0000
  N   N4        1.0  0.22021  0.55114  0.32345  1.0000
  O   O1        1.0  0.35630  0.18985  0.73873  1.0000
  O   O2        1.0  0.64368  0.68985  0.26127  1.0000
  O   O3        1.0  0.69789  0.24715  0.79800  1.0000
  O   O4        1.0  0.30209  0.74715  0.20199  1.0000
  O   O5        1.0  0.96934  0.06396  0.11662  1.0000
  O   O6        1.0  0.03069  0.56396  0.88339  1.0000
  O   O7        1.0  0.00491  0.92250  0.78899  1.0000
  O   O8        1.0  0.99508  0.42249  0.21100  1.0000
  O   O9        1.0  0.87668  0.66559  0.76572  1.0000
  O   O10       1.0  0.12335  0.16559  0.23429  1.0000
  O   O11       1.0  0.51055  0.87428  0.35685  1.0000
  O   O12       1.0  0.48946  0.37429  0.64315  1.0000
  O   O13       1.0  0.94035  0.39844  0.69466  1.0000
  O   O14       1.0  0.05964  0.89842  0.30533  1.0000
