data_image0
_chemical_formula_structural       Cu3H20C18N2O12
_chemical_formula_sum              "Cu3 H20 C18 N2 O12"
_cell_length_a       7.206
_cell_length_b       8.34229
_cell_length_c       10.813
_cell_angle_alpha    90.4699
_cell_angle_beta     82.7066
_cell_angle_gamma    65.1457

_space_group_name_H-M_alt    "P 1"
_space_group_IT_number       1

loop_
  _space_group_symop_operation_xyz
  'x, y, z'

loop_
  _atom_site_type_symbol
  _atom_site_label
  _atom_site_symmetry_multiplicity
  _atom_site_fract_x
  _atom_site_fract_y
  _atom_site_fract_z
  _atom_site_occupancy
  Cu  Cu1       1.0  0.00002  0.99999  0.00001  1.0000
  Cu  Cu2       1.0  0.57899  0.01605  0.38962  1.0000
  Cu  Cu3       1.0  0.42094  0.98397  0.61037  1.0000
  H   H1        1.0  0.51274  0.96200  0.12722  1.0000
  H   H2        1.0  0.48724  0.03803  0.87272  1.0000
  H   H3        1.0  0.32203  0.32693  0.96949  1.0000
  H   H4        1.0  0.67802  0.67305  0.03053  1.0000
  H   H5        1.0  0.36560  0.30313  0.19589  1.0000
  H   H6        1.0  0.63443  0.69685  0.80413  1.0000
  H   H7        1.0  0.26291  0.58146  0.33040  1.0000
  H   H8        1.0  0.73710  0.41851  0.66963  1.0000
  H   H9        1.0  0.12060  0.87159  0.23278  1.0000
  H   H10       1.0  0.87939  0.12839  0.76725  1.0000
  H   H11       1.0  0.59100  0.54540  0.40819  1.0000
  H   H12       1.0  0.40898  0.45463  0.59175  1.0000
  H   H13       1.0  0.98751  0.16728  0.40246  1.0000
  H   H14       1.0  0.01242  0.83276  0.59754  1.0000
  H   H15       1.0  0.20155  0.50251  0.80013  1.0000
  H   H16       1.0  0.79854  0.49747  0.19988  1.0000
  H   H17       1.0  0.24726  0.69799  0.79982  1.0000
  H   H18       1.0  0.75278  0.30200  0.20019  1.0000
  H   H19       1.0  0.99422  0.71507  0.84425  1.0000
  H   H20       1.0  0.00582  0.28489  0.15577  1.0000
  C   C1        1.0  0.65456  0.98435  0.11219  1.0000
  C   C2        1.0  0.34546  0.01566  0.88778  1.0000
  C   C3        1.0  0.19541  0.61083  0.98166  1.0000
  C   C4        1.0  0.80464  0.38915  0.01836  1.0000
  C   C5        1.0  0.27999  0.44477  0.03050  1.0000
  C   C6        1.0  0.72005  0.55521  0.96952  1.0000
  C   C7        1.0  0.30512  0.43147  0.15613  1.0000
  C   C8        1.0  0.69490  0.56851  0.84389  1.0000
  C   C9        1.0  0.24867  0.58563  0.23142  1.0000
  C   C10       1.0  0.75134  0.41436  0.76861  1.0000
  C   C11       1.0  0.16923  0.74711  0.17792  1.0000
  C   C12       1.0  0.83079  0.25287  0.82211  1.0000
  C   C13       1.0  0.15847  0.63171  0.84856  1.0000
  C   C14       1.0  0.84158  0.36827  0.15145  1.0000
  C   C15       1.0  0.56188  0.68296  0.43659  1.0000
  C   C16       1.0  0.43808  0.31706  0.56336  1.0000
  C   C17       1.0  0.14237  0.11802  0.43217  1.0000
  C   C18       1.0  0.85755  0.88202  0.56783  1.0000
  N   N1        1.0  0.14227  0.75881  0.05674  1.0000
  N   N2        1.0  0.85776  0.24118  0.94329  1.0000
  O   O1        1.0  0.74547  0.95810  0.99932  1.0000
  O   O2        1.0  0.25456  0.04190  0.00066  1.0000
  O   O3        1.0  0.71499  0.03530  0.20289  1.0000
  O   O4        1.0  0.28499  0.96469  0.79709  1.0000
  O   O5        1.0  0.61782  0.76557  0.35311  1.0000
  O   O6        1.0  0.38227  0.23443  0.64687  1.0000
  O   O7        1.0  0.47643  0.73642  0.54859  1.0000
  O   O8        1.0  0.52340  0.26363  0.45133  1.0000
  O   O9        1.0  0.28918  0.10597  0.34859  1.0000
  O   O10       1.0  0.71077  0.89396  0.65140  1.0000
  O   O11       1.0  0.15006  0.07979  0.54522  1.0000
  O   O12       1.0  0.84984  0.92034  0.45481  1.0000
