data_image0
_chemical_formula_structural       Cd4H32C48N12Cl8
_chemical_formula_sum              "Cd4 H32 C48 N12 Cl8"
_cell_length_a       11.907
_cell_length_b       11.9082
_cell_length_c       12.975
_cell_angle_alpha    94.0448
_cell_angle_beta     114.152
_cell_angle_gamma    118.504

_space_group_name_H-M_alt    "P 1"
_space_group_IT_number       1

loop_
  _space_group_symop_operation_xyz
  'x, y, z'

loop_
  _atom_site_type_symbol
  _atom_site_label
  _atom_site_symmetry_multiplicity
  _atom_site_fract_x
  _atom_site_fract_y
  _atom_site_fract_z
  _atom_site_occupancy
  Cd  Cd1       1.0  0.67112  0.20482  0.31154  1.0000
  Cd  Cd2       1.0  0.39344  0.35973  0.18845  1.0000
  Cd  Cd3       1.0  0.32888  0.79518  0.68846  1.0000
  Cd  Cd4       1.0  0.60656  0.64027  0.81155  1.0000
  H   H1        1.0  0.94406  0.50542  0.36841  1.0000
  H   H2        1.0  0.63684  0.57576  0.13156  1.0000
  H   H3        1.0  0.05594  0.49458  0.63160  1.0000
  H   H4        1.0  0.36316  0.42424  0.86844  1.0000
  H   H5        1.0  0.12795  0.61569  0.30384  1.0000
  H   H6        1.0  0.81184  0.82414  0.19624  1.0000
  H   H7        1.0  0.87206  0.38431  0.69617  1.0000
  H   H8        1.0  0.18815  0.17587  0.80376  1.0000
  H   H9        1.0  0.07935  0.48619  0.10897  1.0000
  H   H10       1.0  0.87741  0.97034  0.39121  1.0000
  H   H11       1.0  0.92066  0.51381  0.89103  1.0000
  H   H12       1.0  0.12258  0.02966  0.60878  1.0000
  H   H13       1.0  0.84402  0.26187  0.98692  1.0000
  H   H14       1.0  0.77501  0.85703  0.51322  1.0000
  H   H15       1.0  0.15599  0.73813  0.01309  1.0000
  H   H16       1.0  0.22499  0.14297  0.48678  1.0000
  H   H17       1.0  0.63526  0.33177  0.92029  1.0000
  H   H18       1.0  0.91192  0.71528  0.57999  1.0000
  H   H19       1.0  0.36474  0.66823  0.07970  1.0000
  H   H20       1.0  0.08808  0.28472  0.42001  1.0000
  H   H21       1.0  0.65616  0.40833  0.75407  1.0000
  H   H22       1.0  0.15443  0.90253  0.74640  1.0000
  H   H23       1.0  0.34385  0.59167  0.24593  1.0000
  H   H24       1.0  0.84557  0.09747  0.25359  1.0000
  H   H25       1.0  0.56794  0.23849  0.56448  1.0000
  H   H26       1.0  0.17356  0.00366  0.93574  1.0000
  H   H27       1.0  0.43207  0.76151  0.43552  1.0000
  H   H28       1.0  0.82644  0.99634  0.06426  1.0000
  H   H29       1.0  0.44995  0.99325  0.55162  1.0000
  H   H30       1.0  0.94083  0.89807  0.94829  1.0000
  H   H31       1.0  0.55005  0.00675  0.44838  1.0000
  H   H32       1.0  0.05917  0.10193  0.05172  1.0000
  C   C1        1.0  0.92438  0.45434  0.28367  1.0000
  C   C2        1.0  0.67059  0.64075  0.21637  1.0000
  C   C3        1.0  0.07563  0.54566  0.71633  1.0000
  C   C4        1.0  0.32941  0.35925  0.78363  1.0000
  C   C5        1.0  0.02755  0.51583  0.24683  1.0000
  C   C6        1.0  0.76896  0.78075  0.25325  1.0000
  C   C7        1.0  0.97246  0.48417  0.75317  1.0000
  C   C8        1.0  0.23103  0.21925  0.74675  1.0000
  C   C9        1.0  0.99942  0.44559  0.13936  1.0000
  C   C10       1.0  0.80632  0.86005  0.36077  1.0000
  C   C11       1.0  0.00058  0.55441  0.86064  1.0000
  C   C12       1.0  0.19368  0.13995  0.63923  1.0000
  C   C13       1.0  0.86697  0.31916  0.07019  1.0000
  C   C14       1.0  0.74900  0.79675  0.42991  1.0000
  C   C15       1.0  0.13304  0.68084  0.92981  1.0000
  C   C16       1.0  0.25100  0.20325  0.57008  1.0000
  C   C17       1.0  0.76700  0.26520  0.11140  1.0000
  C   C18       1.0  0.65383  0.65561  0.38868  1.0000
  C   C19       1.0  0.23300  0.73480  0.88860  1.0000
  C   C20       1.0  0.34617  0.34439  0.61132  1.0000
  C   C21       1.0  0.62643  0.12830  0.04738  1.0000
  C   C22       1.0  0.58089  0.57907  0.45266  1.0000
  C   C23       1.0  0.37357  0.87170  0.95262  1.0000
  C   C24       1.0  0.41911  0.42093  0.54734  1.0000
  C   C25       1.0  0.52818  0.06503  0.92236  1.0000
  C   C26       1.0  0.64272  0.60574  0.57767  1.0000
  C   C27       1.0  0.47182  0.93497  0.07764  1.0000
  C   C28       1.0  0.35728  0.39426  0.42233  1.0000
  C   C29       1.0  0.54379  0.12240  0.82771  1.0000
  C   C30       1.0  0.79471  0.71602  0.67234  1.0000
  C   C31       1.0  0.45621  0.87760  0.17229  1.0000
  C   C32       1.0  0.20529  0.28398  0.32766  1.0000
  C   C33       1.0  0.60081  0.25901  0.84003  1.0000
  C   C34       1.0  0.91918  0.76095  0.66019  1.0000
  C   C35       1.0  0.39919  0.74099  0.15997  1.0000
  C   C36       1.0  0.08082  0.23905  0.33981  1.0000
  C   C37       1.0  0.61132  0.30194  0.74537  1.0000
  C   C38       1.0  0.05656  0.86622  0.75494  1.0000
  C   C39       1.0  0.38868  0.69806  0.25463  1.0000
  C   C40       1.0  0.94344  0.13378  0.24506  1.0000
  C   C41       1.0  0.56143  0.20816  0.64045  1.0000
  C   C42       1.0  0.06737  0.92113  0.85972  1.0000
  C   C43       1.0  0.43857  0.79184  0.35955  1.0000
  C   C44       1.0  0.93263  0.07887  0.14028  1.0000
  C   C45       1.0  0.49876  0.07273  0.63342  1.0000
  C   C46       1.0  0.93883  0.86527  0.86659  1.0000
  C   C47       1.0  0.50124  0.92727  0.36658  1.0000
  C   C48       1.0  0.06117  0.13473  0.13341  1.0000
  N   N1        1.0  0.79853  0.33143  0.21852  1.0000
  N   N2        1.0  0.61289  0.58004  0.28154  1.0000
  N   N3        1.0  0.20147  0.66857  0.78148  1.0000
  N   N4        1.0  0.38711  0.41996  0.71846  1.0000
  N   N5        1.0  0.59311  0.05986  0.11906  1.0000
  N   N6        1.0  0.44075  0.47418  0.38095  1.0000
  N   N7        1.0  0.40689  0.94014  0.88094  1.0000
  N   N8        1.0  0.55925  0.52582  0.61905  1.0000
  N   N9        1.0  0.49134  0.03089  0.72481  1.0000
  N   N10       1.0  0.80580  0.76634  0.77512  1.0000
  N   N11       1.0  0.50866  0.96911  0.27519  1.0000
  N   N12       1.0  0.19421  0.23366  0.22488  1.0000
  Cl  Cl1       1.0  0.88252  0.21636  0.48249  1.0000
  Cl  Cl2       1.0  0.23382  0.39992  0.01738  1.0000
  Cl  Cl3       1.0  0.11748  0.78364  0.51751  1.0000
  Cl  Cl4       1.0  0.76618  0.60008  0.98262  1.0000
  Cl  Cl5       1.0  0.60595  0.32808  0.41178  1.0000
  Cl  Cl6       1.0  0.41625  0.19423  0.08807  1.0000
  Cl  Cl7       1.0  0.39405  0.67191  0.58821  1.0000
  Cl  Cl8       1.0  0.58375  0.80577  0.91193  1.0000
