data_image0
_chemical_formula_structural       Cu4H8C12S4N8
_chemical_formula_sum              "Cu4 H8 C12 S4 N8"
_cell_length_a       5.90486
_cell_length_b       6.31154
_cell_length_c       14.2179
_cell_angle_alpha    90
_cell_angle_beta     90.0032
_cell_angle_gamma    119.479

_space_group_name_H-M_alt    "P 1"
_space_group_IT_number       1

loop_
  _space_group_symop_operation_xyz
  'x, y, z'

loop_
  _atom_site_type_symbol
  _atom_site_label
  _atom_site_symmetry_multiplicity
  _atom_site_fract_x
  _atom_site_fract_y
  _atom_site_fract_z
  _atom_site_occupancy
  Cu  Cu1       1.0  0.37087  0.89325  0.32797  1.0000
  Cu  Cu2       1.0  0.37086  0.39325  0.17202  1.0000
  Cu  Cu3       1.0  0.62912  0.10674  0.67202  1.0000
  Cu  Cu4       1.0  0.62914  0.60674  0.82797  1.0000
  H   H1        1.0  0.47126  0.68721  0.49848  1.0000
  H   H2        1.0  0.47127  0.18723  0.00152  1.0000
  H   H3        1.0  0.52873  0.31277  0.50152  1.0000
  H   H4        1.0  0.52874  0.81278  0.99848  1.0000
  H   H5        1.0  0.79321  0.60149  0.37351  1.0000
  H   H6        1.0  0.79322  0.10150  0.12649  1.0000
  H   H7        1.0  0.20677  0.39848  0.62649  1.0000
  H   H8        1.0  0.20680  0.89852  0.87351  1.0000
  C   C1        1.0  0.96230  0.08893  0.33096  1.0000
  C   C2        1.0  0.96231  0.58894  0.16904  1.0000
  C   C3        1.0  0.03767  0.91106  0.66904  1.0000
  C   C4        1.0  0.03769  0.41105  0.83096  1.0000
  C   C5        1.0  0.25985  0.60218  0.49866  1.0000
  C   C6        1.0  0.25986  0.10219  0.00135  1.0000
  C   C7        1.0  0.74015  0.39783  0.50135  1.0000
  C   C8        1.0  0.74015  0.89782  0.99865  1.0000
  C   C9        1.0  0.88661  0.55681  0.43015  1.0000
  C   C10       1.0  0.88661  0.05681  0.06985  1.0000
  C   C11       1.0  0.11339  0.44319  0.56985  1.0000
  C   C12       1.0  0.11340  0.94320  0.93015  1.0000
  S   S1        1.0  0.27916  0.20855  0.31976  1.0000
  S   S2        1.0  0.27915  0.70854  0.18024  1.0000
  S   S3        1.0  0.72083  0.79146  0.68024  1.0000
  S   S4        1.0  0.72086  0.29146  0.81975  1.0000
  N   N1        1.0  0.73558  0.01015  0.33903  1.0000
  N   N2        1.0  0.73559  0.51017  0.16097  1.0000
  N   N3        1.0  0.26444  0.98985  0.66097  1.0000
  N   N4        1.0  0.26442  0.48984  0.83903  1.0000
  N   N5        1.0  0.14844  0.66095  0.42808  1.0000
  N   N6        1.0  0.14845  0.16095  0.07192  1.0000
  N   N7        1.0  0.85156  0.33906  0.57192  1.0000
  N   N8        1.0  0.85157  0.83905  0.92808  1.0000
