data_image0
_chemical_formula_structural       Zn3H32C50N14O18
_chemical_formula_sum              "Zn3 H32 C50 N14 O18"
_cell_length_a       7.85826
_cell_length_b       8.78987
_cell_length_c       18.142
_cell_angle_alpha    84.5473
_cell_angle_beta     84.3409
_cell_angle_gamma    81.6415

_space_group_name_H-M_alt    "P 1"
_space_group_IT_number       1

loop_
  _space_group_symop_operation_xyz
  'x, y, z'

loop_
  _atom_site_type_symbol
  _atom_site_label
  _atom_site_symmetry_multiplicity
  _atom_site_fract_x
  _atom_site_fract_y
  _atom_site_fract_z
  _atom_site_occupancy
  Zn  Zn1       1.0  0.52280  0.25143  0.41851  1.0000
  Zn  Zn2       1.0  0.47720  0.74856  0.58149  1.0000
  Zn  Zn3       1.0  0.00000  0.00000  0.50000  1.0000
  H   H1        1.0  0.99341  0.29844  0.51175  1.0000
  H   H2        1.0  0.00659  0.70156  0.48825  1.0000
  H   H3        1.0  0.16235  0.27155  0.45556  1.0000
  H   H4        1.0  0.83765  0.72845  0.54444  1.0000
  H   H5        1.0  0.39186  0.66710  0.75143  1.0000
  H   H6        1.0  0.60814  0.33290  0.24857  1.0000
  H   H7        1.0  0.97330  0.16228  0.91849  1.0000
  H   H8        1.0  0.02671  0.83771  0.08152  1.0000
  H   H9        1.0  0.10741  0.19742  0.33414  1.0000
  H   H10       1.0  0.89259  0.80259  0.66586  1.0000
  H   H11       1.0  0.44301  0.94741  0.19102  1.0000
  H   H12       1.0  0.55700  0.05259  0.80898  1.0000
  H   H13       1.0  0.27455  0.50421  0.25466  1.0000
  H   H14       1.0  0.72544  0.49579  0.74534  1.0000
  H   H15       1.0  0.27339  0.47992  0.99584  1.0000
  H   H16       1.0  0.72662  0.52008  0.00416  1.0000
  H   H17       1.0  0.03383  0.27056  0.78937  1.0000
  H   H18       1.0  0.96617  0.72944  0.21063  1.0000
  H   H19       1.0  0.18183  0.50983  0.57289  1.0000
  H   H20       1.0  0.81817  0.49017  0.42711  1.0000
  H   H21       1.0  0.33191  0.58668  0.86828  1.0000
  H   H22       1.0  0.66809  0.41332  0.13172  1.0000
  H   H23       1.0  0.78481  0.05915  0.15521  1.0000
  H   H24       1.0  0.21519  0.94085  0.84479  1.0000
  H   H25       1.0  0.80955  0.83466  0.38530  1.0000
  H   H26       1.0  0.19045  0.16534  0.61470  1.0000
  H   H27       1.0  0.30855  0.31336  0.08508  1.0000
  H   H28       1.0  0.69145  0.68663  0.91492  1.0000
  H   H29       1.0  0.24907  0.20997  0.21361  1.0000
  H   H30       1.0  0.75093  0.79004  0.78639  1.0000
  H   H31       1.0  0.84453  0.16413  0.02508  1.0000
  H   H32       1.0  0.15547  0.83587  0.97492  1.0000
  C   C1        1.0  0.37205  0.79165  0.44646  1.0000
  C   C2        1.0  0.62795  0.20835  0.55354  1.0000
  C   C3        1.0  0.36070  0.77434  0.36493  1.0000
  C   C4        1.0  0.63930  0.22566  0.63507  1.0000
  C   C5        1.0  0.30962  0.63715  0.34468  1.0000
  C   C6        1.0  0.69038  0.36285  0.65532  1.0000
  C   C7        1.0  0.41013  0.88565  0.30863  1.0000
  C   C8        1.0  0.58987  0.11435  0.69137  1.0000
  C   C9        1.0  0.24822  0.51791  0.40269  1.0000
  C   C10       1.0  0.75178  0.48209  0.59731  1.0000
  C   C11       1.0  0.08193  0.24731  0.04464  1.0000
  C   C12       1.0  0.91808  0.75269  0.95536  1.0000
  C   C13       1.0  0.31885  0.60419  0.71997  1.0000
  C   C14       1.0  0.68115  0.39581  0.28003  1.0000
  C   C15       1.0  0.18289  0.43668  0.82093  1.0000
  C   C16       1.0  0.81711  0.56332  0.17907  1.0000
  C   C17       1.0  0.11838  0.31182  0.96759  1.0000
  C   C18       1.0  0.88163  0.68818  0.03241  1.0000
  C   C19       1.0  0.05017  0.25682  0.90811  1.0000
  C   C20       1.0  0.94983  0.74318  0.09189  1.0000
  C   C21       1.0  0.35829  0.72377  0.21557  1.0000
  C   C22       1.0  0.64171  0.27623  0.78443  1.0000
  C   C23       1.0  0.02932  0.10670  0.33020  1.0000
  C   C24       1.0  0.97068  0.89330  0.66980  1.0000
  C   C25       1.0  0.40653  0.86029  0.23397  1.0000
  C   C26       1.0  0.59347  0.13971  0.76603  1.0000
  C   C27       1.0  0.01041  0.13154  0.19216  1.0000
  C   C28       1.0  0.98959  0.86846  0.80784  1.0000
  C   C29       1.0  0.31141  0.61081  0.26993  1.0000
  C   C30       1.0  0.68859  0.38919  0.73007  1.0000
  C   C31       1.0  0.22115  0.43122  0.95126  1.0000
  C   C32       1.0  0.77886  0.56878  0.04874  1.0000
  C   C33       1.0  0.08166  0.31757  0.83536  1.0000
  C   C34       1.0  0.91834  0.68243  0.16464  1.0000
  C   C35       1.0  0.20926  0.52416  0.62925  1.0000
  C   C36       1.0  0.79074  0.47584  0.37075  1.0000
  C   C37       1.0  0.25346  0.49343  0.87879  1.0000
  C   C38       1.0  0.74654  0.50657  0.12121  1.0000
  C   C39       1.0  0.89878  0.11560  0.13881  1.0000
  C   C40       1.0  0.10122  0.88440  0.86119  1.0000
  C   C41       1.0  0.87662  0.92244  0.35394  1.0000
  C   C42       1.0  0.12338  0.07756  0.64606  1.0000
  C   C43       1.0  0.19175  0.26037  0.09969  1.0000
  C   C44       1.0  0.80825  0.73963  0.90031  1.0000
  C   C45       1.0  0.15725  0.20400  0.17298  1.0000
  C   C46       1.0  0.84275  0.79600  0.82702  1.0000
  C   C47       1.0  0.93519  0.17324  0.06574  1.0000
  C   C48       1.0  0.06481  0.82676  0.93426  1.0000
  C   C49       1.0  0.46514  0.03639  0.32410  1.0000
  C   C50       1.0  0.53485  0.96361  0.67590  1.0000
  N   N1        1.0  0.96859  0.01481  0.38640  1.0000
  N   N2        1.0  0.03141  0.98519  0.61360  1.0000
  N   N3        1.0  0.21577  0.49813  0.74635  1.0000
  N   N4        1.0  0.78423  0.50187  0.25365  1.0000
  N   N5        1.0  0.97555  0.06968  0.26639  1.0000
  N   N6        1.0  0.02444  0.93032  0.73361  1.0000
  N   N7        1.0  0.14418  0.44668  0.68894  1.0000
  N   N8        1.0  0.85582  0.55332  0.31106  1.0000
  N   N9        1.0  0.35748  0.69844  0.13680  1.0000
  N   N10       1.0  0.64252  0.30156  0.86320  1.0000
  N   N11       1.0  0.87753  0.95207  0.28108  1.0000
  N   N12       1.0  0.12247  0.04793  0.71892  1.0000
  N   N13       1.0  0.31695  0.62329  0.64598  1.0000
  N   N14       1.0  0.68305  0.37670  0.35402  1.0000
  O   O1        1.0  0.50361  0.70960  0.47381  1.0000
  O   O2        1.0  0.49638  0.29040  0.52619  1.0000
  O   O3        1.0  0.28854  0.37412  0.38915  1.0000
  O   O4        1.0  0.71146  0.62588  0.61085  1.0000
  O   O5        1.0  0.33976  0.56706  0.12146  1.0000
  O   O6        1.0  0.66023  0.43294  0.87854  1.0000
  O   O7        1.0  0.26013  0.87359  0.48527  1.0000
  O   O8        1.0  0.73986  0.12641  0.51473  1.0000
  O   O9        1.0  0.08588  0.21813  0.49318  1.0000
  O   O10       1.0  0.91412  0.78187  0.50682  1.0000
  O   O11       1.0  0.15929  0.56160  0.45966  1.0000
  O   O12       1.0  0.84071  0.43840  0.54034  1.0000
  O   O13       1.0  0.37324  0.80906  0.08994  1.0000
  O   O14       1.0  0.62676  0.19094  0.91006  1.0000
  O   O15       1.0  0.49282  0.04745  0.39229  1.0000
  O   O16       1.0  0.50717  0.95255  0.60771  1.0000
  O   O17       1.0  0.47790  0.13891  0.27188  1.0000
  O   O18       1.0  0.52210  0.86110  0.72812  1.0000
