data_image0
_chemical_formula_structural       Cd4H52C56Br12N16
_chemical_formula_sum              "Cd4 H52 C56 Br12 N16"
_cell_length_a       7.40634
_cell_length_b       14.1475
_cell_length_c       16.0257
_cell_angle_alpha    90.0002
_cell_angle_beta     94.0946
_cell_angle_gamma    90

_space_group_name_H-M_alt    "P 1"
_space_group_IT_number       1

loop_
  _space_group_symop_operation_xyz
  'x, y, z'

loop_
  _atom_site_type_symbol
  _atom_site_label
  _atom_site_symmetry_multiplicity
  _atom_site_fract_x
  _atom_site_fract_y
  _atom_site_fract_z
  _atom_site_occupancy
  Cd  Cd1       1.0  0.25524  0.49612  0.55678  1.0000
  Cd  Cd2       1.0  0.74476  0.99612  0.94322  1.0000
  Cd  Cd3       1.0  0.74476  0.50387  0.44322  1.0000
  Cd  Cd4       1.0  0.25524  0.00388  0.05678  1.0000
  H   H1        1.0  0.70313  0.26836  0.96374  1.0000
  H   H2        1.0  0.29687  0.76836  0.53626  1.0000
  H   H3        1.0  0.29688  0.73164  0.03627  1.0000
  H   H4        1.0  0.70313  0.23164  0.46374  1.0000
  H   H5        1.0  0.71928  0.52136  0.11439  1.0000
  H   H6        1.0  0.28071  0.02136  0.38562  1.0000
  H   H7        1.0  0.28070  0.47864  0.88562  1.0000
  H   H8        1.0  0.71929  0.97864  0.61438  1.0000
  H   H9        1.0  0.80304  0.53837  0.85122  1.0000
  H   H10       1.0  0.19695  0.03837  0.64878  1.0000
  H   H11       1.0  0.19695  0.46163  0.14878  1.0000
  H   H12       1.0  0.80305  0.96163  0.35122  1.0000
  H   H13       1.0  0.86444  0.38345  0.77825  1.0000
  H   H14       1.0  0.13556  0.88345  0.72175  1.0000
  H   H15       1.0  0.13556  0.61655  0.22175  1.0000
  H   H16       1.0  0.86444  0.11655  0.27825  1.0000
  H   H17       1.0  0.79952  0.27566  0.82478  1.0000
  H   H18       1.0  0.20047  0.77566  0.67522  1.0000
  H   H19       1.0  0.20048  0.72434  0.17522  1.0000
  H   H20       1.0  0.79952  0.22435  0.32478  1.0000
  H   H21       1.0  0.41340  0.27711  0.84137  1.0000
  H   H22       1.0  0.58660  0.77711  0.65863  1.0000
  H   H23       1.0  0.58660  0.72289  0.15863  1.0000
  H   H24       1.0  0.41340  0.22289  0.34137  1.0000
  H   H25       1.0  0.15778  0.33143  0.71363  1.0000
  H   H26       1.0  0.84222  0.83143  0.78637  1.0000
  H   H27       1.0  0.84223  0.66857  0.28637  1.0000
  H   H28       1.0  0.15778  0.16857  0.21363  1.0000
  H   H29       1.0  0.66771  0.43797  0.65937  1.0000
  H   H30       1.0  0.33229  0.93798  0.84064  1.0000
  H   H31       1.0  0.33229  0.56202  0.34064  1.0000
  H   H32       1.0  0.66771  0.06203  0.15936  1.0000
  H   H33       1.0  0.69826  0.25345  0.10669  1.0000
  H   H34       1.0  0.30175  0.75345  0.39331  1.0000
  H   H35       1.0  0.30174  0.74655  0.89331  1.0000
  H   H36       1.0  0.69826  0.24655  0.60669  1.0000
  H   H37       1.0  0.51987  0.32985  0.13053  1.0000
  H   H38       1.0  0.48013  0.82985  0.36948  1.0000
  H   H39       1.0  0.48012  0.67015  0.86948  1.0000
  H   H40       1.0  0.51987  0.17015  0.63053  1.0000
  H   H41       1.0  0.03642  0.31875  0.17249  1.0000
  H   H42       1.0  0.96359  0.81874  0.32751  1.0000
  H   H43       1.0  0.96358  0.68125  0.82751  1.0000
  H   H44       1.0  0.03642  0.18125  0.67249  1.0000
  H   H45       1.0  0.10652  0.39022  0.33532  1.0000
  H   H46       1.0  0.89350  0.89022  0.16467  1.0000
  H   H47       1.0  0.89349  0.60978  0.66467  1.0000
  H   H48       1.0  0.10652  0.10977  0.83532  1.0000
  H   H49       1.0  0.54650  0.40726  0.26802  1.0000
  H   H50       1.0  0.45351  0.90726  0.23199  1.0000
  H   H51       1.0  0.45350  0.59274  0.73199  1.0000
  H   H52       1.0  0.54650  0.09274  0.76801  1.0000
  C   C1        1.0  0.75103  0.39844  0.89843  1.0000
  C   C2        1.0  0.24896  0.89844  0.60157  1.0000
  C   C3        1.0  0.24897  0.60156  0.10158  1.0000
  C   C4        1.0  0.75103  0.10156  0.39842  1.0000
  C   C5        1.0  0.71746  0.34498  0.96880  1.0000
  C   C6        1.0  0.28253  0.84498  0.53120  1.0000
  C   C7        1.0  0.28253  0.65502  0.03120  1.0000
  C   C8        1.0  0.71747  0.15503  0.46880  1.0000
  C   C9        1.0  0.70538  0.38838  0.04651  1.0000
  C   C10       1.0  0.29461  0.88839  0.45349  1.0000
  C   C11       1.0  0.29462  0.61162  0.95349  1.0000
  C   C12       1.0  0.70539  0.11162  0.54651  1.0000
  C   C13       1.0  0.72744  0.48629  0.05416  1.0000
  C   C14       1.0  0.27255  0.98630  0.44585  1.0000
  C   C15       1.0  0.27255  0.51371  0.94584  1.0000
  C   C16       1.0  0.72745  0.01371  0.55415  1.0000
  C   C17       1.0  0.76096  0.53903  0.98337  1.0000
  C   C18       1.0  0.23903  0.03903  0.51663  1.0000
  C   C19       1.0  0.23903  0.46097  0.01663  1.0000
  C   C20       1.0  0.76097  0.96097  0.48337  1.0000
  C   C21       1.0  0.77285  0.49639  0.90552  1.0000
  C   C22       1.0  0.22714  0.99639  0.59448  1.0000
  C   C23       1.0  0.22715  0.50361  0.09448  1.0000
  C   C24       1.0  0.77285  0.00361  0.40552  1.0000
  C   C25       1.0  0.76239  0.35012  0.81508  1.0000
  C   C26       1.0  0.23760  0.85012  0.68492  1.0000
  C   C27       1.0  0.23760  0.64988  0.18493  1.0000
  C   C28       1.0  0.76239  0.14988  0.31507  1.0000
  C   C29       1.0  0.42601  0.31833  0.78491  1.0000
  C   C30       1.0  0.57398  0.81833  0.71509  1.0000
  C   C31       1.0  0.57398  0.68167  0.21509  1.0000
  C   C32       1.0  0.42601  0.18167  0.28491  1.0000
  C   C33       1.0  0.30187  0.34547  0.72142  1.0000
  C   C34       1.0  0.69813  0.84547  0.77857  1.0000
  C   C35       1.0  0.69813  0.65453  0.27858  1.0000
  C   C36       1.0  0.30187  0.15453  0.22142  1.0000
  C   C37       1.0  0.56119  0.40282  0.69082  1.0000
  C   C38       1.0  0.43883  0.90282  0.80918  1.0000
  C   C39       1.0  0.43882  0.59718  0.30918  1.0000
  C   C40       1.0  0.56119  0.09718  0.19082  1.0000
  C   C41       1.0  0.66501  0.32730  0.12015  1.0000
  C   C42       1.0  0.33500  0.82730  0.37985  1.0000
  C   C43       1.0  0.33499  0.67270  0.87985  1.0000
  C   C44       1.0  0.66501  0.17270  0.62015  1.0000
  C   C45       1.0  0.94860  0.34846  0.21704  1.0000
  C   C46       1.0  0.05141  0.84845  0.28296  1.0000
  C   C47       1.0  0.05140  0.65154  0.78296  1.0000
  C   C48       1.0  0.94860  0.15154  0.71704  1.0000
  C   C49       1.0  0.98015  0.38417  0.29682  1.0000
  C   C50       1.0  0.01986  0.88417  0.20318  1.0000
  C   C51       1.0  0.01986  0.61583  0.70318  1.0000
  C   C52       1.0  0.98014  0.11582  0.79682  1.0000
  C   C53       1.0  0.69034  0.39444  0.26520  1.0000
  C   C54       1.0  0.30968  0.89445  0.23480  1.0000
  C   C55       1.0  0.30968  0.60555  0.73480  1.0000
  C   C56       1.0  0.69033  0.10555  0.76520  1.0000
  Br  Br1       1.0  0.57731  0.61017  0.56162  1.0000
  Br  Br2       1.0  0.42268  0.11017  0.93837  1.0000
  Br  Br3       1.0  0.42268  0.38983  0.43837  1.0000
  Br  Br4       1.0  0.57732  0.88982  0.06162  1.0000
  Br  Br5       1.0  0.93794  0.38692  0.55714  1.0000
  Br  Br6       1.0  0.06206  0.88693  0.94287  1.0000
  Br  Br7       1.0  0.06205  0.61307  0.44288  1.0000
  Br  Br8       1.0  0.93794  0.11308  0.05714  1.0000
  Br  Br9       1.0  0.79179  0.67247  0.99286  1.0000
  Br  Br10      1.0  0.20820  0.17248  0.50715  1.0000
  Br  Br11      1.0  0.20821  0.32752  0.00715  1.0000
  Br  Br12      1.0  0.79179  0.82753  0.49285  1.0000
  N   N1        1.0  0.38786  0.39779  0.66329  1.0000
  N   N2        1.0  0.61214  0.89780  0.83671  1.0000
  N   N3        1.0  0.61214  0.60220  0.33671  1.0000
  N   N4        1.0  0.38786  0.10221  0.16329  1.0000
  N   N5        1.0  0.58999  0.35526  0.76427  1.0000
  N   N6        1.0  0.41001  0.85527  0.73574  1.0000
  N   N7        1.0  0.41000  0.64473  0.23574  1.0000
  N   N8        1.0  0.58999  0.14474  0.26426  1.0000
  N   N9        1.0  0.81755  0.41242  0.32597  1.0000
  N   N10       1.0  0.18247  0.91242  0.17403  1.0000
  N   N11       1.0  0.18247  0.58758  0.67403  1.0000
  N   N12       1.0  0.81754  0.08758  0.82597  1.0000
  N   N13       1.0  0.76384  0.35554  0.19812  1.0000
  N   N14       1.0  0.23617  0.85554  0.30188  1.0000
  N   N15       1.0  0.23616  0.64446  0.80188  1.0000
  N   N16       1.0  0.76384  0.14445  0.69812  1.0000
