data_image0
_chemical_formula_structural       CdH26C28Br2N10O6
_chemical_formula_sum              "Cd1 H26 C28 Br2 N10 O6"
_cell_length_a       8.24269
_cell_length_b       8.89439
_cell_length_c       11.6375
_cell_angle_alpha    84.2224
_cell_angle_beta     75.2215
_cell_angle_gamma    69.8382

_space_group_name_H-M_alt    "P 1"
_space_group_IT_number       1

loop_
  _space_group_symop_operation_xyz
  'x, y, z'

loop_
  _atom_site_type_symbol
  _atom_site_label
  _atom_site_symmetry_multiplicity
  _atom_site_fract_x
  _atom_site_fract_y
  _atom_site_fract_z
  _atom_site_occupancy
  Cd  Cd1       1.0  0.50000  1.00000  0.00000  1.0000
  H   H1        1.0  0.21939  0.69913  0.70851  1.0000
  H   H2        1.0  0.78061  0.30087  0.29149  1.0000
  H   H3        1.0  0.30792  0.53730  0.35315  1.0000
  H   H4        1.0  0.69209  0.46270  0.64685  1.0000
  H   H5        1.0  0.15625  0.25108  0.65616  1.0000
  H   H6        1.0  0.84375  0.74893  0.34384  1.0000
  H   H7        1.0  0.14207  0.32734  0.85435  1.0000
  H   H8        1.0  0.85793  0.67267  0.14565  1.0000
  H   H9        1.0  0.19180  0.50078  0.87547  1.0000
  H   H10       1.0  0.80820  0.49922  0.12453  1.0000
  H   H11       1.0  0.81154  0.36221  0.86328  1.0000
  H   H12       1.0  0.18846  0.63779  0.13672  1.0000
  H   H13       1.0  0.49893  0.62098  0.93347  1.0000
  H   H14       1.0  0.50107  0.37902  0.06654  1.0000
  H   H15       1.0  0.94110  0.77205  0.90223  1.0000
  H   H16       1.0  0.05890  0.22794  0.09777  1.0000
  H   H17       1.0  0.23308  0.88271  0.54163  1.0000
  H   H18       1.0  0.76692  0.11729  0.45837  1.0000
  H   H19       1.0  0.45332  0.76435  0.48016  1.0000
  H   H20       1.0  0.54668  0.23565  0.51983  1.0000
  H   H21       1.0  0.55705  0.82960  0.27150  1.0000
  H   H22       1.0  0.44295  0.17040  0.72850  1.0000
  H   H23       1.0  0.09603  0.94755  0.14106  1.0000
  H   H24       1.0  0.90397  0.05245  0.85894  1.0000
  H   H25       1.0  0.01382  0.86992  0.38385  1.0000
  H   H26       1.0  0.98618  0.13008  0.61615  1.0000
  C   C1        1.0  0.17941  0.47411  0.69613  1.0000
  C   C2        1.0  0.82059  0.52589  0.30387  1.0000
  C   C3        1.0  0.22259  0.60999  0.64914  1.0000
  C   C4        1.0  0.77740  0.39001  0.35086  1.0000
  C   C5        1.0  0.26776  0.63445  0.52613  1.0000
  C   C6        1.0  0.73224  0.36555  0.47387  1.0000
  C   C7        1.0  0.27243  0.52097  0.44922  1.0000
  C   C8        1.0  0.72757  0.47903  0.55078  1.0000
  C   C9        1.0  0.23120  0.38492  0.49759  1.0000
  C   C10       1.0  0.76880  0.61508  0.50241  1.0000
  C   C11       1.0  0.18414  0.35981  0.61994  1.0000
  C   C12       1.0  0.81586  0.64020  0.38006  1.0000
  C   C13       1.0  0.11933  0.45391  0.82901  1.0000
  C   C14       1.0  0.88067  0.54609  0.17099  1.0000
  C   C15       1.0  0.78958  0.48580  0.88117  1.0000
  C   C16       1.0  0.21042  0.51420  0.11883  1.0000
  C   C17       1.0  0.63683  0.61391  0.91681  1.0000
  C   C18       1.0  0.36317  0.38609  0.08319  1.0000
  C   C19       1.0  0.85927  0.69970  0.90052  1.0000
  C   C20       1.0  0.14073  0.30030  0.09948  1.0000
  C   C21       1.0  0.31413  0.78343  0.48088  1.0000
  C   C22       1.0  0.68586  0.21657  0.51912  1.0000
  C   C23       1.0  0.42240  0.84700  0.26627  1.0000
  C   C24       1.0  0.57760  0.15300  0.73373  1.0000
  C   C25       1.0  0.17902  0.91041  0.20439  1.0000
  C   C26       1.0  0.82098  0.08959  0.79561  1.0000
  C   C27       1.0  0.13666  0.87250  0.32333  1.0000
  C   C28       1.0  0.86334  0.12750  0.67667  1.0000
  Br  Br1       1.0  0.24270  0.22683  0.39397  1.0000
  Br  Br2       1.0  0.75729  0.77318  0.60603  1.0000
  N   N1        1.0  0.68221  0.74616  0.92874  1.0000
  N   N2        1.0  0.31779  0.25384  0.07126  1.0000
  N   N3        1.0  0.92913  0.54233  0.87185  1.0000
  N   N4        1.0  0.07087  0.45767  0.12815  1.0000
  N   N5        1.0  0.35740  0.89404  0.17010  1.0000
  N   N6        1.0  0.64260  0.10596  0.82989  1.0000
  N   N7        1.0  0.29279  0.83150  0.36087  1.0000
  N   N8        1.0  0.70721  0.16850  0.63913  1.0000
  N   N9        1.0  0.24166  0.94392  0.83935  1.0000
  N   N10       1.0  0.75834  0.05608  0.16065  1.0000
  O   O1        1.0  0.26064  0.05097  0.89710  1.0000
  O   O2        1.0  0.73936  0.94904  0.10290  1.0000
  O   O3        1.0  0.24587  0.96721  0.73022  1.0000
  O   O4        1.0  0.75413  0.03279  0.26978  1.0000
  O   O5        1.0  0.21632  0.82079  0.89352  1.0000
  O   O6        1.0  0.78368  0.17921  0.10648  1.0000
