data_image0
_chemical_formula_structural       Zn4H32C40O16
_chemical_formula_sum              "Zn4 H32 C40 O16"
_cell_length_a       4.8868
_cell_length_b       9.6372
_cell_length_c       19.7328
_cell_angle_alpha    95.4691
_cell_angle_beta     90
_cell_angle_gamma    90.0001

_space_group_name_H-M_alt    "P 1"
_space_group_IT_number       1

loop_
  _space_group_symop_operation_xyz
  'x, y, z'

loop_
  _atom_site_type_symbol
  _atom_site_label
  _atom_site_symmetry_multiplicity
  _atom_site_fract_x
  _atom_site_fract_y
  _atom_site_fract_z
  _atom_site_occupancy
  Zn  Zn1       1.0  0.80843  0.29354  0.23833  1.0000
  Zn  Zn2       1.0  0.30843  0.20646  0.76167  1.0000
  Zn  Zn3       1.0  0.19157  0.70646  0.76167  1.0000
  Zn  Zn4       1.0  0.69157  0.79354  0.23833  1.0000
  H   H1        1.0  0.09823  0.51960  0.14544  1.0000
  H   H2        1.0  0.59823  0.98040  0.85456  1.0000
  H   H3        1.0  0.90176  0.48040  0.85456  1.0000
  H   H4        1.0  0.40177  0.01960  0.14544  1.0000
  H   H5        1.0  0.99326  0.36651  0.09845  1.0000
  H   H6        1.0  0.49326  0.13349  0.90155  1.0000
  H   H7        1.0  0.00674  0.63349  0.90155  1.0000
  H   H8        1.0  0.50674  0.86651  0.09845  1.0000
  H   H9        1.0  0.59036  0.61549  0.11531  1.0000
  H   H10       1.0  0.09035  0.88451  0.88469  1.0000
  H   H11       1.0  0.40964  0.38451  0.88469  1.0000
  H   H12       1.0  0.90965  0.11549  0.11531  1.0000
  H   H13       1.0  0.13847  0.31902  0.98246  1.0000
  H   H14       1.0  0.63847  0.18098  0.01755  1.0000
  H   H15       1.0  0.86153  0.68098  0.01754  1.0000
  H   H16       1.0  0.36153  0.81902  0.98246  1.0000
  H   H17       1.0  0.68672  0.72943  0.38357  1.0000
  H   H18       1.0  0.18672  0.77057  0.61643  1.0000
  H   H19       1.0  0.31328  0.27057  0.61643  1.0000
  H   H20       1.0  0.81328  0.22943  0.38357  1.0000
  H   H21       1.0  0.35981  0.67197  0.35699  1.0000
  H   H22       1.0  0.85981  0.82803  0.64301  1.0000
  H   H23       1.0  0.64019  0.32803  0.64301  1.0000
  H   H24       1.0  0.14019  0.17197  0.35699  1.0000
  H   H25       1.0  0.18945  0.43427  0.40250  1.0000
  H   H26       1.0  0.68945  0.06573  0.59750  1.0000
  H   H27       1.0  0.81055  0.56573  0.59750  1.0000
  H   H28       1.0  0.31055  0.93427  0.40250  1.0000
  H   H29       1.0  0.85725  0.67995  0.49071  1.0000
  H   H30       1.0  0.35725  0.82005  0.50929  1.0000
  H   H31       1.0  0.14275  0.32005  0.50929  1.0000
  H   H32       1.0  0.64275  0.17995  0.49071  1.0000
  C   C1        1.0  0.32841  0.34556  0.16646  1.0000
  C   C2        1.0  0.82841  0.15444  0.83354  1.0000
  C   C3        1.0  0.67159  0.65444  0.83354  1.0000
  C   C4        1.0  0.17159  0.84556  0.16646  1.0000
  C   C5        1.0  0.17682  0.42541  0.11550  1.0000
  C   C6        1.0  0.67682  0.07459  0.88450  1.0000
  C   C7        1.0  0.82318  0.57459  0.88450  1.0000
  C   C8        1.0  0.32318  0.92541  0.11550  1.0000
  C   C9        1.0  0.34368  0.46352  0.05600  1.0000
  C   C10       1.0  0.84368  0.03648  0.94400  1.0000
  C   C11       1.0  0.65632  0.53648  0.94400  1.0000
  C   C12       1.0  0.15632  0.96352  0.05600  1.0000
  C   C13       1.0  0.54830  0.56527  0.06455  1.0000
  C   C14       1.0  0.04830  0.93473  0.93545  1.0000
  C   C15       1.0  0.45170  0.43473  0.93545  1.0000
  C   C16       1.0  0.95170  0.06527  0.06455  1.0000
  C   C17       1.0  0.29727  0.39843  0.99050  1.0000
  C   C18       1.0  0.79728  0.10157  0.00950  1.0000
  C   C19       1.0  0.70273  0.60157  0.00950  1.0000
  C   C20       1.0  0.20272  0.89843  0.99050  1.0000
  C   C21       1.0  0.67948  0.54497  0.31502  1.0000
  C   C22       1.0  0.17949  0.95503  0.68498  1.0000
  C   C23       1.0  0.32051  0.45503  0.68498  1.0000
  C   C24       1.0  0.82052  0.04497  0.31502  1.0000
  C   C25       1.0  0.55894  0.63551  0.37492  1.0000
  C   C26       1.0  0.05894  0.86449  0.62508  1.0000
  C   C27       1.0  0.44106  0.36449  0.62508  1.0000
  C   C28       1.0  0.94106  0.13551  0.37492  1.0000
  C   C29       1.0  0.52676  0.56528  0.43930  1.0000
  C   C30       1.0  0.02676  0.93472  0.56070  1.0000
  C   C31       1.0  0.47324  0.43472  0.56070  1.0000
  C   C32       1.0  0.97324  0.06528  0.43930  1.0000
  C   C33       1.0  0.32687  0.46317  0.44512  1.0000
  C   C34       1.0  0.82688  0.03683  0.55488  1.0000
  C   C35       1.0  0.67313  0.53683  0.55488  1.0000
  C   C36       1.0  0.17312  0.96317  0.44512  1.0000
  C   C37       1.0  0.69935  0.60118  0.49486  1.0000
  C   C38       1.0  0.19935  0.89882  0.50514  1.0000
  C   C39       1.0  0.30065  0.39882  0.50514  1.0000
  C   C40       1.0  0.80065  0.10118  0.49486  1.0000
  O   O1        1.0  0.20209  0.30221  0.21711  1.0000
  O   O2        1.0  0.70209  0.19779  0.78289  1.0000
  O   O3        1.0  0.79791  0.69779  0.78289  1.0000
  O   O4        1.0  0.29791  0.80221  0.21711  1.0000
  O   O5        1.0  0.58540  0.32700  0.15870  1.0000
  O   O6        1.0  0.08540  0.17301  0.84130  1.0000
  O   O7        1.0  0.41460  0.67301  0.84130  1.0000
  O   O8        1.0  0.91460  0.82699  0.15870  1.0000
  O   O9        1.0  0.71648  0.41578  0.32114  1.0000
  O   O10       1.0  0.21648  0.08422  0.67886  1.0000
  O   O11       1.0  0.28352  0.58422  0.67886  1.0000
  O   O12       1.0  0.78352  0.91578  0.32114  1.0000
  O   O13       1.0  0.73786  0.59814  0.26000  1.0000
  O   O14       1.0  0.23786  0.90186  0.74000  1.0000
  O   O15       1.0  0.26214  0.40186  0.74000  1.0000
  O   O16       1.0  0.76214  0.09814  0.26000  1.0000
