data_image0
_chemical_formula_structural       Co2H32C40N4O8
_chemical_formula_sum              "Co2 H32 C40 N4 O8"
_cell_length_a       9.41916
_cell_length_b       10.2665
_cell_length_c       10.4315
_cell_angle_alpha    113.544
_cell_angle_beta     104.327
_cell_angle_gamma    97.3262

_space_group_name_H-M_alt    "P 1"
_space_group_IT_number       1

loop_
  _space_group_symop_operation_xyz
  'x, y, z'

loop_
  _atom_site_type_symbol
  _atom_site_label
  _atom_site_symmetry_multiplicity
  _atom_site_fract_x
  _atom_site_fract_y
  _atom_site_fract_z
  _atom_site_occupancy
  Co  Co1       1.0  0.86880  0.04394  0.33209  1.0000
  Co  Co2       1.0  0.13120  0.95606  0.66791  1.0000
  H   H1        1.0  0.62082  0.83732  0.60111  1.0000
  H   H2        1.0  0.37918  0.16267  0.39890  1.0000
  H   H3        1.0  0.56747  0.86359  0.43732  1.0000
  H   H4        1.0  0.43253  0.13640  0.56268  1.0000
  H   H5        1.0  0.67653  0.60182  0.58448  1.0000
  H   H6        1.0  0.32347  0.39817  0.41552  1.0000
  H   H7        1.0  0.64185  0.33799  0.42912  1.0000
  H   H8        1.0  0.35815  0.66200  0.57088  1.0000
  H   H9        1.0  0.51423  0.40281  0.03816  1.0000
  H   H10       1.0  0.48577  0.59720  0.96184  1.0000
  H   H11       1.0  0.54816  0.66874  0.19532  1.0000
  H   H12       1.0  0.45184  0.33126  0.80468  1.0000
  H   H13       1.0  0.55344  0.16814  0.01658  1.0000
  H   H14       1.0  0.44656  0.83186  0.98341  1.0000
  H   H15       1.0  0.43560  0.12979  0.11267  1.0000
  H   H16       1.0  0.56440  0.87020  0.88732  1.0000
  H   H17       1.0  0.06367  0.36883  0.51404  1.0000
  H   H18       1.0  0.93633  0.63118  0.48596  1.0000
  H   H19       1.0  0.06317  0.59789  0.72370  1.0000
  H   H20       1.0  0.93683  0.40212  0.27630  1.0000
  H   H21       1.0  0.69854  0.33686  0.76983  1.0000
  H   H22       1.0  0.30146  0.66314  0.23018  1.0000
  H   H23       1.0  0.71069  0.12110  0.55527  1.0000
  H   H24       1.0  0.28931  0.87890  0.44473  1.0000
  H   H25       1.0  0.90575  0.77533  0.80568  1.0000
  H   H26       1.0  0.09425  0.22467  0.19432  1.0000
  H   H27       1.0  0.88161  0.97996  0.02365  1.0000
  H   H28       1.0  0.11838  0.02004  0.97635  1.0000
  H   H29       1.0  0.82711  0.71605  0.22930  1.0000
  H   H30       1.0  0.17288  0.28395  0.77071  1.0000
  H   H31       1.0  0.83686  0.49653  0.01742  1.0000
  H   H32       1.0  0.16314  0.50347  0.98259  1.0000
  C   C1        1.0  0.80557  0.88453  0.52422  1.0000
  C   C2        1.0  0.19443  0.11547  0.47578  1.0000
  C   C3        1.0  0.64049  0.81576  0.49598  1.0000
  C   C4        1.0  0.35951  0.18424  0.50403  1.0000
  C   C5        1.0  0.61227  0.65326  0.40053  1.0000
  C   C6        1.0  0.38773  0.34674  0.59947  1.0000
  C   C7        1.0  0.64123  0.55877  0.46451  1.0000
  C   C8        1.0  0.35877  0.44123  0.53549  1.0000
  C   C9        1.0  0.62208  0.40990  0.37663  1.0000
  C   C10       1.0  0.37792  0.59010  0.62337  1.0000
  C   C11       1.0  0.57524  0.35108  0.22208  1.0000
  C   C12       1.0  0.42476  0.64892  0.77792  1.0000
  C   C13       1.0  0.54971  0.44632  0.15821  1.0000
  C   C14       1.0  0.45029  0.55368  0.84178  1.0000
  C   C15       1.0  0.56743  0.59517  0.24612  1.0000
  C   C16       1.0  0.43257  0.40484  0.75388  1.0000
  C   C17       1.0  0.54901  0.18839  0.12702  1.0000
  C   C18       1.0  0.45099  0.81161  0.87297  1.0000
  C   C19       1.0  0.66552  0.12624  0.19700  1.0000
  C   C20       1.0  0.33449  0.87376  0.80299  1.0000
  C   C21       1.0  0.98324  0.36638  0.57276  1.0000
  C   C22       1.0  0.01677  0.63362  0.42724  1.0000
  C   C23       1.0  0.98239  0.49427  0.68978  1.0000
  C   C24       1.0  0.01762  0.50574  0.31023  1.0000
  C   C25       1.0  0.87960  0.48673  0.76525  1.0000
  C   C26       1.0  0.12041  0.51327  0.23475  1.0000
  C   C27       1.0  0.78261  0.34875  0.71737  1.0000
  C   C28       1.0  0.21740  0.65125  0.28264  1.0000
  C   C29       1.0  0.78911  0.22777  0.59789  1.0000
  C   C30       1.0  0.21090  0.77223  0.40212  1.0000
  C   C31       1.0  0.87246  0.61576  0.89164  1.0000
  C   C32       1.0  0.12754  0.38424  0.10837  1.0000
  C   C33       1.0  0.88745  0.75559  0.89636  1.0000
  C   C34       1.0  0.11254  0.24441  0.10364  1.0000
  C   C35       1.0  0.87524  0.87107  0.01822  1.0000
  C   C36       1.0  0.12476  0.12893  0.98177  1.0000
  C   C37       1.0  0.84186  0.72353  0.13212  1.0000
  C   C38       1.0  0.15814  0.27647  0.86788  1.0000
  C   C39       1.0  0.84782  0.60153  0.01313  1.0000
  C   C40       1.0  0.15218  0.39847  0.98687  1.0000
  N   N1        1.0  0.88783  0.23446  0.52535  1.0000
  N   N2        1.0  0.11217  0.76554  0.47465  1.0000
  N   N3        1.0  0.85410  0.85732  0.13600  1.0000
  N   N4        1.0  0.14590  0.14268  0.86400  1.0000
  O   O1        1.0  0.83507  0.91469  0.42542  1.0000
  O   O2        1.0  0.16493  0.08531  0.57459  1.0000
  O   O3        1.0  0.90520  0.89703  0.63915  1.0000
  O   O4        1.0  0.09481  0.10297  0.36085  1.0000
  O   O5        1.0  0.80227  0.15740  0.19866  1.0000
  O   O6        1.0  0.19773  0.84260  0.80134  1.0000
  O   O7        1.0  0.62880  0.04792  0.25833  1.0000
  O   O8        1.0  0.37121  0.95208  0.74166  1.0000
