data_image0
_chemical_formula_structural       Cd2H32C40N4O8
_chemical_formula_sum              "Cd2 H32 C40 N4 O8"
_cell_length_a       9.61782
_cell_length_b       10.4423
_cell_length_c       10.562
_cell_angle_alpha    111.894
_cell_angle_beta     105.456
_cell_angle_gamma    97.8615

_space_group_name_H-M_alt    "P 1"
_space_group_IT_number       1

loop_
  _space_group_symop_operation_xyz
  'x, y, z'

loop_
  _atom_site_type_symbol
  _atom_site_label
  _atom_site_symmetry_multiplicity
  _atom_site_fract_x
  _atom_site_fract_y
  _atom_site_fract_z
  _atom_site_occupancy
  Cd  Cd1       1.0  0.88525  0.05441  0.34692  1.0000
  Cd  Cd2       1.0  0.11475  0.94559  0.65308  1.0000
  H   H1        1.0  0.57533  0.84974  0.41665  1.0000
  H   H2        1.0  0.42468  0.15026  0.58336  1.0000
  H   H3        1.0  0.58340  0.81512  0.57234  1.0000
  H   H4        1.0  0.41659  0.18487  0.42766  1.0000
  H   H5        1.0  0.67567  0.59091  0.57460  1.0000
  H   H6        1.0  0.32434  0.40909  0.42539  1.0000
  H   H7        1.0  0.63608  0.33329  0.42535  1.0000
  H   H8        1.0  0.36392  0.66671  0.57464  1.0000
  H   H9        1.0  0.48880  0.39565  0.03649  1.0000
  H   H10       1.0  0.51119  0.60435  0.96350  1.0000
  H   H11       1.0  0.52812  0.65466  0.18685  1.0000
  H   H12       1.0  0.47188  0.34534  0.81315  1.0000
  H   H13       1.0  0.42106  0.12941  0.12544  1.0000
  H   H14       1.0  0.57894  0.87059  0.87456  1.0000
  H   H15       1.0  0.52155  0.16423  0.01785  1.0000
  H   H16       1.0  0.47845  0.83577  0.98215  1.0000
  H   H17       1.0  0.06325  0.39946  0.53943  1.0000
  H   H18       1.0  0.93674  0.60054  0.46057  1.0000
  H   H19       1.0  0.05725  0.61534  0.74470  1.0000
  H   H20       1.0  0.94274  0.38467  0.25530  1.0000
  H   H21       1.0  0.71048  0.33789  0.78593  1.0000
  H   H22       1.0  0.28951  0.66211  0.21407  1.0000
  H   H23       1.0  0.72969  0.13562  0.57696  1.0000
  H   H24       1.0  0.27032  0.86438  0.42304  1.0000
  H   H25       1.0  0.91187  0.77449  0.82300  1.0000
  H   H26       1.0  0.08813  0.22551  0.17701  1.0000
  H   H27       1.0  0.90008  0.97409  0.03975  1.0000
  H   H28       1.0  0.09992  0.02590  0.96025  1.0000
  H   H29       1.0  0.82162  0.70654  0.23334  1.0000
  H   H30       1.0  0.17839  0.29346  0.76666  1.0000
  H   H31       1.0  0.82562  0.49354  0.02484  1.0000
  H   H32       1.0  0.17439  0.50646  0.97516  1.0000
  C   C1        1.0  0.79620  0.86416  0.54770  1.0000
  C   C2        1.0  0.20380  0.13583  0.45231  1.0000
  C   C3        1.0  0.62782  0.79838  0.48336  1.0000
  C   C4        1.0  0.37218  0.20162  0.51664  1.0000
  C   C5        1.0  0.60170  0.64058  0.39112  1.0000
  C   C6        1.0  0.39829  0.35942  0.60887  1.0000
  C   C7        1.0  0.63460  0.54837  0.45637  1.0000
  C   C8        1.0  0.36540  0.45163  0.54362  1.0000
  C   C9        1.0  0.61263  0.40342  0.37205  1.0000
  C   C10       1.0  0.38737  0.59658  0.62794  1.0000
  C   C11       1.0  0.55839  0.34503  0.21968  1.0000
  C   C12       1.0  0.44161  0.65497  0.78031  1.0000
  C   C13       1.0  0.52993  0.43799  0.15477  1.0000
  C   C14       1.0  0.47007  0.56201  0.84522  1.0000
  C   C15       1.0  0.55107  0.58350  0.23926  1.0000
  C   C16       1.0  0.44894  0.41651  0.76074  1.0000
  C   C17       1.0  0.52869  0.18614  0.12989  1.0000
  C   C18       1.0  0.47131  0.81386  0.87011  1.0000
  C   C19       1.0  0.65195  0.12817  0.19604  1.0000
  C   C20       1.0  0.34805  0.87183  0.80396  1.0000
  C   C21       1.0  0.98522  0.39125  0.59617  1.0000
  C   C22       1.0  0.01478  0.60875  0.40383  1.0000
  C   C23       1.0  0.98096  0.51133  0.71048  1.0000
  C   C24       1.0  0.01904  0.48868  0.28952  1.0000
  C   C25       1.0  0.88152  0.49448  0.78293  1.0000
  C   C26       1.0  0.11848  0.50552  0.21707  1.0000
  C   C27       1.0  0.79096  0.35656  0.73514  1.0000
  C   C28       1.0  0.20903  0.64344  0.26486  1.0000
  C   C29       1.0  0.80091  0.24343  0.61876  1.0000
  C   C30       1.0  0.19909  0.75658  0.38124  1.0000
  C   C31       1.0  0.87379  0.61647  0.90713  1.0000
  C   C32       1.0  0.12621  0.38353  0.09287  1.0000
  C   C33       1.0  0.89513  0.75432  0.91263  1.0000
  C   C34       1.0  0.10487  0.24568  0.08738  1.0000
  C   C35       1.0  0.88787  0.86592  0.03235  1.0000
  C   C36       1.0  0.11213  0.13408  0.96765  1.0000
  C   C37       1.0  0.84180  0.71620  0.14018  1.0000
  C   C38       1.0  0.15821  0.28380  0.85982  1.0000
  C   C39       1.0  0.84405  0.59808  0.02321  1.0000
  C   C40       1.0  0.15595  0.40192  0.97679  1.0000
  N   N1        1.0  0.89662  0.25977  0.55026  1.0000
  N   N2        1.0  0.10338  0.74023  0.44974  1.0000
  N   N3        1.0  0.86410  0.84813  0.14537  1.0000
  N   N4        1.0  0.13590  0.15187  0.85464  1.0000
  O   O1        1.0  0.85847  0.92198  0.48230  1.0000
  O   O2        1.0  0.14154  0.07802  0.51771  1.0000
  O   O3        1.0  0.87200  0.85147  0.65859  1.0000
  O   O4        1.0  0.12800  0.14853  0.34141  1.0000
  O   O5        1.0  0.78112  0.16394  0.18894  1.0000
  O   O6        1.0  0.21888  0.83606  0.81106  1.0000
  O   O7        1.0  0.62310  0.05152  0.26064  1.0000
  O   O8        1.0  0.37690  0.94848  0.73936  1.0000
