data_image0
_chemical_formula_structural       Ag4H56C32N12
_chemical_formula_sum              "Ag4 H56 C32 N12"
_cell_length_a       9.83662
_cell_length_b       9.83661
_cell_length_c       12.5849
_cell_angle_alpha    113.25
_cell_angle_beta     113.25
_cell_angle_gamma    89.4167

_space_group_name_H-M_alt    "P 1"
_space_group_IT_number       1

loop_
  _space_group_symop_operation_xyz
  'x, y, z'

loop_
  _atom_site_type_symbol
  _atom_site_label
  _atom_site_symmetry_multiplicity
  _atom_site_fract_x
  _atom_site_fract_y
  _atom_site_fract_z
  _atom_site_occupancy
  Ag  Ag1       1.0  0.21746  0.51764  0.97414  1.0000
  Ag  Ag2       1.0  0.48235  0.78254  0.02586  1.0000
  Ag  Ag3       1.0  0.70629  0.50655  0.47418  1.0000
  Ag  Ag4       1.0  0.49345  0.29371  0.52583  1.0000
  H   H1        1.0  0.19390  0.67538  0.81870  1.0000
  H   H2        1.0  0.32461  0.80610  0.18130  1.0000
  H   H3        1.0  0.39249  0.37458  0.31842  1.0000
  H   H4        1.0  0.62542  0.60752  0.68158  1.0000
  H   H5        1.0  0.98904  0.60759  0.53965  1.0000
  H   H6        1.0  0.39240  0.01096  0.46035  1.0000
  H   H7        1.0  0.18146  0.30087  0.03941  1.0000
  H   H8        1.0  0.69913  0.81854  0.96059  1.0000
  H   H9        1.0  0.14662  0.52247  0.59366  1.0000
  H   H10       1.0  0.47752  0.85338  0.40634  1.0000
  H   H11       1.0  0.32060  0.19723  0.09333  1.0000
  H   H12       1.0  0.80276  0.67941  0.90667  1.0000
  H   H13       1.0  0.17262  0.71659  0.62808  1.0000
  H   H14       1.0  0.28341  0.82738  0.37192  1.0000
  H   H15       1.0  0.16082  0.20549  0.12768  1.0000
  H   H16       1.0  0.79451  0.83918  0.87232  1.0000
  H   H17       1.0  0.11593  0.90817  0.79833  1.0000
  H   H18       1.0  0.09183  0.88407  0.20167  1.0000
  H   H19       1.0  0.13947  0.43236  0.29811  1.0000
  H   H20       1.0  0.56763  0.86053  0.70189  1.0000
  H   H21       1.0  0.03075  0.85498  0.88034  1.0000
  H   H22       1.0  0.14502  0.96925  0.11966  1.0000
  H   H23       1.0  0.27470  0.59949  0.38018  1.0000
  H   H24       1.0  0.40051  0.72530  0.61982  1.0000
  H   H25       1.0  0.92356  0.82096  0.71756  1.0000
  H   H26       1.0  0.17904  0.07645  0.28244  1.0000
  H   H27       1.0  0.14600  0.54405  0.21741  1.0000
  H   H28       1.0  0.45594  0.85401  0.78259  1.0000
  H   H29       1.0  0.97745  0.26950  0.88686  1.0000
  H   H30       1.0  0.73050  0.02255  0.11314  1.0000
  H   H31       1.0  0.86715  0.65884  0.38697  1.0000
  H   H32       1.0  0.34116  0.13285  0.61303  1.0000
  H   H33       1.0  0.91039  0.50569  0.01647  1.0000
  H   H34       1.0  0.49431  0.08961  0.98353  1.0000
  H   H35       1.0  0.76047  0.85509  0.51666  1.0000
  H   H36       1.0  0.14491  0.23953  0.48334  1.0000
  H   H37       1.0  0.83265  0.34295  0.01573  1.0000
  H   H38       1.0  0.65705  0.16735  0.98427  1.0000
  H   H39       1.0  0.92240  0.93263  0.51616  1.0000
  H   H40       1.0  0.06737  0.07760  0.48385  1.0000
  H   H41       1.0  0.71627  0.42781  0.91919  1.0000
  H   H42       1.0  0.57219  0.28373  0.08081  1.0000
  H   H43       1.0  0.74090  0.95226  0.41960  1.0000
  H   H44       1.0  0.04774  0.25910  0.58040  1.0000
  H   H45       1.0  0.63898  0.18127  0.71229  1.0000
  H   H46       1.0  0.81872  0.36103  0.28771  1.0000
  H   H47       1.0  0.78114  0.82322  0.21275  1.0000
  H   H48       1.0  0.17678  0.21886  0.78725  1.0000
  H   H49       1.0  0.74643  0.09206  0.80855  1.0000
  H   H50       1.0  0.90793  0.25358  0.19145  1.0000
  H   H51       1.0  0.96656  0.81200  0.30915  1.0000
  H   H52       1.0  0.18800  0.03344  0.69085  1.0000
  H   H53       1.0  0.77996  0.08471  0.67726  1.0000
  H   H54       1.0  0.91529  0.22004  0.32274  1.0000
  H   H55       1.0  0.84280  0.64725  0.17761  1.0000
  H   H56       1.0  0.35275  0.15720  0.82239  1.0000
  C   C1        1.0  0.97960  0.54849  0.73490  1.0000
  C   C2        1.0  0.45151  0.02040  0.26510  1.0000
  C   C3        1.0  0.43602  0.50525  0.23488  1.0000
  C   C4        1.0  0.49475  0.56398  0.76512  1.0000
  C   C5        1.0  0.08317  0.66786  0.74414  1.0000
  C   C6        1.0  0.33214  0.91683  0.25587  1.0000
  C   C7        1.0  0.32566  0.41099  0.24397  1.0000
  C   C8        1.0  0.58901  0.67435  0.75603  1.0000
  C   C9        1.0  0.09907  0.62569  0.61912  1.0000
  C   C10       1.0  0.37430  0.90093  0.38088  1.0000
  C   C11       1.0  0.24280  0.27018  0.11882  1.0000
  C   C12       1.0  0.72982  0.75721  0.88118  1.0000
  C   C13       1.0  0.03503  0.82211  0.78769  1.0000
  C   C14       1.0  0.17790  0.96497  0.21231  1.0000
  C   C15       1.0  0.21495  0.50265  0.28751  1.0000
  C   C16       1.0  0.49734  0.78506  0.71248  1.0000
  C   C17       1.0  0.88554  0.38816  0.77613  1.0000
  C   C18       1.0  0.61184  0.11446  0.22387  1.0000
  C   C19       1.0  0.63778  0.64021  0.27616  1.0000
  C   C20       1.0  0.35979  0.36222  0.72384  1.0000
  C   C21       1.0  0.86705  0.30038  0.84498  1.0000
  C   C22       1.0  0.69962  0.13295  0.15501  1.0000
  C   C23       1.0  0.79443  0.72746  0.34518  1.0000
  C   C24       1.0  0.27254  0.20556  0.65482  1.0000
  C   C25       1.0  0.82925  0.40019  0.95564  1.0000
  C   C26       1.0  0.59980  0.17075  0.04436  1.0000
  C   C27       1.0  0.80513  0.87574  0.45594  1.0000
  C   C28       1.0  0.12426  0.19487  0.54406  1.0000
  C   C29       1.0  0.75155  0.15597  0.75528  1.0000
  C   C30       1.0  0.84402  0.24845  0.24472  1.0000
  C   C31       1.0  0.84939  0.75357  0.25570  1.0000
  C   C32       1.0  0.24643  0.15061  0.74430  1.0000
  N   N1        1.0  0.01100  0.49067  0.82221  1.0000
  N   N2        1.0  0.50933  0.98900  0.17779  1.0000
  N   N3        1.0  0.58116  0.56101  0.32225  1.0000
  N   N4        1.0  0.43899  0.41885  0.67775  1.0000
  N   N5        1.0  0.84233  0.48403  0.64077  1.0000
  N   N6        1.0  0.51598  0.15767  0.35923  1.0000
  N   N7        1.0  0.40659  0.54834  0.14075  1.0000
  N   N8        1.0  0.45166  0.59342  0.85925  1.0000
  N   N9        1.0  0.78223  0.38136  0.66647  1.0000
  N   N10       1.0  0.61864  0.21777  0.33353  1.0000
  N   N11       1.0  0.53506  0.63394  0.16647  1.0000
  N   N12       1.0  0.36606  0.46494  0.83353  1.0000
