data_image0
_chemical_formula_structural       Cu4H52C36S4I4N4
_chemical_formula_sum              "Cu4 H52 C36 S4 I4 N4"
_cell_length_a       9.67177
_cell_length_b       9.90367
_cell_length_c       17.0645
_cell_angle_alpha    89.9994
_cell_angle_beta     90.0001
_cell_angle_gamma    116.121

_space_group_name_H-M_alt    "P 1"
_space_group_IT_number       1

loop_
  _space_group_symop_operation_xyz
  'x, y, z'

loop_
  _atom_site_type_symbol
  _atom_site_label
  _atom_site_symmetry_multiplicity
  _atom_site_fract_x
  _atom_site_fract_y
  _atom_site_fract_z
  _atom_site_occupancy
  Cu  Cu1       1.0  0.40960  0.52600  0.89608  1.0000
  Cu  Cu2       1.0  0.59040  0.47400  0.39608  1.0000
  Cu  Cu3       1.0  0.54586  0.42717  0.79798  1.0000
  Cu  Cu4       1.0  0.45414  0.57283  0.29798  1.0000
  H   H1        1.0  0.37765  0.97394  0.91266  1.0000
  H   H2        1.0  0.62236  0.02606  0.41266  1.0000
  H   H3        1.0  0.45980  0.84349  0.91224  1.0000
  H   H4        1.0  0.54020  0.15650  0.41225  1.0000
  H   H5        1.0  0.34828  0.85299  0.99363  1.0000
  H   H6        1.0  0.65172  0.14700  0.49364  1.0000
  H   H7        1.0  0.08766  0.87836  0.89727  1.0000
  H   H8        1.0  0.91234  0.12164  0.39728  1.0000
  H   H9        1.0  0.05667  0.75909  0.97891  1.0000
  H   H10       1.0  0.94333  0.24091  0.47892  1.0000
  H   H11       1.0  0.96619  0.68247  0.88760  1.0000
  H   H12       1.0  0.03382  0.31754  0.38761  1.0000
  H   H13       1.0  0.24311  0.86600  0.78053  1.0000
  H   H14       1.0  0.75691  0.13400  0.28054  1.0000
  H   H15       1.0  0.12355  0.66909  0.77251  1.0000
  H   H16       1.0  0.87646  0.33091  0.27252  1.0000
  H   H17       1.0  0.32808  0.73826  0.78012  1.0000
  H   H18       1.0  0.67193  0.26174  0.28013  1.0000
  H   H19       1.0  0.14996  0.63012  0.03822  1.0000
  H   H20       1.0  0.85003  0.36987  0.53822  1.0000
  H   H21       1.0  0.09047  0.43488  0.03347  1.0000
  H   H22       1.0  0.90953  0.56512  0.53347  1.0000
  H   H23       1.0  0.66135  0.50558  0.94784  1.0000
  H   H24       1.0  0.33866  0.49441  0.44784  1.0000
  H   H25       1.0  0.87841  0.48931  0.01787  1.0000
  H   H26       1.0  0.12158  0.51069  0.51786  1.0000
  H   H27       1.0  0.90530  0.52749  0.16353  1.0000
  H   H28       1.0  0.09469  0.47251  0.66352  1.0000
  H   H29       1.0  0.71243  0.57764  0.23838  1.0000
  H   H30       1.0  0.28756  0.42236  0.73838  1.0000
  H   H31       1.0  0.10647  0.45983  0.17542  1.0000
  H   H32       1.0  0.89353  0.54018  0.67542  1.0000
  H   H33       1.0  0.17123  0.65495  0.16384  1.0000
  H   H34       1.0  0.82878  0.34506  0.66385  1.0000
  H   H35       1.0  0.29494  0.92201  0.41171  1.0000
  H   H36       1.0  0.70506  0.07798  0.91171  1.0000
  H   H37       1.0  0.37901  0.79371  0.41434  1.0000
  H   H38       1.0  0.62098  0.20628  0.91434  1.0000
  H   H39       1.0  0.17564  0.72683  0.42664  1.0000
  H   H40       1.0  0.82436  0.27316  0.92665  1.0000
  H   H41       1.0  0.12521  0.91808  0.29764  1.0000
  H   H42       1.0  0.87479  0.08193  0.79764  1.0000
  H   H43       1.0  0.00697  0.72330  0.31388  1.0000
  H   H44       1.0  0.99303  0.27671  0.81388  1.0000
  H   H45       1.0  0.08756  0.79014  0.21943  1.0000
  H   H46       1.0  0.91243  0.20987  0.71943  1.0000
  H   H47       1.0  0.41489  0.01420  0.27461  1.0000
  H   H48       1.0  0.58511  0.98580  0.77461  1.0000
  H   H49       1.0  0.37834  0.88265  0.19783  1.0000
  H   H50       1.0  0.62165  0.11735  0.69783  1.0000
  H   H51       1.0  0.49822  0.88479  0.27778  1.0000
  H   H52       1.0  0.50178  0.11521  0.77778  1.0000
  C   C1        1.0  0.35891  0.85992  0.92942  1.0000
  C   C2        1.0  0.64109  0.14008  0.42942  1.0000
  C   C3        1.0  0.07210  0.76567  0.91500  1.0000
  C   C4        1.0  0.92790  0.23433  0.41500  1.0000
  C   C5        1.0  0.22846  0.75465  0.79999  1.0000
  C   C6        1.0  0.77155  0.24535  0.29999  1.0000
  C   C7        1.0  0.21346  0.74597  0.88948  1.0000
  C   C8        1.0  0.78654  0.25402  0.38949  1.0000
  C   C9        1.0  0.18427  0.54462  0.01691  1.0000
  C   C10       1.0  0.81573  0.45537  0.51691  1.0000
  C   C11       1.0  0.32945  0.55932  0.05702  1.0000
  C   C12       1.0  0.67055  0.44068  0.55701  1.0000
  C   C13       1.0  0.56310  0.54706  0.05314  1.0000
  C   C14       1.0  0.43690  0.45295  0.55314  1.0000
  C   C15       1.0  0.67477  0.52110  0.01114  1.0000
  C   C16       1.0  0.32524  0.47890  0.51114  1.0000
  C   C17       1.0  0.79506  0.51290  0.05075  1.0000
  C   C18       1.0  0.20495  0.48710  0.55074  1.0000
  C   C19       1.0  0.81012  0.53446  0.13272  1.0000
  C   C20       1.0  0.18989  0.46555  0.63271  1.0000
  C   C21       1.0  0.70368  0.56202  0.17500  1.0000
  C   C22       1.0  0.29631  0.43798  0.67500  1.0000
  C   C23       1.0  0.57668  0.56588  0.13610  1.0000
  C   C24       1.0  0.42332  0.43412  0.63610  1.0000
  C   C25       1.0  0.34077  0.57355  0.14028  1.0000
  C   C26       1.0  0.65923  0.42645  0.64028  1.0000
  C   C27       1.0  0.20534  0.56974  0.18594  1.0000
  C   C28       1.0  0.79466  0.43027  0.68594  1.0000
  C   C29       1.0  0.25428  0.78892  0.30662  1.0000
  C   C30       1.0  0.74571  0.21108  0.80662  1.0000
  C   C31       1.0  0.27784  0.80834  0.39545  1.0000
  C   C32       1.0  0.72216  0.19166  0.89546  1.0000
  C   C33       1.0  0.10943  0.80398  0.28285  1.0000
  C   C34       1.0  0.89057  0.19602  0.78285  1.0000
  C   C35       1.0  0.39521  0.89833  0.26154  1.0000
  C   C36       1.0  0.60478  0.10166  0.76154  1.0000
  S   S1        1.0  0.18486  0.55001  0.91058  1.0000
  S   S2        1.0  0.81514  0.44999  0.41059  1.0000
  S   S3        1.0  0.22544  0.59137  0.29144  1.0000
  S   S4        1.0  0.77455  0.40863  0.79144  1.0000
  I   I1        1.0  0.30942  0.23328  0.87259  1.0000
  I   I2        1.0  0.69058  0.76671  0.37258  1.0000
  I   I3        1.0  0.64391  0.72119  0.81929  1.0000
  I   I4        1.0  0.35609  0.27881  0.31929  1.0000
  N   N1        1.0  0.43920  0.54830  0.01459  1.0000
  N   N2        1.0  0.56081  0.45171  0.51459  1.0000
  N   N3        1.0  0.46327  0.58011  0.17852  1.0000
  N   N4        1.0  0.53672  0.41989  0.67852  1.0000
