data_image0
_chemical_formula_structural       Fe2H28Pd2C40N20
_chemical_formula_sum              "Fe2 H28 Pd2 C40 N20"
_cell_length_a       8.74275
_cell_length_b       8.74275
_cell_length_c       14.4351
_cell_angle_alpha    82.5223
_cell_angle_beta     82.5223
_cell_angle_gamma    71.3686

_space_group_name_H-M_alt    "P 1"
_space_group_IT_number       1

loop_
  _space_group_symop_operation_xyz
  'x, y, z'

loop_
  _atom_site_type_symbol
  _atom_site_label
  _atom_site_symmetry_multiplicity
  _atom_site_fract_x
  _atom_site_fract_y
  _atom_site_fract_z
  _atom_site_occupancy
  Fe  Fe1       1.0  0.83890  0.16110  0.75000  1.0000
  Fe  Fe2       1.0  0.16110  0.83890  0.25000  1.0000
  H   H1        1.0  0.87096  0.80848  0.88260  1.0000
  H   H2        1.0  0.19152  0.12904  0.61740  1.0000
  H   H3        1.0  0.12904  0.19152  0.11740  1.0000
  H   H4        1.0  0.80848  0.87096  0.38260  1.0000
  H   H5        1.0  0.88308  0.49261  0.69272  1.0000
  H   H6        1.0  0.50739  0.11692  0.80728  1.0000
  H   H7        1.0  0.11692  0.50738  0.30728  1.0000
  H   H8        1.0  0.49262  0.88308  0.19272  1.0000
  H   H9        1.0  0.07349  0.63169  0.73075  1.0000
  H   H10       1.0  0.36831  0.92651  0.76925  1.0000
  H   H11       1.0  0.92651  0.36831  0.26925  1.0000
  H   H12       1.0  0.63169  0.07349  0.23075  1.0000
  H   H13       1.0  0.28290  0.48449  0.84296  1.0000
  H   H14       1.0  0.51551  0.71710  0.65705  1.0000
  H   H15       1.0  0.71710  0.51551  0.15704  1.0000
  H   H16       1.0  0.48449  0.28290  0.34296  1.0000
  H   H17       1.0  0.28801  0.20618  0.91362  1.0000
  H   H18       1.0  0.79382  0.71199  0.58638  1.0000
  H   H19       1.0  0.71199  0.79382  0.08637  1.0000
  H   H20       1.0  0.20618  0.28801  0.41363  1.0000
  H   H21       1.0  0.28257  0.89865  0.96331  1.0000
  H   H22       1.0  0.10135  0.71743  0.53669  1.0000
  H   H23       1.0  0.71744  0.10135  0.03669  1.0000
  H   H24       1.0  0.89865  0.28257  0.46331  1.0000
  H   H25       1.0  0.11547  0.67745  0.97494  1.0000
  H   H26       1.0  0.32255  0.88453  0.52506  1.0000
  H   H27       1.0  0.88453  0.32255  0.02505  1.0000
  H   H28       1.0  0.67745  0.11547  0.47495  1.0000
  Pd  Pd1       1.0  0.50000  0.50000  0.50000  1.0000
  Pd  Pd2       1.0  0.50000  0.50000  0.00000  1.0000
  C   C1        1.0  0.64800  0.39305  0.59858  1.0000
  C   C2        1.0  0.60695  0.35200  0.90142  1.0000
  C   C3        1.0  0.35200  0.60695  0.40142  1.0000
  C   C4        1.0  0.39305  0.64800  0.09858  1.0000
  C   C5        1.0  0.36631  0.35907  0.55456  1.0000
  C   C6        1.0  0.64093  0.63369  0.94544  1.0000
  C   C7        1.0  0.63369  0.64093  0.44544  1.0000
  C   C8        1.0  0.35907  0.36631  0.05456  1.0000
  C   C9        1.0  0.97678  0.43296  0.73954  1.0000
  C   C10       1.0  0.56704  0.02323  0.76046  1.0000
  C   C11       1.0  0.02322  0.56704  0.26046  1.0000
  C   C12       1.0  0.43296  0.97678  0.23954  1.0000
  C   C13       1.0  0.08241  0.50945  0.76200  1.0000
  C   C14       1.0  0.49054  0.91759  0.73801  1.0000
  C   C15       1.0  0.91759  0.49054  0.23800  1.0000
  C   C16       1.0  0.50946  0.08241  0.26200  1.0000
  C   C17       1.0  0.19830  0.42791  0.82393  1.0000
  C   C18       1.0  0.57209  0.80170  0.67607  1.0000
  C   C19       1.0  0.80170  0.57209  0.17607  1.0000
  C   C20       1.0  0.42791  0.19830  0.32393  1.0000
  C   C21       1.0  0.20407  0.27177  0.86199  1.0000
  C   C22       1.0  0.72823  0.79593  0.63801  1.0000
  C   C23       1.0  0.79593  0.72823  0.13801  1.0000
  C   C24       1.0  0.27177  0.20407  0.36199  1.0000
  C   C25       1.0  0.09647  0.20078  0.83568  1.0000
  C   C26       1.0  0.79922  0.90353  0.66432  1.0000
  C   C27       1.0  0.90353  0.79922  0.16432  1.0000
  C   C28       1.0  0.20078  0.09647  0.33568  1.0000
  C   C29       1.0  0.08656  0.04167  0.87118  1.0000
  C   C30       1.0  0.95832  0.91344  0.62882  1.0000
  C   C31       1.0  0.91344  0.95832  0.12882  1.0000
  C   C32       1.0  0.04168  0.08656  0.37118  1.0000
  C   C33       1.0  0.17555  0.90982  0.92948  1.0000
  C   C34       1.0  0.09018  0.82445  0.57052  1.0000
  C   C35       1.0  0.82445  0.09018  0.07052  1.0000
  C   C36       1.0  0.90982  0.17555  0.42948  1.0000
  C   C37       1.0  0.09377  0.79589  0.93596  1.0000
  C   C38       1.0  0.20411  0.90623  0.56404  1.0000
  C   C39       1.0  0.90623  0.20411  0.06404  1.0000
  C   C40       1.0  0.79590  0.09377  0.43596  1.0000
  N   N1        1.0  0.73050  0.31575  0.65652  1.0000
  N   N2        1.0  0.68425  0.26950  0.84347  1.0000
  N   N3        1.0  0.26950  0.68425  0.34347  1.0000
  N   N4        1.0  0.31574  0.73050  0.15653  1.0000
  N   N5        1.0  0.29041  0.27325  0.58744  1.0000
  N   N6        1.0  0.72675  0.70959  0.91256  1.0000
  N   N7        1.0  0.70959  0.72675  0.41256  1.0000
  N   N8        1.0  0.27325  0.29041  0.08744  1.0000
  N   N9        1.0  0.98329  0.28098  0.77439  1.0000
  N   N10       1.0  0.71902  0.01672  0.72561  1.0000
  N   N11       1.0  0.01671  0.71902  0.22561  1.0000
  N   N12       1.0  0.28098  0.98329  0.27439  1.0000
  N   N13       1.0  0.95997  0.00724  0.84381  1.0000
  N   N14       1.0  0.99276  0.04003  0.65619  1.0000
  N   N15       1.0  0.04002  0.99276  0.15619  1.0000
  N   N16       1.0  0.00724  0.95998  0.34381  1.0000
  N   N17       1.0  0.96598  0.85786  0.88322  1.0000
  N   N18       1.0  0.14214  0.03402  0.61678  1.0000
  N   N19       1.0  0.03402  0.14214  0.11678  1.0000
  N   N20       1.0  0.85786  0.96598  0.38322  1.0000
