data_image0
_chemical_formula_structural       Fe2H28Pt2C40N20
_chemical_formula_sum              "Fe2 H28 Pt2 C40 N20"
_cell_length_a       8.65936
_cell_length_b       8.7328
_cell_length_c       14.7407
_cell_angle_alpha    81.2114
_cell_angle_beta     81.5082
_cell_angle_gamma    72.8598

_space_group_name_H-M_alt    "P 1"
_space_group_IT_number       1

loop_
  _space_group_symop_operation_xyz
  'x, y, z'

loop_
  _atom_site_type_symbol
  _atom_site_label
  _atom_site_symmetry_multiplicity
  _atom_site_fract_x
  _atom_site_fract_y
  _atom_site_fract_z
  _atom_site_occupancy
  Fe  Fe1       1.0  0.82678  0.16917  0.74835  1.0000
  Fe  Fe2       1.0  0.16399  0.81896  0.24668  1.0000
  H   H1        1.0  0.87221  0.81865  0.88204  1.0000
  H   H2        1.0  0.18196  0.12747  0.61698  1.0000
  H   H3        1.0  0.12998  0.17973  0.11640  1.0000
  H   H4        1.0  0.81166  0.87471  0.38369  1.0000
  H   H5        1.0  0.91381  0.52043  0.69503  1.0000
  H   H6        1.0  0.47972  0.08671  0.80348  1.0000
  H   H7        1.0  0.09725  0.48927  0.30401  1.0000
  H   H8        1.0  0.52624  0.91783  0.19684  1.0000
  H   H9        1.0  0.10882  0.65178  0.73988  1.0000
  H   H10       1.0  0.34654  0.89197  0.76161  1.0000
  H   H11       1.0  0.90483  0.35185  0.26430  1.0000
  H   H12       1.0  0.65291  0.11603  0.24124  1.0000
  H   H13       1.0  0.30537  0.49311  0.85343  1.0000
  H   H14       1.0  0.50347  0.69560  0.64909  1.0000
  H   H15       1.0  0.70128  0.50227  0.15249  1.0000
  H   H16       1.0  0.48981  0.30733  0.35488  1.0000
  H   H17       1.0  0.29598  0.21493  0.91800  1.0000
  H   H18       1.0  0.78285  0.70521  0.58281  1.0000
  H   H19       1.0  0.70363  0.78179  0.08473  1.0000
  H   H20       1.0  0.21163  0.29160  0.41878  1.0000
  H   H21       1.0  0.28302  0.91770  0.96034  1.0000
  H   H22       1.0  0.08527  0.71716  0.54026  1.0000
  H   H23       1.0  0.71261  0.09059  0.03890  1.0000
  H   H24       1.0  0.92034  0.27925  0.45934  1.0000
  H   H25       1.0  0.11637  0.69092  0.97285  1.0000
  H   H26       1.0  0.31220  0.88457  0.52735  1.0000
  H   H27       1.0  0.88419  0.31315  0.02705  1.0000
  H   H28       1.0  0.68767  0.11835  0.47384  1.0000
  Pt  Pt1       1.0  0.49632  0.50035  0.49880  1.0000
  Pt  Pt2       1.0  0.50185  0.49632  0.99870  1.0000
  C   C1        1.0  0.64212  0.39399  0.59549  1.0000
  C   C2        1.0  0.60745  0.35413  0.90140  1.0000
  C   C3        1.0  0.35013  0.60258  0.40172  1.0000
  C   C4        1.0  0.39225  0.63786  0.09561  1.0000
  C   C5        1.0  0.35597  0.36235  0.55796  1.0000
  C   C6        1.0  0.63875  0.63918  0.94147  1.0000
  C   C7        1.0  0.63689  0.63880  0.44041  1.0000
  C   C8        1.0  0.36568  0.35347  0.05669  1.0000
  C   C9        1.0  0.00255  0.45719  0.74286  1.0000
  C   C10       1.0  0.54272  0.99790  0.75644  1.0000
  C   C11       1.0  0.00614  0.55020  0.25726  1.0000
  C   C12       1.0  0.46065  0.00489  0.24445  1.0000
  C   C13       1.0  0.11040  0.52920  0.76883  1.0000
  C   C14       1.0  0.46960  0.89017  0.73197  1.0000
  C   C15       1.0  0.89919  0.47466  0.23392  1.0000
  C   C16       1.0  0.53037  0.11434  0.27019  1.0000
  C   C17       1.0  0.21896  0.44102  0.83139  1.0000
  C   C18       1.0  0.55674  0.78167  0.67002  1.0000
  C   C19       1.0  0.78675  0.55791  0.17240  1.0000
  C   C20       1.0  0.43963  0.22005  0.33273  1.0000
  C   C21       1.0  0.21624  0.28441  0.86660  1.0000
  C   C22       1.0  0.71390  0.78441  0.63396  1.0000
  C   C23       1.0  0.78543  0.71478  0.13567  1.0000
  C   C24       1.0  0.28289  0.21361  0.36758  1.0000
  C   C25       1.0  0.10569  0.21891  0.83714  1.0000
  C   C26       1.0  0.78108  0.89411  0.66222  1.0000
  C   C27       1.0  0.89439  0.78503  0.16228  1.0000
  C   C28       1.0  0.21977  0.10210  0.33768  1.0000
  C   C29       1.0  0.08812  0.05869  0.87025  1.0000
  C   C30       1.0  0.94220  0.91091  0.62881  1.0000
  C   C31       1.0  0.90837  0.94522  0.12741  1.0000
  C   C32       1.0  0.05804  0.08426  0.37028  1.0000
  C   C33       1.0  0.17602  0.92715  0.92765  1.0000
  C   C34       1.0  0.07510  0.82372  0.57239  1.0000
  C   C35       1.0  0.82079  0.07847  0.07112  1.0000
  C   C36       1.0  0.92727  0.17340  0.42735  1.0000
  C   C37       1.0  0.09443  0.81023  0.93465  1.0000
  C   C38       1.0  0.19202  0.90589  0.56518  1.0000
  C   C39       1.0  0.90500  0.19330  0.06455  1.0000
  C   C40       1.0  0.80745  0.09459  0.43551  1.0000
  N   N1        1.0  0.71991  0.31830  0.65434  1.0000
  N   N2        1.0  0.67860  0.27615  0.84230  1.0000
  N   N3        1.0  0.27033  0.67085  0.34221  1.0000
  N   N4        1.0  0.31444  0.71389  0.15411  1.0000
  N   N5        1.0  0.27735  0.27652  0.59327  1.0000
  N   N6        1.0  0.72358  0.71984  0.90768  1.0000
  N   N7        1.0  0.71599  0.72485  0.40622  1.0000
  N   N8        1.0  0.28104  0.27332  0.09159  1.0000
  N   N9        1.0  0.00150  0.30629  0.77562  1.0000
  N   N10       1.0  0.69461  0.99901  0.72306  1.0000
  N   N11       1.0  0.00446  0.70253  0.22324  1.0000
  N   N12       1.0  0.30987  0.99991  0.27693  1.0000
  N   N13       1.0  0.96131  0.02079  0.84382  1.0000
  N   N14       1.0  0.97919  0.03773  0.65448  1.0000
  N   N15       1.0  0.03713  0.97981  0.15331  1.0000
  N   N16       1.0  0.01669  0.95964  0.34516  1.0000
  N   N17       1.0  0.96746  0.87027  0.88331  1.0000
  N   N18       1.0  0.13065  0.03239  0.61554  1.0000
  N   N19       1.0  0.03299  0.13034  0.11508  1.0000
  N   N20       1.0  0.86521  0.96810  0.38507  1.0000
