data_image0
_chemical_formula_structural       Sn4H56C28O8
_chemical_formula_sum              "Sn4 H56 C28 O8"
_cell_length_a       9.25923
_cell_length_b       10.0024
_cell_length_c       12.0253
_cell_angle_alpha    67.4697
_cell_angle_beta     77.6507
_cell_angle_gamma    65.2915

_space_group_name_H-M_alt    "P 1"
_space_group_IT_number       1

loop_
  _space_group_symop_operation_xyz
  'x, y, z'

loop_
  _atom_site_type_symbol
  _atom_site_label
  _atom_site_symmetry_multiplicity
  _atom_site_fract_x
  _atom_site_fract_y
  _atom_site_fract_z
  _atom_site_occupancy
  Sn  Sn1       1.0  0.59394  0.97266  0.27290  1.0000
  Sn  Sn2       1.0  0.40606  0.02734  0.72709  1.0000
  Sn  Sn3       1.0  0.77319  0.42754  0.21616  1.0000
  Sn  Sn4       1.0  0.22683  0.57247  0.78385  1.0000
  H   H1        1.0  0.41859  0.54618  0.24814  1.0000
  H   H2        1.0  0.58141  0.45381  0.75188  1.0000
  H   H3        1.0  0.33523  0.59254  0.05056  1.0000
  H   H4        1.0  0.66478  0.40744  0.94946  1.0000
  H   H5        1.0  0.19662  0.50079  0.12318  1.0000
  H   H6        1.0  0.80339  0.49920  0.87682  1.0000
  H   H7        1.0  0.05918  0.78827  0.05902  1.0000
  H   H8        1.0  0.94084  0.21172  0.94098  1.0000
  H   H9        1.0  0.19070  0.80341  0.13578  1.0000
  H   H10       1.0  0.80932  0.19659  0.86422  1.0000
  H   H11       1.0  0.95190  0.83326  0.25870  1.0000
  H   H12       1.0  0.04810  0.16673  0.74129  1.0000
  H   H13       1.0  0.04075  0.60467  0.44902  1.0000
  H   H14       1.0  0.95923  0.39533  0.55098  1.0000
  H   H15       1.0  0.18364  0.68758  0.37052  1.0000
  H   H16       1.0  0.81635  0.31241  0.62949  1.0000
  H   H17       1.0  0.30845  0.39834  0.44082  1.0000
  H   H18       1.0  0.69153  0.60165  0.55918  1.0000
  H   H19       1.0  0.17753  0.38727  0.36027  1.0000
  H   H20       1.0  0.82246  0.61273  0.63974  1.0000
  H   H21       1.0  0.65003  0.89554  0.50790  1.0000
  H   H22       1.0  0.34999  0.10445  0.49211  1.0000
  H   H23       1.0  0.68022  0.07346  0.41875  1.0000
  H   H24       1.0  0.31980  0.92655  0.58125  1.0000
  H   H25       1.0  0.82986  0.88964  0.41699  1.0000
  H   H26       1.0  0.17016  0.11035  0.58300  1.0000
  H   H27       1.0  0.79915  0.05913  0.08764  1.0000
  H   H28       1.0  0.20084  0.94088  0.91235  1.0000
  H   H29       1.0  0.60586  0.13388  0.03475  1.0000
  H   H30       1.0  0.39412  0.86612  0.96526  1.0000
  H   H31       1.0  0.73079  0.93340  0.05774  1.0000
  H   H32       1.0  0.26919  0.06661  0.94226  1.0000
  H   H33       1.0  0.33296  0.90469  0.38801  1.0000
  H   H34       1.0  0.66704  0.09531  0.61199  1.0000
  H   H35       1.0  0.43628  0.78748  0.29344  1.0000
  H   H36       1.0  0.56373  0.21251  0.70657  1.0000
  H   H37       1.0  0.31123  0.98883  0.22926  1.0000
  H   H38       1.0  0.68877  0.01117  0.77073  1.0000
  H   H39       1.0  0.00797  0.28597  0.07232  1.0000
  H   H40       1.0  0.99204  0.71403  0.92767  1.0000
  H   H41       1.0  0.94843  0.14187  0.19307  1.0000
  H   H42       1.0  0.05156  0.85814  0.80693  1.0000
  H   H43       1.0  0.07612  0.22023  0.21928  1.0000
  H   H44       1.0  0.92388  0.77977  0.78071  1.0000
  H   H45       1.0  0.74291  0.66148  0.00109  1.0000
  H   H46       1.0  0.25704  0.33856  0.99890  1.0000
  H   H47       1.0  0.60226  0.73516  0.11102  1.0000
  H   H48       1.0  0.39773  0.26485  0.88896  1.0000
  H   H49       1.0  0.56321  0.62426  0.04200  1.0000
  H   H50       1.0  0.43679  0.37577  0.95800  1.0000
  H   H51       1.0  0.78160  0.27260  0.45646  1.0000
  H   H52       1.0  0.21840  0.72739  0.54353  1.0000
  H   H53       1.0  0.57792  0.37033  0.42072  1.0000
  H   H54       1.0  0.42207  0.62968  0.57926  1.0000
  H   H55       1.0  0.68519  0.47795  0.43044  1.0000
  H   H56       1.0  0.31482  0.52205  0.56955  1.0000
  C   C1        1.0  0.35077  0.47963  0.24533  1.0000
  C   C2        1.0  0.64924  0.52037  0.75467  1.0000
  C   C3        1.0  0.25490  0.57170  0.13159  1.0000
  C   C4        1.0  0.74510  0.42830  0.86841  1.0000
  C   C5        1.0  0.13003  0.72780  0.13877  1.0000
  C   C6        1.0  0.86998  0.27219  0.86123  1.0000
  C   C7        1.0  0.01944  0.71513  0.25429  1.0000
  C   C8        1.0  0.98057  0.28486  0.74571  1.0000
  C   C9        1.0  0.11924  0.61895  0.36604  1.0000
  C   C10       1.0  0.88077  0.38104  0.63396  1.0000
  C   C11       1.0  0.23915  0.46037  0.36003  1.0000
  C   C12       1.0  0.76085  0.53962  0.63998  1.0000
  C   C13       1.0  0.47002  0.32385  0.23519  1.0000
  C   C14       1.0  0.52997  0.67613  0.76481  1.0000
  C   C15       1.0  0.89696  0.64839  0.25869  1.0000
  C   C16       1.0  0.10306  0.35161  0.74129  1.0000
  C   C17       1.0  0.70134  0.95569  0.42250  1.0000
  C   C18       1.0  0.29868  0.04430  0.57751  1.0000
  C   C19       1.0  0.69561  0.03125  0.09100  1.0000
  C   C20       1.0  0.30437  0.96875  0.90901  1.0000
  C   C21       1.0  0.39418  0.90460  0.29940  1.0000
  C   C22       1.0  0.60582  0.09540  0.70061  1.0000
  C   C23       1.0  0.97611  0.24622  0.16937  1.0000
  C   C24       1.0  0.02388  0.75380  0.83063  1.0000
  C   C25       1.0  0.65533  0.63796  0.07550  1.0000
  C   C26       1.0  0.34469  0.36203  0.92452  1.0000
  C   C27       1.0  0.69383  0.38174  0.40383  1.0000
  C   C28       1.0  0.30617  0.61827  0.59617  1.0000
  O   O1        1.0  0.41657  0.21570  0.25984  1.0000
  O   O2        1.0  0.58344  0.78429  0.74016  1.0000
  O   O3        1.0  0.61563  0.30352  0.20142  1.0000
  O   O4        1.0  0.38437  0.69649  0.79858  1.0000
  O   O5        1.0  0.75298  0.71033  0.29496  1.0000
  O   O6        1.0  0.24702  0.28967  0.70504  1.0000
  O   O7        1.0  0.94581  0.52621  0.22809  1.0000
  O   O8        1.0  0.05420  0.47381  0.77189  1.0000
