data_image0
_chemical_formula_structural       Cu2H44C40N4O12
_chemical_formula_sum              "Cu2 H44 C40 N4 O12"
_cell_length_a       7.91442
_cell_length_b       8.99796
_cell_length_c       13.0678
_cell_angle_alpha    91.3444
_cell_angle_beta     90.0003
_cell_angle_gamma    89.9995

_space_group_name_H-M_alt    "P 1"
_space_group_IT_number       1

loop_
  _space_group_symop_operation_xyz
  'x, y, z'

loop_
  _atom_site_type_symbol
  _atom_site_label
  _atom_site_symmetry_multiplicity
  _atom_site_fract_x
  _atom_site_fract_y
  _atom_site_fract_z
  _atom_site_occupancy
  Cu  Cu1       1.0  0.00000  0.50000  0.50000  1.0000
  Cu  Cu2       1.0  0.50000  1.00000  1.00000  1.0000
  H   H1        1.0  0.45294  0.61959  0.52579  1.0000
  H   H2        1.0  0.95293  0.88041  0.97421  1.0000
  H   H3        1.0  0.54706  0.38041  0.47421  1.0000
  H   H4        1.0  0.04706  0.11959  0.02579  1.0000
  H   H5        1.0  0.45419  0.69556  0.65154  1.0000
  H   H6        1.0  0.95419  0.80444  0.84847  1.0000
  H   H7        1.0  0.54580  0.30444  0.34846  1.0000
  H   H8        1.0  0.04581  0.19555  0.15154  1.0000
  H   H9        1.0  0.37491  0.94347  0.66909  1.0000
  H   H10       1.0  0.87491  0.55654  0.83092  1.0000
  H   H11       1.0  0.62509  0.05653  0.33091  1.0000
  H   H12       1.0  0.12509  0.44346  0.16909  1.0000
  H   H13       1.0  0.64292  0.80160  0.39762  1.0000
  H   H14       1.0  0.14291  0.69840  0.10239  1.0000
  H   H15       1.0  0.35709  0.19840  0.60238  1.0000
  H   H16       1.0  0.85708  0.30160  0.89762  1.0000
  H   H17       1.0  0.83130  0.21529  0.48152  1.0000
  H   H18       1.0  0.33130  0.28473  0.01848  1.0000
  H   H19       1.0  0.16869  0.78473  0.51848  1.0000
  H   H20       1.0  0.66870  0.71527  0.98151  1.0000
  H   H21       1.0  0.81550  0.97977  0.58185  1.0000
  H   H22       1.0  0.31550  0.52025  0.91815  1.0000
  H   H23       1.0  0.18449  0.02024  0.41815  1.0000
  H   H24       1.0  0.68451  0.47975  0.08184  1.0000
  H   H25       1.0  0.13605  0.42061  0.69937  1.0000
  H   H26       1.0  0.63604  0.07940  0.80064  1.0000
  H   H27       1.0  0.86395  0.57940  0.30063  1.0000
  H   H28       1.0  0.36396  0.92059  0.19936  1.0000
  H   H29       1.0  0.97739  0.96612  0.74565  1.0000
  H   H30       1.0  0.47737  0.53389  0.75436  1.0000
  H   H31       1.0  0.02262  0.03388  0.25435  1.0000
  H   H32       1.0  0.52263  0.46611  0.24564  1.0000
  H   H33       1.0  0.14219  0.19108  0.80689  1.0000
  H   H34       1.0  0.64218  0.30893  0.69311  1.0000
  H   H35       1.0  0.85781  0.80892  0.19311  1.0000
  H   H36       1.0  0.35783  0.69107  0.30689  1.0000
  H   H37       1.0  0.99707  0.31619  0.32706  1.0000
  H   H38       1.0  0.49708  0.18381  0.17293  1.0000
  H   H39       1.0  0.00293  0.68380  0.67294  1.0000
  H   H40       1.0  0.50292  0.81619  0.82707  1.0000
  H   H41       1.0  0.82216  0.29009  0.26915  1.0000
  H   H42       1.0  0.32216  0.20991  0.23084  1.0000
  H   H43       1.0  0.17784  0.70991  0.73085  1.0000
  H   H44       1.0  0.67784  0.79009  0.76915  1.0000
  C   C1        1.0  0.50978  0.85419  0.53789  1.0000
  C   C2        1.0  0.00978  0.64581  0.96212  1.0000
  C   C3        1.0  0.49022  0.14580  0.46211  1.0000
  C   C4        1.0  0.99022  0.35419  0.03788  1.0000
  C   C5        1.0  0.51882  0.69805  0.57748  1.0000
  C   C6        1.0  0.01882  0.80195  0.92253  1.0000
  C   C7        1.0  0.48118  0.30195  0.42252  1.0000
  C   C8        1.0  0.98118  0.19804  0.07747  1.0000
  C   C9        1.0  0.43027  0.96800  0.59488  1.0000
  C   C10       1.0  0.93026  0.53200  0.90512  1.0000
  C   C11       1.0  0.56973  0.03200  0.40512  1.0000
  C   C12       1.0  0.06974  0.46800  0.09489  1.0000
  C   C13       1.0  0.57964  0.88848  0.44277  1.0000
  C   C14       1.0  0.07963  0.61151  0.05723  1.0000
  C   C15       1.0  0.42036  0.11152  0.55723  1.0000
  C   C16       1.0  0.92036  0.38849  0.94278  1.0000
  C   C17       1.0  0.70218  0.64912  0.59095  1.0000
  C   C18       1.0  0.20218  0.85087  0.90905  1.0000
  C   C19       1.0  0.29781  0.35088  0.40905  1.0000
  C   C20       1.0  0.79782  0.14912  0.09095  1.0000
  C   C21       1.0  0.89457  0.20422  0.55507  1.0000
  C   C22       1.0  0.39457  0.29579  0.94493  1.0000
  C   C23       1.0  0.10542  0.79579  0.44493  1.0000
  C   C24       1.0  0.60543  0.70420  0.05506  1.0000
  C   C25       1.0  0.88912  0.07405  0.61042  1.0000
  C   C26       1.0  0.38912  0.42596  0.88959  1.0000
  C   C27       1.0  0.11087  0.92596  0.38959  1.0000
  C   C28       1.0  0.61089  0.57404  0.11041  1.0000
  C   C29       1.0  0.06917  0.31881  0.67718  1.0000
  C   C30       1.0  0.56916  0.18120  0.82283  1.0000
  C   C31       1.0  0.93084  0.68120  0.32283  1.0000
  C   C32       1.0  0.43085  0.81879  0.17717  1.0000
  C   C33       1.0  0.97911  0.06733  0.70183  1.0000
  C   C34       1.0  0.47909  0.43268  0.79817  1.0000
  C   C35       1.0  0.02090  0.93267  0.29817  1.0000
  C   C36       1.0  0.52091  0.56732  0.20183  1.0000
  C   C37       1.0  0.07041  0.19154  0.73577  1.0000
  C   C38       1.0  0.57040  0.30846  0.76423  1.0000
  C   C39       1.0  0.92960  0.80846  0.26423  1.0000
  C   C40       1.0  0.42961  0.69154  0.23577  1.0000
  N   N1        1.0  0.98291  0.32393  0.58836  1.0000
  N   N2        1.0  0.48290  0.17608  0.91164  1.0000
  N   N3        1.0  0.01709  0.67608  0.41164  1.0000
  N   N4        1.0  0.51710  0.82391  0.08835  1.0000
  O   O1        1.0  0.75797  0.55571  0.52342  1.0000
  O   O2        1.0  0.25797  0.94430  0.97658  1.0000
  O   O3        1.0  0.24203  0.44430  0.47658  1.0000
  O   O4        1.0  0.74203  0.05570  0.02342  1.0000
  O   O5        1.0  0.87341  0.33294  0.33244  1.0000
  O   O6        1.0  0.37341  0.16706  0.16756  1.0000
  O   O7        1.0  0.12659  0.66706  0.66756  1.0000
  O   O8        1.0  0.62659  0.83294  0.83244  1.0000
  O   O9        1.0  0.78679  0.70470  0.66468  1.0000
  O   O10       1.0  0.28678  0.79530  0.83533  1.0000
  O   O11       1.0  0.21321  0.29530  0.33532  1.0000
  O   O12       1.0  0.71322  0.20470  0.16467  1.0000
