data_image0
_chemical_formula_structural       Cd2H36C40N24O12
_chemical_formula_sum              "Cd2 H36 C40 N24 O12"
_cell_length_a       9.84277
_cell_length_b       10.4096
_cell_length_c       11.2606
_cell_angle_alpha    90
_cell_angle_beta     93.8808
_cell_angle_gamma    90

_space_group_name_H-M_alt    "P 1"
_space_group_IT_number       1

loop_
  _space_group_symop_operation_xyz
  'x, y, z'

loop_
  _atom_site_type_symbol
  _atom_site_label
  _atom_site_symmetry_multiplicity
  _atom_site_fract_x
  _atom_site_fract_y
  _atom_site_fract_z
  _atom_site_occupancy
  Cd  Cd1       1.0  0.00000  0.50000  0.50000  1.0000
  Cd  Cd2       1.0  0.50000  1.00000  1.00000  1.0000
  H   H1        1.0  0.27473  0.60927  0.66222  1.0000
  H   H2        1.0  0.22527  0.10927  0.83778  1.0000
  H   H3        1.0  0.72527  0.39073  0.33778  1.0000
  H   H4        1.0  0.77473  0.89073  0.16222  1.0000
  H   H5        1.0  0.26869  0.32167  0.39663  1.0000
  H   H6        1.0  0.23132  0.82167  0.10337  1.0000
  H   H7        1.0  0.73132  0.67833  0.60337  1.0000
  H   H8        1.0  0.76869  0.17833  0.89663  1.0000
  H   H9        1.0  0.50147  0.29174  0.54720  1.0000
  H   H10       1.0  0.99853  0.79174  0.95279  1.0000
  H   H11       1.0  0.49853  0.70826  0.45280  1.0000
  H   H12       1.0  0.00147  0.20826  0.04720  1.0000
  H   H13       1.0  0.50812  0.57363  0.76364  1.0000
  H   H14       1.0  0.99189  0.07364  0.73636  1.0000
  H   H15       1.0  0.49188  0.42636  0.23636  1.0000
  H   H16       1.0  0.00812  0.92636  0.26364  1.0000
  H   H17       1.0  0.61105  0.44425  0.71678  1.0000
  H   H18       1.0  0.88895  0.94425  0.78322  1.0000
  H   H19       1.0  0.38895  0.55575  0.28322  1.0000
  H   H20       1.0  0.11105  0.05575  0.21678  1.0000
  H   H21       1.0  0.28983  0.20351  0.13308  1.0000
  H   H22       1.0  0.21017  0.70351  0.36692  1.0000
  H   H23       1.0  0.71017  0.79649  0.86692  1.0000
  H   H24       1.0  0.78983  0.29649  0.63308  1.0000
  H   H25       1.0  0.13912  0.39182  0.17569  1.0000
  H   H26       1.0  0.36088  0.89182  0.32431  1.0000
  H   H27       1.0  0.86088  0.60818  0.82431  1.0000
  H   H28       1.0  0.63912  0.10818  0.67569  1.0000
  H   H29       1.0  0.14109  0.58757  0.05663  1.0000
  H   H30       1.0  0.35891  0.08757  0.44337  1.0000
  H   H31       1.0  0.85890  0.41243  0.94337  1.0000
  H   H32       1.0  0.64109  0.91243  0.55663  1.0000
  H   H33       1.0  0.29403  0.61213  0.88857  1.0000
  H   H34       1.0  0.20597  0.11213  0.61143  1.0000
  H   H35       1.0  0.70597  0.38787  0.11143  1.0000
  H   H36       1.0  0.79403  0.88787  0.38857  1.0000
  C   C1        1.0  0.30075  0.52688  0.60914  1.0000
  C   C2        1.0  0.19925  0.02688  0.89086  1.0000
  C   C3        1.0  0.69924  0.47312  0.39086  1.0000
  C   C4        1.0  0.80076  0.97312  0.10915  1.0000
  C   C5        1.0  0.30390  0.37695  0.47416  1.0000
  C   C6        1.0  0.19609  0.87695  0.02584  1.0000
  C   C7        1.0  0.69609  0.62305  0.52584  1.0000
  C   C8        1.0  0.80390  0.12305  0.97416  1.0000
  C   C9        1.0  0.41845  0.35979  0.54864  1.0000
  C   C10       1.0  0.08155  0.85979  0.95136  1.0000
  C   C11       1.0  0.58155  0.64021  0.45136  1.0000
  C   C12       1.0  0.91845  0.14021  0.04864  1.0000
  C   C13       1.0  0.50809  0.47234  0.73729  1.0000
  C   C14       1.0  0.99191  0.97234  0.76271  1.0000
  C   C15       1.0  0.49191  0.52766  0.26271  1.0000
  C   C16       1.0  0.00809  0.02766  0.23729  1.0000
  C   C17       1.0  0.37431  0.41772  0.91714  1.0000
  C   C18       1.0  0.12569  0.91772  0.58286  1.0000
  C   C19       1.0  0.62569  0.58228  0.08286  1.0000
  C   C20       1.0  0.87431  0.08228  0.41714  1.0000
  C   C21       1.0  0.37293  0.30360  0.98493  1.0000
  C   C22       1.0  0.12707  0.80360  0.51507  1.0000
  C   C23       1.0  0.62706  0.69640  0.01507  1.0000
  C   C24       1.0  0.87294  0.19640  0.48493  1.0000
  C   C25       1.0  0.28863  0.29110  0.08014  1.0000
  C   C26       1.0  0.21137  0.79110  0.41986  1.0000
  C   C27       1.0  0.71137  0.70890  0.91986  1.0000
  C   C28       1.0  0.78863  0.20890  0.58014  1.0000
  C   C29       1.0  0.20645  0.39533  0.10264  1.0000
  C   C30       1.0  0.29355  0.89533  0.39736  1.0000
  C   C31       1.0  0.79355  0.60467  0.89736  1.0000
  C   C32       1.0  0.70645  0.10467  0.60264  1.0000
  C   C33       1.0  0.20774  0.50909  0.03336  1.0000
  C   C34       1.0  0.29226  0.00909  0.46664  1.0000
  C   C35       1.0  0.79226  0.49091  0.96664  1.0000
  C   C36       1.0  0.70774  0.99091  0.53336  1.0000
  C   C37       1.0  0.29154  0.52338  0.93976  1.0000
  C   C38       1.0  0.20846  0.02338  0.56024  1.0000
  C   C39       1.0  0.70846  0.47661  0.06024  1.0000
  C   C40       1.0  0.79154  0.97662  0.43976  1.0000
  N   N1        1.0  0.23167  0.48133  0.51278  1.0000
  N   N2        1.0  0.26833  0.98133  0.98722  1.0000
  N   N3        1.0  0.76833  0.51867  0.48722  1.0000
  N   N4        1.0  0.73167  0.01867  0.01278  1.0000
  N   N5        1.0  0.41504  0.45597  0.63336  1.0000
  N   N6        1.0  0.08496  0.95597  0.86664  1.0000
  N   N7        1.0  0.58496  0.54403  0.36664  1.0000
  N   N8        1.0  0.91504  0.04403  0.13336  1.0000
  N   N9        1.0  0.46888  0.39345  0.83571  1.0000
  N   N10       1.0  0.03112  0.89345  0.66429  1.0000
  N   N11       1.0  0.53112  0.60655  0.16429  1.0000
  N   N12       1.0  0.96888  0.10655  0.33571  1.0000
  N   N13       1.0  0.52005  0.27329  0.84939  1.0000
  N   N14       1.0  0.97996  0.77329  0.65061  1.0000
  N   N15       1.0  0.47996  0.72671  0.15061  1.0000
  N   N16       1.0  0.02005  0.22671  0.34939  1.0000
  N   N17       1.0  0.46398  0.21941  0.93873  1.0000
  N   N18       1.0  0.03603  0.71942  0.56127  1.0000
  N   N19       1.0  0.53603  0.78059  0.06127  1.0000
  N   N20       1.0  0.96398  0.28058  0.43873  1.0000
  N   N21       1.0  0.04535  0.33824  0.75021  1.0000
  N   N22       1.0  0.45465  0.83824  0.74979  1.0000
  N   N23       1.0  0.95465  0.66176  0.24979  1.0000
  N   N24       1.0  0.54535  0.16175  0.25021  1.0000
  O   O1        1.0  0.98822  0.44097  0.70675  1.0000
  O   O2        1.0  0.51178  0.94097  0.79325  1.0000
  O   O3        1.0  0.01178  0.55903  0.29325  1.0000
  O   O4        1.0  0.48822  0.05903  0.20675  1.0000
  O   O5        1.0  0.14782  0.29156  0.70429  1.0000
  O   O6        1.0  0.35218  0.79156  0.79571  1.0000
  O   O7        1.0  0.85218  0.70844  0.29571  1.0000
  O   O8        1.0  0.64782  0.20844  0.20429  1.0000
  O   O9        1.0  0.99602  0.28524  0.83798  1.0000
  O   O10       1.0  0.50399  0.78524  0.66202  1.0000
  O   O11       1.0  0.00399  0.71476  0.16202  1.0000
  O   O12       1.0  0.49601  0.21476  0.33798  1.0000
