data_image0
_chemical_formula_structural       Zn2H36C40N24O12
_chemical_formula_sum              "Zn2 H36 C40 N24 O12"
_cell_length_a       9.66354
_cell_length_b       10.2043
_cell_length_c       11.2254
_cell_angle_alpha    90
_cell_angle_beta     95.3551
_cell_angle_gamma    90

_space_group_name_H-M_alt    "P 1"
_space_group_IT_number       1

loop_
  _space_group_symop_operation_xyz
  'x, y, z'

loop_
  _atom_site_type_symbol
  _atom_site_label
  _atom_site_symmetry_multiplicity
  _atom_site_fract_x
  _atom_site_fract_y
  _atom_site_fract_z
  _atom_site_occupancy
  Zn  Zn1       1.0  1.00000  0.50000  0.50000  1.0000
  Zn  Zn2       1.0  0.50000  1.00000  1.00000  1.0000
  H   H1        1.0  0.25624  0.40292  0.67515  1.0000
  H   H2        1.0  0.24376  0.90292  0.82485  1.0000
  H   H3        1.0  0.74376  0.59708  0.32485  1.0000
  H   H4        1.0  0.75624  0.09708  0.17515  1.0000
  H   H5        1.0  0.25497  0.67270  0.38948  1.0000
  H   H6        1.0  0.24503  0.17270  0.11051  1.0000
  H   H7        1.0  0.74502  0.32730  0.61051  1.0000
  H   H8        1.0  0.75498  0.82730  0.88949  1.0000
  H   H9        1.0  0.50123  0.70000  0.53535  1.0000
  H   H10       1.0  0.99877  0.20000  0.96465  1.0000
  H   H11       1.0  0.49877  0.30000  0.46465  1.0000
  H   H12       1.0  0.00123  0.80000  0.03535  1.0000
  H   H13       1.0  0.60870  0.56231  0.71859  1.0000
  H   H14       1.0  0.89130  0.06230  0.78141  1.0000
  H   H15       1.0  0.39130  0.43769  0.28141  1.0000
  H   H16       1.0  0.10870  0.93770  0.21859  1.0000
  H   H17       1.0  0.50720  0.42962  0.76714  1.0000
  H   H18       1.0  0.99280  0.92962  0.73286  1.0000
  H   H19       1.0  0.49279  0.57038  0.23286  1.0000
  H   H20       1.0  0.00720  0.07038  0.26714  1.0000
  H   H21       1.0  0.29308  0.38863  0.89163  1.0000
  H   H22       1.0  0.20692  0.88862  0.60837  1.0000
  H   H23       1.0  0.70691  0.61138  0.10837  1.0000
  H   H24       1.0  0.79309  0.11137  0.39163  1.0000
  H   H25       1.0  0.13903  0.41347  0.05760  1.0000
  H   H26       1.0  0.36097  0.91347  0.44240  1.0000
  H   H27       1.0  0.86097  0.58653  0.94240  1.0000
  H   H28       1.0  0.63903  0.08653  0.55760  1.0000
  H   H29       1.0  0.13468  0.61476  0.17466  1.0000
  H   H30       1.0  0.36532  0.11476  0.32533  1.0000
  H   H31       1.0  0.86531  0.38524  0.82533  1.0000
  H   H32       1.0  0.63468  0.88524  0.67467  1.0000
  H   H33       1.0  0.28600  0.80755  0.13275  1.0000
  H   H34       1.0  0.21400  0.30755  0.36725  1.0000
  H   H35       1.0  0.71400  0.19245  0.86725  1.0000
  H   H36       1.0  0.78600  0.69245  0.63275  1.0000
  C   C1        1.0  0.28559  0.47999  0.61601  1.0000
  C   C2        1.0  0.21441  0.97999  0.88399  1.0000
  C   C3        1.0  0.71441  0.52001  0.38399  1.0000
  C   C4        1.0  0.78559  0.02001  0.11601  1.0000
  C   C5        1.0  0.29130  0.62068  0.47038  1.0000
  C   C6        1.0  0.20870  0.12068  0.02961  1.0000
  C   C7        1.0  0.70870  0.37932  0.52962  1.0000
  C   C8        1.0  0.79130  0.87932  0.97038  1.0000
  C   C9        1.0  0.41259  0.63663  0.54256  1.0000
  C   C10       1.0  0.08741  0.13663  0.95744  1.0000
  C   C11       1.0  0.58741  0.36337  0.45744  1.0000
  C   C12       1.0  0.91259  0.86337  0.04256  1.0000
  C   C13       1.0  0.50485  0.53259  0.73928  1.0000
  C   C14       1.0  0.99515  0.03259  0.76072  1.0000
  C   C15       1.0  0.49514  0.46741  0.26072  1.0000
  C   C16       1.0  0.00485  0.96741  0.23928  1.0000
  C   C17       1.0  0.37196  0.58856  0.91873  1.0000
  C   C18       1.0  0.12804  0.08855  0.58127  1.0000
  C   C19       1.0  0.62804  0.41145  0.08127  1.0000
  C   C20       1.0  0.87196  0.91144  0.41873  1.0000
  C   C21       1.0  0.28966  0.47991  0.94160  1.0000
  C   C22       1.0  0.21034  0.97991  0.55840  1.0000
  C   C23       1.0  0.71034  0.52009  0.05840  1.0000
  C   C24       1.0  0.78966  0.02009  0.44160  1.0000
  C   C25       1.0  0.20499  0.49433  0.03413  1.0000
  C   C26       1.0  0.29501  0.99433  0.46587  1.0000
  C   C27       1.0  0.79501  0.50567  0.96587  1.0000
  C   C28       1.0  0.70499  0.00567  0.53413  1.0000
  C   C29       1.0  0.20259  0.61103  0.10234  1.0000
  C   C30       1.0  0.29741  0.11103  0.39766  1.0000
  C   C31       1.0  0.79741  0.38897  0.89766  1.0000
  C   C32       1.0  0.70259  0.88897  0.60234  1.0000
  C   C33       1.0  0.28490  0.71794  0.08007  1.0000
  C   C34       1.0  0.21510  0.21794  0.41993  1.0000
  C   C35       1.0  0.71510  0.28206  0.91993  1.0000
  C   C36       1.0  0.78490  0.78206  0.58007  1.0000
  C   C37       1.0  0.37041  0.70547  0.98601  1.0000
  C   C38       1.0  0.12959  0.20547  0.51399  1.0000
  C   C39       1.0  0.62959  0.29453  0.01399  1.0000
  C   C40       1.0  0.87041  0.79453  0.48601  1.0000
  N   N1        1.0  0.21290  0.52324  0.51758  1.0000
  N   N2        1.0  0.28710  0.02324  0.98242  1.0000
  N   N3        1.0  0.78710  0.47676  0.48242  1.0000
  N   N4        1.0  0.71290  0.97676  0.01758  1.0000
  N   N5        1.0  0.40735  0.54618  0.63403  1.0000
  N   N6        1.0  0.09265  0.04618  0.86597  1.0000
  N   N7        1.0  0.59265  0.45382  0.36597  1.0000
  N   N8        1.0  0.90735  0.95382  0.13403  1.0000
  N   N9        1.0  0.46599  0.61388  0.83709  1.0000
  N   N10       1.0  0.03401  0.11388  0.66291  1.0000
  N   N11       1.0  0.53401  0.38612  0.16291  1.0000
  N   N12       1.0  0.96599  0.88612  0.33709  1.0000
  N   N13       1.0  0.51697  0.73695  0.85053  1.0000
  N   N14       1.0  0.98303  0.23695  0.64947  1.0000
  N   N15       1.0  0.48303  0.26305  0.14947  1.0000
  N   N16       1.0  0.01697  0.76305  0.35053  1.0000
  N   N17       1.0  0.46168  0.79200  0.93989  1.0000
  N   N18       1.0  0.03832  0.29200  0.56011  1.0000
  N   N19       1.0  0.53832  0.20800  0.06011  1.0000
  N   N20       1.0  0.96168  0.70800  0.43989  1.0000
  N   N21       1.0  0.04206  0.66289  0.74416  1.0000
  N   N22       1.0  0.45794  0.16289  0.75584  1.0000
  N   N23       1.0  0.95794  0.33711  0.25584  1.0000
  N   N24       1.0  0.54206  0.83711  0.24416  1.0000
  O   O1        1.0  0.98933  0.55768  0.69507  1.0000
  O   O2        1.0  0.51067  0.05768  0.80493  1.0000
  O   O3        1.0  0.01067  0.44232  0.30493  1.0000
  O   O4        1.0  0.48933  0.94232  0.19507  1.0000
  O   O5        1.0  0.14893  0.71404  0.70720  1.0000
  O   O6        1.0  0.35106  0.21404  0.79280  1.0000
  O   O7        1.0  0.85107  0.28596  0.29281  1.0000
  O   O8        1.0  0.64893  0.78596  0.20719  1.0000
  O   O9        1.0  0.98388  0.71416  0.82841  1.0000
  O   O10       1.0  0.51612  0.21416  0.67159  1.0000
  O   O11       1.0  0.01612  0.28584  0.17159  1.0000
  O   O12       1.0  0.48388  0.78584  0.32841  1.0000
