data_image0
_chemical_formula_structural       P4H68Au4C62Cl4
_chemical_formula_sum              "P4 H68 Au4 C62 Cl4"
_cell_length_a       9.126
_cell_length_b       9.12594
_cell_length_c       20.7779
_cell_angle_alpha    95.5776
_cell_angle_beta     95.5778
_cell_angle_gamma    113.589

_space_group_name_H-M_alt    "P 1"
_space_group_IT_number       1

loop_
  _space_group_symop_operation_xyz
  'x, y, z'

loop_
  _atom_site_type_symbol
  _atom_site_label
  _atom_site_symmetry_multiplicity
  _atom_site_fract_x
  _atom_site_fract_y
  _atom_site_fract_z
  _atom_site_occupancy
  P   P1        1.0  0.93336  0.36870  0.82852  1.0000
  P   P2        1.0  0.36870  0.93337  0.32852  1.0000
  P   P3        1.0  0.57793  0.49474  0.00286  1.0000
  P   P4        1.0  0.49475  0.57793  0.50286  1.0000
  H   H1        1.0  0.78725  0.42204  0.70693  1.0000
  H   H2        1.0  0.42204  0.78725  0.20693  1.0000
  H   H3        1.0  0.88468  0.47582  0.59992  1.0000
  H   H4        1.0  0.47582  0.88469  0.09991  1.0000
  H   H5        1.0  0.15694  0.49132  0.58368  1.0000
  H   H6        1.0  0.49133  0.15694  0.08368  1.0000
  H   H7        1.0  0.32707  0.44339  0.67329  1.0000
  H   H8        1.0  0.44339  0.32708  0.17329  1.0000
  H   H9        1.0  0.23081  0.38763  0.77853  1.0000
  H   H10       1.0  0.38763  0.23081  0.27853  1.0000
  H   H11       1.0  0.15590  0.69182  0.80464  1.0000
  H   H12       1.0  0.69183  0.15591  0.30464  1.0000
  H   H13       1.0  0.32597  0.94455  0.87932  1.0000
  H   H14       1.0  0.94455  0.32598  0.37933  1.0000
  H   H15       1.0  0.33290  0.95213  0.99955  1.0000
  H   H16       1.0  0.95213  0.33290  0.49955  1.0000
  H   H17       1.0  0.16715  0.70532  0.04482  1.0000
  H   H18       1.0  0.70532  0.16714  0.54482  1.0000
  H   H19       1.0  0.99417  0.45241  0.97056  1.0000
  H   H20       1.0  0.45241  0.99417  0.47056  1.0000
  H   H21       1.0  0.98223  0.21092  0.90617  1.0000
  H   H22       1.0  0.21092  0.98223  0.40616  1.0000
  H   H23       1.0  0.11211  0.23439  0.84565  1.0000
  H   H24       1.0  0.23439  0.11211  0.34565  1.0000
  H   H25       1.0  0.84306  0.05453  0.76375  1.0000
  H   H26       1.0  0.05453  0.84306  0.26375  1.0000
  H   H27       1.0  0.74974  0.01770  0.83421  1.0000
  H   H28       1.0  0.01770  0.74974  0.33421  1.0000
  H   H29       1.0  0.95856  0.90689  0.87313  1.0000
  H   H30       1.0  0.90689  0.95856  0.37313  1.0000
  H   H31       1.0  0.02357  0.92794  0.79649  1.0000
  H   H32       1.0  0.92794  0.02357  0.29649  1.0000
  H   H33       1.0  0.73988  0.74707  0.74112  1.0000
  H   H34       1.0  0.74707  0.73987  0.24112  1.0000
  H   H35       1.0  0.82976  0.65016  0.79078  1.0000
  H   H36       1.0  0.65016  0.82976  0.29077  1.0000
  H   H37       1.0  0.54291  0.57299  0.80290  1.0000
  H   H38       1.0  0.57299  0.54291  0.30289  1.0000
  H   H39       1.0  0.57956  0.77489  0.83107  1.0000
  H   H40       1.0  0.77489  0.57955  0.33107  1.0000
  H   H41       1.0  0.76509  0.77714  0.92883  1.0000
  H   H42       1.0  0.77713  0.76510  0.42883  1.0000
  H   H43       1.0  0.74565  0.58314  0.89663  1.0000
  H   H44       1.0  0.58313  0.74565  0.39663  1.0000
  H   H45       1.0  0.48418  0.67367  0.94968  1.0000
  H   H46       1.0  0.67368  0.48419  0.44968  1.0000
  H   H47       1.0  0.43524  0.48542  0.90034  1.0000
  H   H48       1.0  0.48543  0.43523  0.40034  1.0000
  H   H49       1.0  0.48918  0.62714  0.12344  1.0000
  H   H50       1.0  0.62714  0.48918  0.62345  1.0000
  H   H51       1.0  0.23053  0.53620  0.16955  1.0000
  H   H52       1.0  0.53620  0.23053  0.66956  1.0000
  H   H53       1.0  0.99143  0.29530  0.11290  1.0000
  H   H54       1.0  0.29530  0.99144  0.61291  1.0000
  H   H55       1.0  0.01175  0.13594  0.01300  1.0000
  H   H56       1.0  0.13595  0.01175  0.51300  1.0000
  H   H57       1.0  0.27115  0.22299  0.96731  1.0000
  H   H58       1.0  0.22301  0.27114  0.46731  1.0000
  H   H59       1.0  0.86824  0.51607  0.08482  1.0000
  H   H60       1.0  0.51608  0.86824  0.58482  1.0000
  H   H61       1.0  0.08469  0.74337  0.16143  1.0000
  H   H62       1.0  0.74336  0.08468  0.66144  1.0000
  H   H63       1.0  0.07241  0.01170  0.17977  1.0000
  H   H64       1.0  0.01171  0.07241  0.67977  1.0000
  H   H65       1.0  0.84095  0.05080  0.12169  1.0000
  H   H66       1.0  0.05081  0.84095  0.62169  1.0000
  H   H67       1.0  0.63407  0.83072  0.04261  1.0000
  H   H68       1.0  0.83073  0.63408  0.54261  1.0000
  Au  Au1       1.0  0.66510  0.29395  0.82482  1.0000
  Au  Au2       1.0  0.29395  0.66510  0.32482  1.0000
  Au  Au3       1.0  0.64001  0.28401  0.97654  1.0000
  Au  Au4       1.0  0.28401  0.64001  0.47654  1.0000
  C   C1        1.0  0.00113  0.40070  0.74960  1.0000
  C   C2        1.0  0.40070  0.00114  0.24960  1.0000
  C   C3        1.0  0.90523  0.42633  0.69892  1.0000
  C   C4        1.0  0.42633  0.90523  0.19892  1.0000
  C   C5        1.0  0.96066  0.45770  0.63930  1.0000
  C   C6        1.0  0.45770  0.96066  0.13930  1.0000
  C   C7        1.0  0.11274  0.46502  0.63011  1.0000
  C   C8        1.0  0.46502  0.11275  0.13011  1.0000
  C   C9        1.0  0.20899  0.43952  0.68044  1.0000
  C   C10       1.0  0.43952  0.20899  0.18044  1.0000
  C   C11       1.0  0.15384  0.40751  0.73997  1.0000
  C   C12       1.0  0.40751  0.15384  0.23997  1.0000
  C   C13       1.0  0.06446  0.55434  0.88242  1.0000
  C   C14       1.0  0.55434  0.06447  0.38242  1.0000
  C   C15       1.0  0.15801  0.69391  0.85725  1.0000
  C   C16       1.0  0.69391  0.15802  0.35725  1.0000
  C   C17       1.0  0.25427  0.83657  0.89939  1.0000
  C   C18       1.0  0.83657  0.25428  0.39940  1.0000
  C   C19       1.0  0.25748  0.84053  0.96684  1.0000
  C   C20       1.0  0.84053  0.25748  0.46684  1.0000
  C   C21       1.0  0.16464  0.70212  0.99222  1.0000
  C   C22       1.0  0.70212  0.16464  0.49222  1.0000
  C   C23       1.0  0.06766  0.55943  0.95032  1.0000
  C   C24       1.0  0.55942  0.06766  0.45032  1.0000
  C   C25       1.0  0.98705  0.20813  0.85346  1.0000
  C   C26       1.0  0.20813  0.98706  0.35346  1.0000
  C   C27       1.0  0.86543  0.04533  0.81583  1.0000
  C   C28       1.0  0.04533  0.86543  0.31583  1.0000
  C   C29       1.0  0.91749  0.90722  0.82153  1.0000
  C   C30       1.0  0.90722  0.91749  0.32153  1.0000
  C   C31       1.0  0.78104  0.74298  0.79235  1.0000
  C   C32       1.0  0.74298  0.78103  0.29234  1.0000
  C   C33       1.0  0.63579  0.68821  0.82959  1.0000
  C   C34       1.0  0.68821  0.63579  0.32959  1.0000
  C   C35       1.0  0.68059  0.66241  0.89911  1.0000
  C   C36       1.0  0.66241  0.68059  0.39911  1.0000
  C   C37       1.0  0.53299  0.58626  0.93331  1.0000
  C   C38       1.0  0.58626  0.53299  0.43331  1.0000
  C   C39       1.0  0.39578  0.43330  0.04152  1.0000
  C   C40       1.0  0.43330  0.39578  0.54152  1.0000
  C   C41       1.0  0.38414  0.52083  0.09863  1.0000
  C   C42       1.0  0.52083  0.38414  0.59863  1.0000
  C   C43       1.0  0.23878  0.47046  0.12430  1.0000
  C   C44       1.0  0.47046  0.23878  0.62430  1.0000
  C   C45       1.0  0.10491  0.33342  0.09299  1.0000
  C   C46       1.0  0.33343  0.10492  0.59300  1.0000
  C   C47       1.0  0.11657  0.24383  0.03674  1.0000
  C   C48       1.0  0.24384  0.11658  0.53674  1.0000
  C   C49       1.0  0.26148  0.29321  0.01112  1.0000
  C   C50       1.0  0.29322  0.26148  0.51112  1.0000
  C   C51       1.0  0.73507  0.65715  0.05967  1.0000
  C   C52       1.0  0.65715  0.73508  0.55967  1.0000
  C   C53       1.0  0.86278  0.63364  0.09339  1.0000
  C   C54       1.0  0.63365  0.86277  0.59340  1.0000
  C   C55       1.0  0.98386  0.76115  0.13625  1.0000
  C   C56       1.0  0.76115  0.98387  0.63625  1.0000
  C   C57       1.0  0.97716  0.91181  0.14660  1.0000
  C   C58       1.0  0.91182  0.97716  0.64660  1.0000
  C   C59       1.0  0.84873  0.93461  0.11387  1.0000
  C   C60       1.0  0.93460  0.84874  0.61387  1.0000
  C   C61       1.0  0.72942  0.80875  0.06999  1.0000
  C   C62       1.0  0.80876  0.72942  0.56998  1.0000
  Cl  Cl1       1.0  0.38576  0.20144  0.81213  1.0000
  Cl  Cl2       1.0  0.20144  0.38576  0.31213  1.0000
  Cl  Cl3       1.0  0.69529  0.05855  0.96199  1.0000
  Cl  Cl4       1.0  0.05855  0.69529  0.46199  1.0000
