data_image0
_chemical_formula_structural       P4H56Au4C56I4
_chemical_formula_sum              "P4 H56 Au4 C56 I4"
_cell_length_a       11.2728
_cell_length_b       11.2728
_cell_length_c       11.8111
_cell_angle_alpha    79.8746
_cell_angle_beta     79.8746
_cell_angle_gamma    77.6622

_space_group_name_H-M_alt    "P 1"
_space_group_IT_number       1

loop_
  _space_group_symop_operation_xyz
  'x, y, z'

loop_
  _atom_site_type_symbol
  _atom_site_label
  _atom_site_symmetry_multiplicity
  _atom_site_fract_x
  _atom_site_fract_y
  _atom_site_fract_z
  _atom_site_occupancy
  P   P1        1.0  0.73969  0.94917  0.77549  1.0000
  P   P2        1.0  0.05083  0.26031  0.72451  1.0000
  P   P3        1.0  0.26031  0.05083  0.22451  1.0000
  P   P4        1.0  0.94917  0.73969  0.27549  1.0000
  H   H1        1.0  0.70976  0.00071  0.96607  1.0000
  H   H2        1.0  0.99929  0.29024  0.53394  1.0000
  H   H3        1.0  0.29024  0.99929  0.03394  1.0000
  H   H4        1.0  0.00071  0.70976  0.46606  1.0000
  H   H5        1.0  0.68328  0.85011  0.97001  1.0000
  H   H6        1.0  0.14989  0.31672  0.52999  1.0000
  H   H7        1.0  0.31672  0.14989  0.02999  1.0000
  H   H8        1.0  0.85011  0.68328  0.47001  1.0000
  H   H9        1.0  0.48039  0.93786  0.90125  1.0000
  H   H10       1.0  0.06214  0.51961  0.59875  1.0000
  H   H11       1.0  0.51961  0.06214  0.09875  1.0000
  H   H12       1.0  0.93786  0.48039  0.40125  1.0000
  H   H13       1.0  0.51070  0.08896  0.88555  1.0000
  H   H14       1.0  0.91105  0.48930  0.61445  1.0000
  H   H15       1.0  0.48930  0.91104  0.11445  1.0000
  H   H16       1.0  0.08896  0.51070  0.38555  1.0000
  H   H17       1.0  0.66749  0.70945  0.86052  1.0000
  H   H18       1.0  0.29055  0.33251  0.63948  1.0000
  H   H19       1.0  0.33252  0.29055  0.13948  1.0000
  H   H20       1.0  0.70945  0.66749  0.36052  1.0000
  H   H21       1.0  0.58117  0.57363  0.76751  1.0000
  H   H22       1.0  0.42637  0.41884  0.73249  1.0000
  H   H23       1.0  0.41884  0.42637  0.23249  1.0000
  H   H24       1.0  0.57364  0.58116  0.26751  1.0000
  H   H25       1.0  0.53052  0.63911  0.56578  1.0000
  H   H26       1.0  0.36089  0.46948  0.93422  1.0000
  H   H27       1.0  0.46948  0.36089  0.43422  1.0000
  H   H28       1.0  0.63911  0.53052  0.06578  1.0000
  H   H29       1.0  0.56837  0.84131  0.45750  1.0000
  H   H30       1.0  0.15869  0.43163  0.04250  1.0000
  H   H31       1.0  0.43163  0.15869  0.54250  1.0000
  H   H32       1.0  0.84131  0.56836  0.95750  1.0000
  H   H33       1.0  0.65959  0.97609  0.54913  1.0000
  H   H34       1.0  0.02391  0.34041  0.95087  1.0000
  H   H35       1.0  0.34041  0.02391  0.45087  1.0000
  H   H36       1.0  0.97609  0.65959  0.04913  1.0000
  H   H37       1.0  0.91905  0.99782  0.89652  1.0000
  H   H38       1.0  0.00218  0.08095  0.60348  1.0000
  H   H39       1.0  0.08095  0.00219  0.10348  1.0000
  H   H40       1.0  0.99781  0.91905  0.39652  1.0000
  H   H41       1.0  0.11977  0.87781  0.94677  1.0000
  H   H42       1.0  0.12219  0.88024  0.55323  1.0000
  H   H43       1.0  0.88023  0.12219  0.05323  1.0000
  H   H44       1.0  0.87781  0.11976  0.44677  1.0000
  H   H45       1.0  0.20677  0.68065  0.87440  1.0000
  H   H46       1.0  0.31935  0.79323  0.62560  1.0000
  H   H47       1.0  0.79323  0.31935  0.12560  1.0000
  H   H48       1.0  0.68065  0.20677  0.37440  1.0000
  H   H49       1.0  0.09547  0.60075  0.74881  1.0000
  H   H50       1.0  0.39925  0.90453  0.75119  1.0000
  H   H51       1.0  0.90453  0.39925  0.25119  1.0000
  H   H52       1.0  0.60075  0.09547  0.24881  1.0000
  H   H53       1.0  0.89232  0.71699  0.70097  1.0000
  H   H54       1.0  0.28301  0.10768  0.79903  1.0000
  H   H55       1.0  0.10768  0.28301  0.29903  1.0000
  H   H56       1.0  0.71699  0.89232  0.20097  1.0000
  Au  Au1       1.0  0.72745  0.14395  0.67972  1.0000
  Au  Au2       1.0  0.85604  0.27255  0.82028  1.0000
  Au  Au3       1.0  0.27255  0.85604  0.32028  1.0000
  Au  Au4       1.0  0.14395  0.72745  0.17972  1.0000
  C   C1        1.0  0.66394  0.94524  0.92584  1.0000
  C   C2        1.0  0.05476  0.33606  0.57416  1.0000
  C   C3        1.0  0.33606  0.05476  0.07416  1.0000
  C   C4        1.0  0.94524  0.66394  0.42584  1.0000
  C   C5        1.0  0.52707  0.99660  0.93658  1.0000
  C   C6        1.0  0.00340  0.47293  0.56342  1.0000
  C   C7        1.0  0.47293  0.00340  0.06342  1.0000
  C   C8        1.0  0.99660  0.52707  0.43658  1.0000
  C   C9        1.0  0.67052  0.85163  0.71006  1.0000
  C   C10       1.0  0.14837  0.32948  0.78994  1.0000
  C   C11       1.0  0.32948  0.14837  0.28994  1.0000
  C   C12       1.0  0.85163  0.67052  0.21006  1.0000
  C   C13       1.0  0.64668  0.73857  0.77195  1.0000
  C   C14       1.0  0.26143  0.35332  0.72805  1.0000
  C   C15       1.0  0.35332  0.26144  0.22805  1.0000
  C   C16       1.0  0.73857  0.64668  0.27195  1.0000
  C   C17       1.0  0.59736  0.66214  0.71978  1.0000
  C   C18       1.0  0.33786  0.40264  0.78023  1.0000
  C   C19       1.0  0.40264  0.33786  0.28022  1.0000
  C   C20       1.0  0.66214  0.59736  0.21978  1.0000
  C   C21       1.0  0.57022  0.69846  0.60620  1.0000
  C   C22       1.0  0.30154  0.42978  0.89380  1.0000
  C   C23       1.0  0.42978  0.30154  0.39380  1.0000
  C   C24       1.0  0.69846  0.57022  0.10620  1.0000
  C   C25       1.0  0.59181  0.81151  0.54515  1.0000
  C   C26       1.0  0.18850  0.40819  0.95485  1.0000
  C   C27       1.0  0.40819  0.18849  0.45485  1.0000
  C   C28       1.0  0.81151  0.59181  0.04515  1.0000
  C   C29       1.0  0.64228  0.88793  0.59666  1.0000
  C   C30       1.0  0.11207  0.35771  0.90334  1.0000
  C   C31       1.0  0.35772  0.11207  0.40334  1.0000
  C   C32       1.0  0.88793  0.64229  0.09666  1.0000
  C   C33       1.0  0.89153  0.86366  0.79740  1.0000
  C   C34       1.0  0.13634  0.10847  0.70260  1.0000
  C   C35       1.0  0.10847  0.13635  0.20260  1.0000
  C   C36       1.0  0.86366  0.89152  0.29740  1.0000
  C   C37       1.0  0.95626  0.90926  0.86623  1.0000
  C   C38       1.0  0.09073  0.04374  0.63376  1.0000
  C   C39       1.0  0.04374  0.09074  0.13377  1.0000
  C   C40       1.0  0.90926  0.95626  0.36623  1.0000
  C   C41       1.0  0.06875  0.84275  0.89393  1.0000
  C   C42       1.0  0.15724  0.93125  0.60607  1.0000
  C   C43       1.0  0.93125  0.15725  0.10607  1.0000
  C   C44       1.0  0.84276  0.06875  0.39393  1.0000
  C   C45       1.0  0.11824  0.73135  0.85246  1.0000
  C   C46       1.0  0.26865  0.88176  0.64754  1.0000
  C   C47       1.0  0.88176  0.26865  0.14754  1.0000
  C   C48       1.0  0.73135  0.11824  0.35246  1.0000
  C   C49       1.0  0.05545  0.68678  0.78238  1.0000
  C   C50       1.0  0.31322  0.94455  0.71762  1.0000
  C   C51       1.0  0.94455  0.31322  0.21762  1.0000
  C   C52       1.0  0.68678  0.05545  0.28238  1.0000
  C   C53       1.0  0.94196  0.75257  0.75472  1.0000
  C   C54       1.0  0.24743  0.05805  0.74528  1.0000
  C   C55       1.0  0.05804  0.24743  0.24528  1.0000
  C   C56       1.0  0.75257  0.94195  0.25472  1.0000
  I   I1        1.0  0.69735  0.36167  0.55479  1.0000
  I   I2        1.0  0.63833  0.30266  0.94520  1.0000
  I   I3        1.0  0.30265  0.63833  0.44520  1.0000
  I   I4        1.0  0.36167  0.69735  0.05479  1.0000
