data_image0
_chemical_formula_structural       Co2H28C28N16O8
_chemical_formula_sum              "Co2 H28 C28 N16 O8"
_cell_length_a       7.74407
_cell_length_b       8.86128
_cell_length_c       12.9995
_cell_angle_alpha    90.001
_cell_angle_beta     89.9995
_cell_angle_gamma    97.7029

_space_group_name_H-M_alt    "P 1"
_space_group_IT_number       1

loop_
  _space_group_symop_operation_xyz
  'x, y, z'

loop_
  _atom_site_type_symbol
  _atom_site_label
  _atom_site_symmetry_multiplicity
  _atom_site_fract_x
  _atom_site_fract_y
  _atom_site_fract_z
  _atom_site_occupancy
  Co  Co1       1.0  1.00000  1.00000  0.00000  1.0000
  Co  Co2       1.0  0.00000  0.50000  0.50000  1.0000
  H   H1        1.0  0.65199  0.93553  0.95884  1.0000
  H   H2        1.0  0.34803  0.56447  0.45884  1.0000
  H   H3        1.0  0.34802  0.06446  0.04116  1.0000
  H   H4        1.0  0.65197  0.43553  0.54116  1.0000
  H   H5        1.0  0.66834  0.05439  0.05360  1.0000
  H   H6        1.0  0.33165  0.44559  0.55360  1.0000
  H   H7        1.0  0.33165  0.94560  0.94640  1.0000
  H   H8        1.0  0.66835  0.55441  0.44640  1.0000
  H   H9        1.0  0.52228  0.77232  0.50496  1.0000
  H   H10       1.0  0.47774  0.72769  0.00496  1.0000
  H   H11       1.0  0.47773  0.22768  0.49504  1.0000
  H   H12       1.0  0.52226  0.27231  0.99504  1.0000
  H   H13       1.0  0.26023  0.84102  0.56984  1.0000
  H   H14       1.0  0.73977  0.65896  0.06985  1.0000
  H   H15       1.0  0.73977  0.15898  0.43016  1.0000
  H   H16       1.0  0.26023  0.34104  0.93015  1.0000
  H   H17       1.0  0.23007  0.88033  0.75976  1.0000
  H   H18       1.0  0.76992  0.61967  0.25976  1.0000
  H   H19       1.0  0.76993  0.11966  0.24024  1.0000
  H   H20       1.0  0.23008  0.38033  0.74024  1.0000
  H   H21       1.0  0.75806  0.77848  0.79552  1.0000
  H   H22       1.0  0.24192  0.72151  0.29551  1.0000
  H   H23       1.0  0.24195  0.22152  0.20448  1.0000
  H   H24       1.0  0.75808  0.27849  0.70449  1.0000
  H   H25       1.0  0.77040  0.74764  0.60324  1.0000
  H   H26       1.0  0.22960  0.75235  0.10324  1.0000
  H   H27       1.0  0.22960  0.25236  0.39676  1.0000
  H   H28       1.0  0.77040  0.24765  0.89676  1.0000
  C   C1        1.0  0.00064  0.55482  0.74676  1.0000
  C   C2        1.0  0.99941  0.94518  0.24674  1.0000
  C   C3        1.0  0.99936  0.44518  0.25324  1.0000
  C   C4        1.0  0.00059  0.05482  0.75326  1.0000
  C   C5        1.0  0.99756  0.67049  0.90418  1.0000
  C   C6        1.0  0.00247  0.82950  0.40417  1.0000
  C   C7        1.0  0.00244  0.32951  0.09581  1.0000
  C   C8        1.0  0.99753  0.17051  0.59584  1.0000
  C   C9        1.0  0.36692  0.83341  0.62339  1.0000
  C   C10       1.0  0.63309  0.66659  0.12339  1.0000
  C   C11       1.0  0.63309  0.16659  0.37661  1.0000
  C   C12       1.0  0.36691  0.33340  0.87661  1.0000
  C   C13       1.0  0.35119  0.85182  0.72758  1.0000
  C   C14       1.0  0.64881  0.64818  0.22759  1.0000
  C   C15       1.0  0.64882  0.14818  0.27242  1.0000
  C   C16       1.0  0.35119  0.35182  0.77241  1.0000
  C   C17       1.0  0.49150  0.83076  0.79470  1.0000
  C   C18       1.0  0.50849  0.66924  0.29470  1.0000
  C   C19       1.0  0.50850  0.16924  0.20530  1.0000
  C   C20       1.0  0.49151  0.33076  0.70530  1.0000
  C   C21       1.0  0.64650  0.79314  0.74759  1.0000
  C   C22       1.0  0.35349  0.70686  0.24759  1.0000
  C   C23       1.0  0.35351  0.20686  0.25242  1.0000
  C   C24       1.0  0.64650  0.29314  0.75241  1.0000
  C   C25       1.0  0.65600  0.77808  0.64275  1.0000
  C   C26       1.0  0.34400  0.72193  0.14274  1.0000
  C   C27       1.0  0.34400  0.22192  0.35725  1.0000
  C   C28       1.0  0.65600  0.27807  0.85726  1.0000
  N   N1        1.0  0.98857  0.53838  0.65699  1.0000
  N   N2        1.0  0.01149  0.96163  0.15697  1.0000
  N   N3        1.0  0.01143  0.46162  0.34300  1.0000
  N   N4        1.0  0.98850  0.03837  0.84303  1.0000
  N   N5        1.0  0.97864  0.76784  0.96360  1.0000
  N   N6        1.0  0.02134  0.73216  0.46356  1.0000
  N   N7        1.0  0.02136  0.23216  0.03640  1.0000
  N   N8        1.0  0.97866  0.26785  0.53644  1.0000
  N   N9        1.0  0.01897  0.55623  0.84595  1.0000
  N   N10       1.0  0.98109  0.94378  0.34593  1.0000
  N   N11       1.0  0.98103  0.44377  0.15405  1.0000
  N   N12       1.0  0.01891  0.05623  0.65408  1.0000
  N   N13       1.0  0.51794  0.79867  0.58249  1.0000
  N   N14       1.0  0.48207  0.70133  0.08249  1.0000
  N   N15       1.0  0.48207  0.20133  0.41751  1.0000
  N   N16       1.0  0.51793  0.29866  0.91751  1.0000
  O   O1        1.0  0.73445  0.98856  0.01015  1.0000
  O   O2        1.0  0.26553  0.51142  0.51013  1.0000
  O   O3        1.0  0.26555  0.01144  0.98985  1.0000
  O   O4        1.0  0.73446  0.48858  0.48986  1.0000
  O   O5        1.0  0.47854  0.84545  0.89385  1.0000
  O   O6        1.0  0.52145  0.65458  0.39385  1.0000
  O   O7        1.0  0.52146  0.15454  0.10615  1.0000
  O   O8        1.0  0.47855  0.34543  0.60615  1.0000
