data_image0
_chemical_formula_structural       Ag4H40C48N12O16
_chemical_formula_sum              "Ag4 H40 C48 N12 O16"
_cell_length_a       8.46094
_cell_length_b       10.4252
_cell_length_c       13.8691
_cell_angle_alpha    90.0001
_cell_angle_beta     89.9998
_cell_angle_gamma    100.506

_space_group_name_H-M_alt    "P 1"
_space_group_IT_number       1

loop_
  _space_group_symop_operation_xyz
  'x, y, z'

loop_
  _atom_site_type_symbol
  _atom_site_label
  _atom_site_symmetry_multiplicity
  _atom_site_fract_x
  _atom_site_fract_y
  _atom_site_fract_z
  _atom_site_occupancy
  Ag  Ag1       1.0  0.98002  0.49973  0.76607  1.0000
  Ag  Ag2       1.0  0.51998  0.00027  0.26607  1.0000
  Ag  Ag3       1.0  0.01998  0.50027  0.23393  1.0000
  Ag  Ag4       1.0  0.48003  0.99973  0.73393  1.0000
  H   H1        1.0  0.16421  0.82550  0.48419  1.0000
  H   H2        1.0  0.33579  0.67450  0.98418  1.0000
  H   H3        1.0  0.83579  0.17450  0.51581  1.0000
  H   H4        1.0  0.66421  0.32551  0.01582  1.0000
  H   H5        1.0  0.30190  0.21762  0.58874  1.0000
  H   H6        1.0  0.19811  0.28238  0.08874  1.0000
  H   H7        1.0  0.69811  0.78238  0.41126  1.0000
  H   H8        1.0  0.80189  0.71762  0.91126  1.0000
  H   H9        1.0  0.92362  0.95389  0.73168  1.0000
  H   H10       1.0  0.57638  0.54612  0.23168  1.0000
  H   H11       1.0  0.07639  0.04612  0.26832  1.0000
  H   H12       1.0  0.42362  0.45388  0.76832  1.0000
  H   H13       1.0  0.05236  0.62736  0.53879  1.0000
  H   H14       1.0  0.44764  0.87264  0.03879  1.0000
  H   H15       1.0  0.94764  0.37264  0.46121  1.0000
  H   H16       1.0  0.55236  0.12736  0.96122  1.0000
  H   H17       1.0  0.90129  0.69122  0.47634  1.0000
  H   H18       1.0  0.59871  0.80878  0.97634  1.0000
  H   H19       1.0  0.09870  0.30878  0.52366  1.0000
  H   H20       1.0  0.40129  0.19122  0.02366  1.0000
  H   H21       1.0  0.65468  0.48839  0.43750  1.0000
  H   H22       1.0  0.84532  0.01162  0.93750  1.0000
  H   H23       1.0  0.34531  0.51162  0.56250  1.0000
  H   H24       1.0  0.15468  0.98838  0.06250  1.0000
  H   H25       1.0  0.68923  0.26728  0.69005  1.0000
  H   H26       1.0  0.81077  0.23272  0.19005  1.0000
  H   H27       1.0  0.31078  0.73272  0.30994  1.0000
  H   H28       1.0  0.18923  0.76728  0.80995  1.0000
  H   H29       1.0  0.83737  0.75025  0.66109  1.0000
  H   H30       1.0  0.66263  0.74975  0.16109  1.0000
  H   H31       1.0  0.16263  0.24975  0.33891  1.0000
  H   H32       1.0  0.33737  0.25025  0.83891  1.0000
  H   H33       1.0  0.55140  0.27428  0.52509  1.0000
  H   H34       1.0  0.94859  0.22572  0.02509  1.0000
  H   H35       1.0  0.44860  0.72572  0.47491  1.0000
  H   H36       1.0  0.05140  0.77428  0.97491  1.0000
  H   H37       1.0  0.00072  0.25076  0.85006  1.0000
  H   H38       1.0  0.49927  0.24924  0.35006  1.0000
  H   H39       1.0  0.99928  0.74924  0.14994  1.0000
  H   H40       1.0  0.50073  0.75076  0.64994  1.0000
  C   C1        1.0  0.03464  0.87152  0.61153  1.0000
  C   C2        1.0  0.46536  0.62848  0.11153  1.0000
  C   C3        1.0  0.96537  0.12849  0.38847  1.0000
  C   C4        1.0  0.53464  0.37152  0.88847  1.0000
  C   C5        1.0  0.14965  0.89873  0.53750  1.0000
  C   C6        1.0  0.35035  0.60127  0.03750  1.0000
  C   C7        1.0  0.85035  0.10127  0.46250  1.0000
  C   C8        1.0  0.64965  0.39873  0.96250  1.0000
  C   C9        1.0  0.24562  0.02262  0.52882  1.0000
  C   C10       1.0  0.25438  0.47737  0.02882  1.0000
  C   C11       1.0  0.75438  0.97737  0.47118  1.0000
  C   C12       1.0  0.74562  0.52263  0.97118  1.0000
  C   C13       1.0  0.22884  0.12075  0.59426  1.0000
  C   C14       1.0  0.27116  0.37925  0.09426  1.0000
  C   C15       1.0  0.77116  0.87926  0.40574  1.0000
  C   C16       1.0  0.72884  0.62074  0.90574  1.0000
  C   C17       1.0  0.11142  0.09528  0.66660  1.0000
  C   C18       1.0  0.38857  0.40472  0.16659  1.0000
  C   C19       1.0  0.88858  0.90472  0.33340  1.0000
  C   C20       1.0  0.61142  0.59528  0.83340  1.0000
  C   C21       1.0  0.01539  0.97237  0.67587  1.0000
  C   C22       1.0  0.48461  0.52763  0.17586  1.0000
  C   C23       1.0  0.98462  0.02763  0.32413  1.0000
  C   C24       1.0  0.51538  0.47237  0.82413  1.0000
  C   C25       1.0  0.93205  0.65283  0.54672  1.0000
  C   C26       1.0  0.56795  0.84717  0.04672  1.0000
  C   C27       1.0  0.06795  0.34717  0.45328  1.0000
  C   C28       1.0  0.43205  0.15283  0.95328  1.0000
  C   C29       1.0  0.81495  0.53105  0.56729  1.0000
  C   C30       1.0  0.68505  0.96895  0.06729  1.0000
  C   C31       1.0  0.18505  0.46895  0.43271  1.0000
  C   C32       1.0  0.31495  0.03105  0.93271  1.0000
  C   C33       1.0  0.69596  0.46528  0.50833  1.0000
  C   C34       1.0  0.80405  0.03472  0.00833  1.0000
  C   C35       1.0  0.30404  0.53472  0.49167  1.0000
  C   C36       1.0  0.19595  0.96528  0.99167  1.0000
  C   C37       1.0  0.71276  0.34757  0.63936  1.0000
  C   C38       1.0  0.78724  0.15243  0.13936  1.0000
  C   C39       1.0  0.28724  0.65243  0.36064  1.0000
  C   C40       1.0  0.21276  0.84757  0.86064  1.0000
  C   C41       1.0  0.36138  0.05163  0.44675  1.0000
  C   C42       1.0  0.13862  0.44838  0.94676  1.0000
  C   C43       1.0  0.63863  0.94837  0.55325  1.0000
  C   C44       1.0  0.86138  0.55163  0.05324  1.0000
  C   C45       1.0  0.09621  0.20323  0.73322  1.0000
  C   C46       1.0  0.40378  0.29677  0.23322  1.0000
  C   C47       1.0  0.90379  0.79677  0.26678  1.0000
  C   C48       1.0  0.59621  0.70323  0.76678  1.0000
  N   N1        1.0  0.94003  0.74966  0.62299  1.0000
  N   N2        1.0  0.55997  0.75034  0.12299  1.0000
  N   N3        1.0  0.05997  0.25034  0.37701  1.0000
  N   N4        1.0  0.44003  0.24966  0.87701  1.0000
  N   N5        1.0  0.82380  0.45582  0.64903  1.0000
  N   N6        1.0  0.67620  0.04418  0.14904  1.0000
  N   N7        1.0  0.17620  0.54418  0.35096  1.0000
  N   N8        1.0  0.32380  0.95582  0.85097  1.0000
  N   N9        1.0  0.63362  0.35041  0.55503  1.0000
  N   N10       1.0  0.86638  0.14959  0.05502  1.0000
  N   N11       1.0  0.36638  0.64959  0.44498  1.0000
  N   N12       1.0  0.13362  0.85041  0.94498  1.0000
  O   O1        1.0  0.36454  0.96039  0.38573  1.0000
  O   O2        1.0  0.13547  0.53961  0.88573  1.0000
  O   O3        1.0  0.63547  0.03961  0.61427  1.0000
  O   O4        1.0  0.86453  0.46039  0.11427  1.0000
  O   O5        1.0  0.44905  0.16499  0.44176  1.0000
  O   O6        1.0  0.05095  0.33502  0.94177  1.0000
  O   O7        1.0  0.55096  0.83501  0.55823  1.0000
  O   O8        1.0  0.94905  0.66499  0.05823  1.0000
  O   O9        1.0  0.18612  0.31147  0.72808  1.0000
  O   O10       1.0  0.31388  0.18853  0.22808  1.0000
  O   O11       1.0  0.81388  0.68853  0.27192  1.0000
  O   O12       1.0  0.68612  0.81147  0.77192  1.0000
  O   O13       1.0  0.98233  0.17571  0.80065  1.0000
  O   O14       1.0  0.51766  0.32429  0.30065  1.0000
  O   O15       1.0  0.01767  0.82429  0.19935  1.0000
  O   O16       1.0  0.48234  0.67571  0.69935  1.0000
