data_image0
_chemical_formula_structural       Cu8H32C40Br8N8
_chemical_formula_sum              "Cu8 H32 C40 Br8 N8"
_cell_length_a       3.89948
_cell_length_b       15.3495
_cell_length_c       18.9251
_cell_angle_alpha    90.0003
_cell_angle_beta     86.9056
_cell_angle_gamma    90.0005

_space_group_name_H-M_alt    "P 1"
_space_group_IT_number       1

loop_
  _space_group_symop_operation_xyz
  'x, y, z'

loop_
  _atom_site_type_symbol
  _atom_site_label
  _atom_site_symmetry_multiplicity
  _atom_site_fract_x
  _atom_site_fract_y
  _atom_site_fract_z
  _atom_site_occupancy
  Cu  Cu1       1.0  0.96647  0.35125  0.30261  1.0000
  Cu  Cu2       1.0  0.53355  0.85125  0.19739  1.0000
  Cu  Cu3       1.0  0.03353  0.64875  0.69739  1.0000
  Cu  Cu4       1.0  0.46646  0.14875  0.80261  1.0000
  Cu  Cu5       1.0  0.68762  0.26260  0.40757  1.0000
  Cu  Cu6       1.0  0.81240  0.76261  0.09243  1.0000
  Cu  Cu7       1.0  0.31238  0.73740  0.59243  1.0000
  Cu  Cu8       1.0  0.18762  0.23739  0.90757  1.0000
  H   H1        1.0  0.10244  0.43158  0.44633  1.0000
  H   H2        1.0  0.39758  0.93158  0.05367  1.0000
  H   H3        1.0  0.89755  0.56842  0.55367  1.0000
  H   H4        1.0  0.60246  0.06843  0.94633  1.0000
  H   H5        1.0  0.36776  0.57225  0.48492  1.0000
  H   H6        1.0  0.13225  0.07225  0.01508  1.0000
  H   H7        1.0  0.63223  0.42775  0.51509  1.0000
  H   H8        1.0  0.86780  0.92776  0.98492  1.0000
  H   H9        1.0  0.59543  0.67597  0.39258  1.0000
  H   H10       1.0  0.90459  0.17596  0.10742  1.0000
  H   H11       1.0  0.40456  0.32403  0.60742  1.0000
  H   H12       1.0  0.09545  0.82404  0.89258  1.0000
  H   H13       1.0  0.54005  0.63852  0.26561  1.0000
  H   H14       1.0  0.95997  0.13852  0.23439  1.0000
  H   H15       1.0  0.45994  0.36148  0.73440  1.0000
  H   H16       1.0  0.04004  0.86148  0.76561  1.0000
  H   H17       1.0  0.46570  0.60508  0.16341  1.0000
  H   H18       1.0  0.03431  0.10508  0.33659  1.0000
  H   H19       1.0  0.53426  0.39492  0.83659  1.0000
  H   H20       1.0  0.96572  0.89492  0.66341  1.0000
  H   H21       1.0  0.37421  0.55196  0.04316  1.0000
  H   H22       1.0  0.12578  0.05195  0.45685  1.0000
  H   H23       1.0  0.62572  0.44805  0.95685  1.0000
  H   H24       1.0  0.87427  0.94803  0.54315  1.0000
  H   H25       1.0  0.08769  0.40451  0.02791  1.0000
  H   H26       1.0  0.41228  0.90450  0.47208  1.0000
  H   H27       1.0  0.91224  0.59550  0.97208  1.0000
  H   H28       1.0  0.58776  0.09549  0.52791  1.0000
  H   H29       1.0  0.89009  0.32285  0.13649  1.0000
  H   H30       1.0  0.60989  0.82285  0.36350  1.0000
  H   H31       1.0  0.10986  0.67715  0.86351  1.0000
  H   H32       1.0  0.39013  0.17714  0.63649  1.0000
  C   C1        1.0  0.19413  0.48054  0.40807  1.0000
  C   C2        1.0  0.30589  0.98054  0.09193  1.0000
  C   C3        1.0  0.80587  0.51946  0.59193  1.0000
  C   C4        1.0  0.69414  0.01946  0.90807  1.0000
  C   C5        1.0  0.34582  0.55769  0.42908  1.0000
  C   C6        1.0  0.15419  0.05770  0.07092  1.0000
  C   C7        1.0  0.65418  0.44231  0.57093  1.0000
  C   C8        1.0  0.84582  0.94231  0.92908  1.0000
  C   C9        1.0  0.47033  0.61586  0.37737  1.0000
  C   C10       1.0  0.02969  0.11586  0.12263  1.0000
  C   C11       1.0  0.52966  0.38415  0.62263  1.0000
  C   C12       1.0  0.97032  0.88414  0.87737  1.0000
  C   C13       1.0  0.43765  0.59474  0.30667  1.0000
  C   C14       1.0  0.06237  0.09474  0.19333  1.0000
  C   C15       1.0  0.56235  0.40526  0.69333  1.0000
  C   C16       1.0  0.93764  0.90526  0.80667  1.0000
  C   C17       1.0  0.27618  0.51703  0.28888  1.0000
  C   C18       1.0  0.22384  0.01703  0.21112  1.0000
  C   C19       1.0  0.72380  0.48297  0.71112  1.0000
  C   C20       1.0  0.77618  0.98297  0.78887  1.0000
  C   C21       1.0  0.22995  0.49143  0.21463  1.0000
  C   C22       1.0  0.27005  0.99143  0.28538  1.0000
  C   C23       1.0  0.77003  0.50857  0.78538  1.0000
  C   C24       1.0  0.72998  0.00857  0.71462  1.0000
  C   C25       1.0  0.34065  0.54249  0.15647  1.0000
  C   C26       1.0  0.15935  0.04248  0.34353  1.0000
  C   C27       1.0  0.65930  0.45752  0.84353  1.0000
  C   C28       1.0  0.84069  0.95751  0.65647  1.0000
  C   C29       1.0  0.28991  0.51210  0.08849  1.0000
  C   C30       1.0  0.21007  0.01209  0.41151  1.0000
  C   C31       1.0  0.71000  0.48791  0.91151  1.0000
  C   C32       1.0  0.78998  0.98790  0.58849  1.0000
  C   C33       1.0  0.12996  0.43178  0.07988  1.0000
  C   C34       1.0  0.37000  0.93177  0.42012  1.0000
  C   C35       1.0  0.86996  0.56823  0.92012  1.0000
  C   C36       1.0  0.63003  0.06822  0.57988  1.0000
  C   C37       1.0  0.02283  0.38521  0.14031  1.0000
  C   C38       1.0  0.47714  0.88520  0.35969  1.0000
  C   C39       1.0  0.97711  0.61480  0.85969  1.0000
  C   C40       1.0  0.52288  0.11479  0.64031  1.0000
  Br  Br1       1.0  0.51653  0.25032  0.28929  1.0000
  Br  Br2       1.0  0.98347  0.75033  0.21071  1.0000
  Br  Br3       1.0  0.48346  0.74967  0.71071  1.0000
  Br  Br4       1.0  0.01654  0.24967  0.78929  1.0000
  Br  Br5       1.0  0.14758  0.24995  0.48154  1.0000
  Br  Br6       1.0  0.35242  0.74996  0.01847  1.0000
  Br  Br7       1.0  0.85241  0.75004  0.51847  1.0000
  Br  Br8       1.0  0.64758  0.25004  0.98153  1.0000
  N   N1        1.0  0.15496  0.46052  0.33970  1.0000
  N   N2        1.0  0.34505  0.96052  0.16029  1.0000
  N   N3        1.0  0.84503  0.53948  0.66030  1.0000
  N   N4        1.0  0.65497  0.03948  0.83970  1.0000
  N   N5        1.0  0.07169  0.41395  0.20580  1.0000
  N   N6        1.0  0.42832  0.91394  0.29419  1.0000
  N   N7        1.0  0.92829  0.58606  0.79420  1.0000
  N   N8        1.0  0.57171  0.08605  0.70580  1.0000
