data_image0
_chemical_formula_structural       Cu4H24C36O20
_chemical_formula_sum              "Cu4 H24 C36 O20"
_cell_length_a       5.29131
_cell_length_b       9.88728
_cell_length_c       16.4356
_cell_angle_alpha    99.0085
_cell_angle_beta     89.9997
_cell_angle_gamma    90.0012

_space_group_name_H-M_alt    "P 1"
_space_group_IT_number       1

loop_
  _space_group_symop_operation_xyz
  'x, y, z'

loop_
  _atom_site_type_symbol
  _atom_site_label
  _atom_site_symmetry_multiplicity
  _atom_site_fract_x
  _atom_site_fract_y
  _atom_site_fract_z
  _atom_site_occupancy
  Cu  Cu1       1.0  0.26227  0.06184  0.70851  1.0000
  Cu  Cu2       1.0  0.76230  0.93816  0.29149  1.0000
  Cu  Cu3       1.0  0.71428  0.03702  0.78004  1.0000
  Cu  Cu4       1.0  0.21432  0.96298  0.21996  1.0000
  H   H1        1.0  0.09167  0.00897  0.98609  1.0000
  H   H2        1.0  0.59168  0.99102  0.01392  1.0000
  H   H3        1.0  0.94763  0.87894  0.91460  1.0000
  H   H4        1.0  0.44765  0.12105  0.08540  1.0000
  H   H5        1.0  0.64327  0.36472  0.64950  1.0000
  H   H6        1.0  0.14331  0.63527  0.35050  1.0000
  H   H7        1.0  0.65179  0.67963  0.00380  1.0000
  H   H8        1.0  0.15180  0.32038  0.99619  1.0000
  H   H9        1.0  0.63458  0.61037  0.70551  1.0000
  H   H10       1.0  0.13465  0.38962  0.29448  1.0000
  H   H11       1.0  0.34983  0.66730  0.59135  1.0000
  H   H12       1.0  0.84987  0.33271  0.40866  1.0000
  H   H13       1.0  0.35894  0.41938  0.53211  1.0000
  H   H14       1.0  0.85896  0.58063  0.46789  1.0000
  H   H15       1.0  0.85302  0.06990  0.49608  1.0000
  H   H16       1.0  0.35302  0.93009  0.50392  1.0000
  H   H17       1.0  0.65117  0.21502  0.51525  1.0000
  H   H18       1.0  0.15119  0.78497  0.48474  1.0000
  H   H19       1.0  0.09979  0.46101  0.77590  1.0000
  H   H20       1.0  0.59980  0.53899  0.22410  1.0000
  H   H21       1.0  0.00656  0.69540  0.84397  1.0000
  H   H22       1.0  0.50656  0.30460  0.15603  1.0000
  H   H23       1.0  0.74631  0.44313  0.93260  1.0000
  H   H24       1.0  0.24631  0.55687  0.06739  1.0000
  C   C1        1.0  0.13054  0.92212  0.93736  1.0000
  C   C2        1.0  0.63055  0.07788  0.06265  1.0000
  C   C3        1.0  0.79872  0.42931  0.63552  1.0000
  C   C4        1.0  0.29877  0.57068  0.36448  1.0000
  C   C5        1.0  0.53284  0.63048  0.95353  1.0000
  C   C6        1.0  0.03284  0.36952  0.04646  1.0000
  C   C7        1.0  0.79283  0.56849  0.66723  1.0000
  C   C8        1.0  0.29287  0.43151  0.33276  1.0000
  C   C9        1.0  0.42772  0.43663  0.84985  1.0000
  C   C10       1.0  0.92771  0.56338  0.15014  1.0000
  C   C11       1.0  0.98917  0.65559  0.65108  1.0000
  C   C12       1.0  0.48923  0.34441  0.34893  1.0000
  C   C13       1.0  0.19543  0.60021  0.60309  1.0000
  C   C14       1.0  0.69546  0.39980  0.39692  1.0000
  C   C15       1.0  0.20271  0.46206  0.57100  1.0000
  C   C16       1.0  0.70276  0.53795  0.42901  1.0000
  C   C17       1.0  0.98323  0.80434  0.68445  1.0000
  C   C18       1.0  0.48328  0.19566  0.31555  1.0000
  C   C19       1.0  0.00407  0.37596  0.58675  1.0000
  C   C20       1.0  0.50409  0.62405  0.41325  1.0000
  C   C21       1.0  0.80533  0.16054  0.54123  1.0000
  C   C22       1.0  0.30534  0.83945  0.45877  1.0000
  C   C23       1.0  0.32398  0.70208  0.92909  1.0000
  C   C24       1.0  0.82400  0.29793  0.07091  1.0000
  C   C25       1.0  0.22155  0.50978  0.82532  1.0000
  C   C26       1.0  0.72157  0.49022  0.17467  1.0000
  C   C27       1.0  0.70329  0.11162  0.61823  1.0000
  C   C28       1.0  0.20331  0.88838  0.38177  1.0000
  C   C29       1.0  0.16956  0.64212  0.86396  1.0000
  C   C30       1.0  0.66957  0.35789  0.13604  1.0000
  C   C31       1.0  0.58416  0.49873  0.91407  1.0000
  C   C32       1.0  0.08417  0.50127  0.08592  1.0000
  C   C33       1.0  0.26956  0.97641  0.86769  1.0000
  C   C34       1.0  0.76959  0.02358  0.13232  1.0000
  C   C35       1.0  0.47060  0.29414  0.80869  1.0000
  C   C36       1.0  0.97063  0.70586  0.19130  1.0000
  O   O1        1.0  0.02795  0.24187  0.55120  1.0000
  O   O2        1.0  0.52798  0.75813  0.44880  1.0000
  O   O3        1.0  0.28067  0.82877  0.97396  1.0000
  O   O4        1.0  0.78068  0.17122  0.02604  1.0000
  O   O5        1.0  0.17138  0.87482  0.66548  1.0000
  O   O6        1.0  0.67142  0.12518  0.33453  1.0000
  O   O7        1.0  0.47858  0.06686  0.61044  1.0000
  O   O8        1.0  0.97861  0.93313  0.38956  1.0000
  O   O9        1.0  0.33320  0.25306  0.74531  1.0000
  O   O10       1.0  0.83322  0.74695  0.25468  1.0000
  O   O11       1.0  0.63563  0.22105  0.83843  1.0000
  O   O12       1.0  0.13567  0.77895  0.16157  1.0000
  O   O13       1.0  0.50461  0.95483  0.86106  1.0000
  O   O14       1.0  0.00463  0.04517  0.13894  1.0000
  O   O15       1.0  0.79319  0.84861  0.72903  1.0000
  O   O16       1.0  0.29325  0.15139  0.27097  1.0000
  O   O17       1.0  0.84159  0.11850  0.68224  1.0000
  O   O18       1.0  0.34162  0.88149  0.31776  1.0000
  O   O19       1.0  0.13428  0.04181  0.82238  1.0000
  O   O20       1.0  0.63430  0.95818  0.17762  1.0000
