data_image0
_chemical_formula_structural       Cd2H22C40N10O8
_chemical_formula_sum              "Cd2 H22 C40 N10 O8"
_cell_length_a       9.68124
_cell_length_b       10.0706
_cell_length_c       11.3802
_cell_angle_alpha    109.53
_cell_angle_beta     100.091
_cell_angle_gamma    108.65

_space_group_name_H-M_alt    "P 1"
_space_group_IT_number       1

loop_
  _space_group_symop_operation_xyz
  'x, y, z'

loop_
  _atom_site_type_symbol
  _atom_site_label
  _atom_site_symmetry_multiplicity
  _atom_site_fract_x
  _atom_site_fract_y
  _atom_site_fract_z
  _atom_site_occupancy
  Cd  Cd1       1.0  0.83206  0.69687  0.60813  1.0000
  Cd  Cd2       1.0  0.16795  0.30313  0.39187  1.0000
  H   H1        1.0  0.03428  0.43791  0.19225  1.0000
  H   H2        1.0  0.96572  0.56209  0.80775  1.0000
  H   H3        1.0  0.10065  0.87079  0.51611  1.0000
  H   H4        1.0  0.89935  0.12921  0.48389  1.0000
  H   H5        1.0  0.29504  0.13418  0.57669  1.0000
  H   H6        1.0  0.70496  0.86582  0.42330  1.0000
  H   H7        1.0  0.31062  0.35608  0.77252  1.0000
  H   H8        1.0  0.68937  0.64392  0.22748  1.0000
  H   H9        1.0  0.81770  0.18191  0.12111  1.0000
  H   H10       1.0  0.18230  0.81809  0.87889  1.0000
  H   H11       1.0  0.63196  0.90519  0.03273  1.0000
  H   H12       1.0  0.36804  0.09481  0.96727  1.0000
  H   H13       1.0  0.64123  0.71084  0.83012  1.0000
  H   H14       1.0  0.35877  0.28916  0.16988  1.0000
  H   H15       1.0  0.11727  0.69056  0.31387  1.0000
  H   H16       1.0  0.88273  0.30943  0.68613  1.0000
  H   H17       1.0  0.45642  0.12574  0.43448  1.0000
  H   H18       1.0  0.54358  0.87426  0.56551  1.0000
  H   H19       1.0  0.56784  0.03192  0.25711  1.0000
  H   H20       1.0  0.43215  0.96808  0.74289  1.0000
  H   H21       1.0  0.44057  0.74840  0.09943  1.0000
  H   H22       1.0  0.55943  0.25160  0.90057  1.0000
  C   C1        1.0  0.11117  0.96832  0.60170  1.0000
  C   C2        1.0  0.88883  0.03168  0.39829  1.0000
  C   C3        1.0  0.22035  0.11686  0.63591  1.0000
  C   C4        1.0  0.77965  0.88314  0.36409  1.0000
  C   C5        1.0  0.22892  0.23846  0.74371  1.0000
  C   C6        1.0  0.77108  0.76154  0.25628  1.0000
  C   C7        1.0  0.12966  0.20925  0.81751  1.0000
  C   C8        1.0  0.87034  0.79075  0.18249  1.0000
  C   C9        1.0  0.13395  0.32535  0.93397  1.0000
  C   C10       1.0  0.86605  0.67465  0.06603  1.0000
  C   C11       1.0  0.03426  0.28951  0.00546  1.0000
  C   C12       1.0  0.96574  0.71049  0.99454  1.0000
  C   C13       1.0  0.81629  0.09474  0.03204  1.0000
  C   C14       1.0  0.18371  0.90527  0.96796  1.0000
  C   C15       1.0  0.92152  0.13774  0.96610  1.0000
  C   C16       1.0  0.07848  0.86226  0.03390  1.0000
  C   C17       1.0  0.71408  0.94204  0.98365  1.0000
  C   C18       1.0  0.28593  0.05796  0.01635  1.0000
  C   C19       1.0  0.71808  0.83281  0.87031  1.0000
  C   C20       1.0  0.28192  0.16719  0.12968  1.0000
  C   C21       1.0  0.91657  0.01955  0.85023  1.0000
  C   C22       1.0  0.08343  0.98045  0.14977  1.0000
  C   C23       1.0  0.02152  0.05561  0.77668  1.0000
  C   C24       1.0  0.97847  0.94439  0.22332  1.0000
  C   C25       1.0  0.19410  0.53634  0.10196  1.0000
  C   C26       1.0  0.80590  0.46366  0.89804  1.0000
  C   C27       1.0  0.26964  0.69797  0.19440  1.0000
  C   C28       1.0  0.73036  0.30203  0.80560  1.0000
  C   C29       1.0  0.21756  0.76219  0.29807  1.0000
  C   C30       1.0  0.78244  0.23781  0.70194  1.0000
  C   C31       1.0  0.40617  0.00448  0.36510  1.0000
  C   C32       1.0  0.59383  0.99552  0.63490  1.0000
  C   C33       1.0  0.46715  0.95187  0.26538  1.0000
  C   C34       1.0  0.53285  0.04813  0.73461  1.0000
  C   C35       1.0  0.39820  0.79678  0.17896  1.0000
  C   C36       1.0  0.60180  0.20322  0.82104  1.0000
  C   C37       1.0  0.51114  0.45366  0.54209  1.0000
  C   C38       1.0  0.48886  0.54633  0.45791  1.0000
  C   C39       1.0  0.97363  0.50281  0.43170  1.0000
  C   C40       1.0  0.02637  0.49718  0.56831  1.0000
  N   N1        1.0  0.01502  0.93919  0.66956  1.0000
  N   N2        1.0  0.98497  0.06081  0.33044  1.0000
  N   N3        1.0  0.81632  0.87116  0.80648  1.0000
  N   N4        1.0  0.18368  0.12884  0.19351  1.0000
  N   N5        1.0  0.23165  0.47821  0.99428  1.0000
  N   N6        1.0  0.76835  0.52179  0.00572  1.0000
  N   N7        1.0  0.07410  0.42596  0.11197  1.0000
  N   N8        1.0  0.92590  0.57404  0.88803  1.0000
  N   N9        1.0  0.28331  0.91147  0.38137  1.0000
  N   N10       1.0  0.71669  0.08854  0.61863  1.0000
  O   O1        1.0  0.64505  0.49413  0.61590  1.0000
  O   O2        1.0  0.35496  0.50587  0.38411  1.0000
  O   O3        1.0  0.39339  0.34288  0.53129  1.0000
  O   O4        1.0  0.60662  0.65712  0.46871  1.0000
  O   O5        1.0  0.90644  0.58930  0.42361  1.0000
  O   O6        1.0  0.09356  0.41070  0.57639  1.0000
  O   O7        1.0  0.00342  0.41840  0.33643  1.0000
  O   O8        1.0  0.99658  0.58160  0.66358  1.0000
