data_image0
_chemical_formula_structural       Gd4H32C36O32
_chemical_formula_sum              "Gd4 H32 C36 O32"
_cell_length_a       5.84382
_cell_length_b       10.2301
_cell_length_c       19.5054
_cell_angle_alpha    81.2973
_cell_angle_beta     81.3906
_cell_angle_gamma    73.4014

_space_group_name_H-M_alt    "P 1"
_space_group_IT_number       1

loop_
  _space_group_symop_operation_xyz
  'x, y, z'

loop_
  _atom_site_type_symbol
  _atom_site_label
  _atom_site_symmetry_multiplicity
  _atom_site_fract_x
  _atom_site_fract_y
  _atom_site_fract_z
  _atom_site_occupancy
  Gd  Gd1       1.0  0.95933  0.69349  0.03115  1.0000
  Gd  Gd2       1.0  0.68399  0.80657  0.46880  1.0000
  Gd  Gd3       1.0  0.04067  0.30651  0.96885  1.0000
  Gd  Gd4       1.0  0.31601  0.19343  0.53120  1.0000
  H   H1        1.0  0.16101  0.58084  0.27277  1.0000
  H   H2        1.0  0.01490  0.91921  0.22707  1.0000
  H   H3        1.0  0.83900  0.41915  0.72723  1.0000
  H   H4        1.0  0.98508  0.08080  0.77293  1.0000
  H   H5        1.0  0.43094  0.47357  0.36680  1.0000
  H   H6        1.0  0.27206  0.02618  0.13312  1.0000
  H   H7        1.0  0.56908  0.52642  0.63320  1.0000
  H   H8        1.0  0.72795  0.97382  0.86688  1.0000
  H   H9        1.0  0.85549  0.34643  0.33435  1.0000
  H   H10       1.0  0.53699  0.15327  0.16564  1.0000
  H   H11       1.0  0.14453  0.65357  0.66565  1.0000
  H   H12       1.0  0.46301  0.84672  0.83436  1.0000
  H   H13       1.0  0.00132  0.30984  0.21102  1.0000
  H   H14       1.0  0.52227  0.19016  0.28893  1.0000
  H   H15       1.0  0.99870  0.69016  0.78898  1.0000
  H   H16       1.0  0.47772  0.80985  0.71107  1.0000
  H   H17       1.0  0.50159  0.75998  0.96000  1.0000
  H   H18       1.0  0.22152  0.74006  0.54003  1.0000
  H   H19       1.0  0.49841  0.24002  0.04000  1.0000
  H   H20       1.0  0.77847  0.25994  0.45997  1.0000
  H   H21       1.0  0.65101  0.60962  0.94899  1.0000
  H   H22       1.0  0.20999  0.89034  0.55107  1.0000
  H   H23       1.0  0.34899  0.39038  0.05102  1.0000
  H   H24       1.0  0.79001  0.10966  0.44893  1.0000
  H   H25       1.0  0.58250  0.79497  0.15237  1.0000
  H   H26       1.0  0.52955  0.70507  0.34768  1.0000
  H   H27       1.0  0.41750  0.20502  0.84764  1.0000
  H   H28       1.0  0.47046  0.29493  0.65231  1.0000
  H   H29       1.0  0.43780  0.81268  0.08627  1.0000
  H   H30       1.0  0.33646  0.68744  0.41378  1.0000
  H   H31       1.0  0.56219  0.18731  0.91374  1.0000
  H   H32       1.0  0.66355  0.31256  0.58622  1.0000
  C   C1        1.0  0.66456  0.42325  0.17262  1.0000
  C   C2        1.0  0.26018  0.07697  0.32732  1.0000
  C   C3        1.0  0.33544  0.57675  0.82738  1.0000
  C   C4        1.0  0.73981  0.92303  0.67268  1.0000
  C   C5        1.0  0.42769  0.50212  0.18995  1.0000
  C   C6        1.0  0.11954  0.99810  0.30994  1.0000
  C   C7        1.0  0.57232  0.49788  0.81005  1.0000
  C   C8        1.0  0.88044  0.00191  0.69006  1.0000
  C   C9        1.0  0.34579  0.52101  0.26014  1.0000
  C   C10       1.0  0.12709  0.97906  0.23976  1.0000
  C   C11       1.0  0.65421  0.47899  0.73986  1.0000
  C   C12       1.0  0.87290  0.02095  0.76024  1.0000
  C   C13       1.0  0.49704  0.46400  0.31208  1.0000
  C   C14       1.0  0.27358  0.03584  0.18783  1.0000
  C   C15       1.0  0.50298  0.53600  0.68792  1.0000
  C   C16       1.0  0.72642  0.96416  0.81217  1.0000
  C   C17       1.0  0.73465  0.39002  0.29424  1.0000
  C   C18       1.0  0.41934  0.10981  0.20570  1.0000
  C   C19       1.0  0.26537  0.60998  0.70575  1.0000
  C   C20       1.0  0.58066  0.89019  0.79430  1.0000
  C   C21       1.0  0.81723  0.36921  0.22488  1.0000
  C   C22       1.0  0.41132  0.13083  0.27506  1.0000
  C   C23       1.0  0.18278  0.63079  0.77512  1.0000
  C   C24       1.0  0.58867  0.86918  0.72494  1.0000
  C   C25       1.0  0.77266  0.39215  0.10026  1.0000
  C   C26       1.0  0.26469  0.10806  0.39969  1.0000
  C   C27       1.0  0.22734  0.60785  0.89973  1.0000
  C   C28       1.0  0.73532  0.89194  0.60031  1.0000
  C   C29       1.0  0.26266  0.56768  0.13580  1.0000
  C   C30       1.0  0.96572  0.93262  0.36405  1.0000
  C   C31       1.0  0.73734  0.43231  0.86420  1.0000
  C   C32       1.0  0.03426  0.06738  0.63595  1.0000
  C   C33       1.0  0.88393  0.01906  0.98204  1.0000
  C   C34       1.0  0.88505  0.48094  0.51800  1.0000
  C   C35       1.0  0.11605  0.98093  0.01797  1.0000
  C   C36       1.0  0.11493  0.51908  0.48200  1.0000
  O   O1        1.0  0.78549  0.27689  0.08095  1.0000
  O   O2        1.0  0.14280  0.22324  0.41906  1.0000
  O   O3        1.0  0.21451  0.72311  0.91904  1.0000
  O   O4        1.0  0.85719  0.77678  0.58094  1.0000
  O   O5        1.0  0.05813  0.64902  0.15160  1.0000
  O   O6        1.0  0.85817  0.85136  0.34825  1.0000
  O   O7        1.0  0.94186  0.35096  0.84840  1.0000
  O   O8        1.0  0.14184  0.14865  0.65175  1.0000
  O   O9        1.0  0.33108  0.54268  0.07168  1.0000
  O   O10       1.0  0.94507  0.95758  0.42819  1.0000
  O   O11       1.0  0.66892  0.45731  0.92832  1.0000
  O   O12       1.0  0.05492  0.04242  0.57181  1.0000
  O   O13       1.0  0.78171  0.92672  0.98230  1.0000
  O   O14       1.0  0.69073  0.57326  0.51774  1.0000
  O   O15       1.0  0.21828  0.07329  0.01770  1.0000
  O   O16       1.0  0.30930  0.42674  0.48225  1.0000
  O   O17       1.0  0.81504  0.14360  0.95445  1.0000
  O   O18       1.0  0.91333  0.35640  0.54562  1.0000
  O   O19       1.0  0.18494  0.85641  0.04555  1.0000
  O   O20       1.0  0.08669  0.64359  0.45438  1.0000
  O   O21       1.0  0.66448  0.69984  0.95923  1.0000
  O   O22       1.0  0.32370  0.80017  0.54064  1.0000
  O   O23       1.0  0.33552  0.30015  0.04077  1.0000
  O   O24       1.0  0.67630  0.19983  0.45936  1.0000
  O   O25       1.0  0.87429  0.47580  0.06043  1.0000
  O   O26       1.0  0.41033  0.02445  0.43951  1.0000
  O   O27       1.0  0.12571  0.52420  0.93957  1.0000
  O   O28       1.0  0.58966  0.97555  0.56049  1.0000
  O   O29       1.0  0.59665  0.77237  0.10506  1.0000
  O   O30       1.0  0.47387  0.72766  0.39499  1.0000
  O   O31       1.0  0.40334  0.22763  0.89494  1.0000
  O   O32       1.0  0.52614  0.27234  0.60501  1.0000
