data_image0
_chemical_formula_structural       K2Tb2H6C14O18
_chemical_formula_sum              "K2 Tb2 H6 C14 O18"
_cell_length_a       6.70552
_cell_length_b       7.54926
_cell_length_c       10.982
_cell_angle_alpha    99.4757
_cell_angle_beta     103.723
_cell_angle_gamma    107.611

_space_group_name_H-M_alt    "P 1"
_space_group_IT_number       1

loop_
  _space_group_symop_operation_xyz
  'x, y, z'

loop_
  _atom_site_type_symbol
  _atom_site_label
  _atom_site_symmetry_multiplicity
  _atom_site_fract_x
  _atom_site_fract_y
  _atom_site_fract_z
  _atom_site_occupancy
  K   K1        1.0  0.63113  0.37298  0.89648  1.0000
  K   K2        1.0  0.36892  0.62703  0.10351  1.0000
  Tb  Tb1       1.0  0.36209  0.15203  0.25687  1.0000
  Tb  Tb2       1.0  0.63791  0.84796  0.74313  1.0000
  H   H1        1.0  0.93687  0.78251  0.43474  1.0000
  H   H2        1.0  0.06313  0.21749  0.56526  1.0000
  H   H3        1.0  0.86631  0.23742  0.72597  1.0000
  H   H4        1.0  0.13369  0.76258  0.27402  1.0000
  H   H5        1.0  0.63633  0.17970  0.61006  1.0000
  H   H6        1.0  0.36366  0.82030  0.38994  1.0000
  C   C1        1.0  0.89869  0.48573  0.36844  1.0000
  C   C2        1.0  0.10131  0.51428  0.63156  1.0000
  C   C3        1.0  0.93519  0.32588  0.40612  1.0000
  C   C4        1.0  0.06482  0.67412  0.59388  1.0000
  C   C5        1.0  0.96381  0.65779  0.46343  1.0000
  C   C6        1.0  0.03619  0.34221  0.53657  1.0000
  C   C7        1.0  0.79378  0.48005  0.22915  1.0000
  C   C8        1.0  0.20622  0.51996  0.77085  1.0000
  C   C9        1.0  0.86718  0.13457  0.31079  1.0000
  C   C10       1.0  0.13282  0.86544  0.68921  1.0000
  C   C11       1.0  0.53343  0.43905  0.54517  1.0000
  C   C12       1.0  0.46656  0.56095  0.45483  1.0000
  C   C13       1.0  0.98144  0.09725  0.00869  1.0000
  C   C14       1.0  0.01854  0.90273  0.99131  1.0000
  O   O1        1.0  0.89333  0.60577  0.18016  1.0000
  O   O2        1.0  0.10666  0.39423  0.81984  1.0000
  O   O3        1.0  0.60413  0.35140  0.16751  1.0000
  O   O4        1.0  0.39586  0.64860  0.83249  1.0000
  O   O5        1.0  0.66274  0.04091  0.25874  1.0000
  O   O6        1.0  0.33726  0.95909  0.74126  1.0000
  O   O7        1.0  0.01772  0.07539  0.29196  1.0000
  O   O8        1.0  0.98228  0.92461  0.70804  1.0000
  O   O9        1.0  0.51012  0.26820  0.49067  1.0000
  O   O10       1.0  0.48987  0.73180  0.50932  1.0000
  O   O11       1.0  0.60561  0.51688  0.66510  1.0000
  O   O12       1.0  0.39438  0.48312  0.33489  1.0000
  O   O13       1.0  0.80552  0.09798  0.93452  1.0000
  O   O14       1.0  0.19448  0.90201  0.06549  1.0000
  O   O15       1.0  0.12807  0.23853  0.09489  1.0000
  O   O16       1.0  0.87193  0.76147  0.90512  1.0000
  O   O17       1.0  0.71266  0.14090  0.68435  1.0000
  O   O18       1.0  0.28733  0.85910  0.31564  1.0000
