data_image0
_chemical_formula_structural       Nd2H24C8N6O26
_chemical_formula_sum              "Nd2 H24 C8 N6 O26"
_cell_length_a       7.62102
_cell_length_b       8.94785
_cell_length_c       12.5724
_cell_angle_alpha    69.1511
_cell_angle_beta     86.5293
_cell_angle_gamma    80.1394

_space_group_name_H-M_alt    "P 1"
_space_group_IT_number       1

loop_
  _space_group_symop_operation_xyz
  'x, y, z'

loop_
  _atom_site_type_symbol
  _atom_site_label
  _atom_site_symmetry_multiplicity
  _atom_site_fract_x
  _atom_site_fract_y
  _atom_site_fract_z
  _atom_site_occupancy
  Nd  Nd1       1.0  0.25006  0.13350  0.73280  1.0000
  Nd  Nd2       1.0  0.74994  0.86650  0.26721  1.0000
  H   H1        1.0  0.87543  0.36201  0.45153  1.0000
  H   H2        1.0  0.62388  0.18703  0.45146  1.0000
  H   H3        1.0  0.12458  0.63797  0.54847  1.0000
  H   H4        1.0  0.37614  0.81300  0.54854  1.0000
  H   H5        1.0  0.83823  0.28436  0.60315  1.0000
  H   H6        1.0  0.66143  0.11284  0.60304  1.0000
  H   H7        1.0  0.16180  0.71562  0.39684  1.0000
  H   H8        1.0  0.33858  0.88717  0.39696  1.0000
  H   H9        1.0  0.15641  0.44789  0.38441  1.0000
  H   H10       1.0  0.34285  0.16727  0.38452  1.0000
  H   H11       1.0  0.84358  0.55209  0.61559  1.0000
  H   H12       1.0  0.65717  0.83275  0.61547  1.0000
  H   H13       1.0  0.31830  0.42868  0.48727  1.0000
  H   H14       1.0  0.18163  0.08309  0.48764  1.0000
  H   H15       1.0  0.68171  0.57130  0.51274  1.0000
  H   H16       1.0  0.81839  0.91693  0.51235  1.0000
  H   H17       1.0  0.88059  0.19423  0.84333  1.0000
  H   H18       1.0  0.61958  0.96229  0.84332  1.0000
  H   H19       1.0  0.11940  0.80576  0.15667  1.0000
  H   H20       1.0  0.38041  0.03769  0.15668  1.0000
  H   H21       1.0  0.97499  0.34629  0.83063  1.0000
  H   H22       1.0  0.52540  0.82269  0.83082  1.0000
  H   H23       1.0  0.02500  0.65370  0.16938  1.0000
  H   H24       1.0  0.47459  0.17730  0.16918  1.0000
  C   C1        1.0  0.89869  0.37359  0.53374  1.0000
  C   C2        1.0  0.60097  0.09304  0.53361  1.0000
  C   C3        1.0  0.10131  0.62641  0.46626  1.0000
  C   C4        1.0  0.39904  0.90700  0.46639  1.0000
  C   C5        1.0  0.17560  0.45799  0.46746  1.0000
  C   C6        1.0  0.32423  0.07406  0.46766  1.0000
  C   C7        1.0  0.82441  0.54201  0.53253  1.0000
  C   C8        1.0  0.67578  0.92597  0.53234  1.0000
  N   N1        1.0  0.07005  0.87153  0.71462  1.0000
  N   N2        1.0  0.42998  0.41360  0.71462  1.0000
  N   N3        1.0  0.92994  0.12847  0.28537  1.0000
  N   N4        1.0  0.57001  0.58640  0.28539  1.0000
  N   N5        1.0  0.24996  0.00533  0.98892  1.0000
  N   N6        1.0  0.75003  0.99467  0.01108  1.0000
  O   O1        1.0  0.23692  0.84675  0.73599  1.0000
  O   O2        1.0  0.26319  0.41707  0.73619  1.0000
  O   O3        1.0  0.76308  0.15326  0.26400  1.0000
  O   O4        1.0  0.73679  0.58293  0.26381  1.0000
  O   O5        1.0  0.99013  0.02006  0.69107  1.0000
  O   O6        1.0  0.50968  0.28855  0.69109  1.0000
  O   O7        1.0  0.00986  0.97994  0.30893  1.0000
  O   O8        1.0  0.49031  0.71143  0.30893  1.0000
  O   O9        1.0  0.98932  0.76339  0.71492  1.0000
  O   O10       1.0  0.51091  0.52142  0.71472  1.0000
  O   O11       1.0  0.01069  0.23662  0.28507  1.0000
  O   O12       1.0  0.48908  0.47858  0.28529  1.0000
  O   O13       1.0  0.17733  0.93734  0.93419  1.0000
  O   O14       1.0  0.32278  0.12790  0.93422  1.0000
  O   O15       1.0  0.82267  0.06265  0.06580  1.0000
  O   O16       1.0  0.67722  0.87210  0.06579  1.0000
  O   O17       1.0  0.24983  0.95172  0.09653  1.0000
  O   O18       1.0  0.75016  0.04827  0.90347  1.0000
  O   O19       1.0  0.08906  0.33803  0.55420  1.0000
  O   O20       1.0  0.41076  0.10753  0.55426  1.0000
  O   O21       1.0  0.91095  0.66198  0.44581  1.0000
  O   O22       1.0  0.58926  0.89249  0.44574  1.0000
  O   O23       1.0  0.97150  0.26067  0.80059  1.0000
  O   O24       1.0  0.52868  0.93839  0.80066  1.0000
  O   O25       1.0  0.02849  0.73932  0.19941  1.0000
  O   O26       1.0  0.47131  0.06161  0.19933  1.0000
