data_image0
_chemical_formula_structural       La4H28C56N8O32
_chemical_formula_sum              "La4 H28 C56 N8 O32"
_cell_length_a       6.81478
_cell_length_b       14.3822
_cell_length_c       14.703
_cell_angle_alpha    97.7038
_cell_angle_beta     89.9992
_cell_angle_gamma    89.9997

_space_group_name_H-M_alt    "P 1"
_space_group_IT_number       1

loop_
  _space_group_symop_operation_xyz
  'x, y, z'

loop_
  _atom_site_type_symbol
  _atom_site_label
  _atom_site_symmetry_multiplicity
  _atom_site_fract_x
  _atom_site_fract_y
  _atom_site_fract_z
  _atom_site_occupancy
  La  La1       1.0  0.23624  0.30587  0.66119  1.0000
  La  La2       1.0  0.73622  0.69414  0.83883  1.0000
  La  La3       1.0  0.76378  0.69413  0.33882  1.0000
  La  La4       1.0  0.26376  0.30587  0.16118  1.0000
  H   H1        1.0  0.16122  0.36798  0.43252  1.0000
  H   H2        1.0  0.66121  0.63203  0.06748  1.0000
  H   H3        1.0  0.83878  0.63202  0.56747  1.0000
  H   H4        1.0  0.33879  0.36797  0.93252  1.0000
  H   H5        1.0  0.37905  0.53566  0.66303  1.0000
  H   H6        1.0  0.87904  0.46434  0.83698  1.0000
  H   H7        1.0  0.62096  0.46433  0.33698  1.0000
  H   H8        1.0  0.12096  0.53566  0.16303  1.0000
  H   H9        1.0  0.37055  0.67746  0.58571  1.0000
  H   H10       1.0  0.87054  0.32253  0.91429  1.0000
  H   H11       1.0  0.62946  0.32253  0.41429  1.0000
  H   H12       1.0  0.12947  0.67746  0.08570  1.0000
  H   H13       1.0  0.31988  0.01908  0.19682  1.0000
  H   H14       1.0  0.81987  0.98092  0.30319  1.0000
  H   H15       1.0  0.68013  0.98092  0.80319  1.0000
  H   H16       1.0  0.18012  0.01908  0.69681  1.0000
  H   H17       1.0  0.27241  0.85497  0.24080  1.0000
  H   H18       1.0  0.77240  0.14503  0.25920  1.0000
  H   H19       1.0  0.72759  0.14503  0.75920  1.0000
  H   H20       1.0  0.22760  0.85497  0.74080  1.0000
  H   H21       1.0  0.20797  0.96262  0.51528  1.0000
  H   H22       1.0  0.70798  0.03738  0.98472  1.0000
  H   H23       1.0  0.79201  0.03738  0.48472  1.0000
  H   H24       1.0  0.29203  0.96262  0.01528  1.0000
  H   H25       1.0  0.18971  0.83861  0.39237  1.0000
  H   H26       1.0  0.68970  0.16139  0.10762  1.0000
  H   H27       1.0  0.81029  0.16139  0.60762  1.0000
  H   H28       1.0  0.31030  0.83862  0.89237  1.0000
  C   C1        1.0  0.10511  0.50344  0.32202  1.0000
  C   C2        1.0  0.60513  0.49657  0.17798  1.0000
  C   C3        1.0  0.89487  0.49656  0.67798  1.0000
  C   C4        1.0  0.39488  0.50344  0.82202  1.0000
  C   C5        1.0  0.18984  0.51461  0.41650  1.0000
  C   C6        1.0  0.68984  0.48539  0.08351  1.0000
  C   C7        1.0  0.81017  0.48539  0.58350  1.0000
  C   C8        1.0  0.31016  0.51460  0.91649  1.0000
  C   C9        1.0  0.20399  0.43772  0.46501  1.0000
  C   C10       1.0  0.70398  0.56228  0.03499  1.0000
  C   C11       1.0  0.79603  0.56228  0.53498  1.0000
  C   C12       1.0  0.29601  0.43772  0.96501  1.0000
  C   C13       1.0  0.32364  0.53084  0.59307  1.0000
  C   C14       1.0  0.82363  0.46916  0.90693  1.0000
  C   C15       1.0  0.67637  0.46916  0.40693  1.0000
  C   C16       1.0  0.17636  0.53084  0.09307  1.0000
  C   C17       1.0  0.31787  0.61091  0.54974  1.0000
  C   C18       1.0  0.81785  0.38909  0.95026  1.0000
  C   C19       1.0  0.68213  0.38908  0.45026  1.0000
  C   C20       1.0  0.18215  0.61091  0.04974  1.0000
  C   C21       1.0  0.24854  0.60321  0.45981  1.0000
  C   C22       1.0  0.74854  0.39679  0.04019  1.0000
  C   C23       1.0  0.75147  0.39679  0.54018  1.0000
  C   C24       1.0  0.25146  0.60321  0.95981  1.0000
  C   C25       1.0  0.25194  0.68882  0.41156  1.0000
  C   C26       1.0  0.75193  0.31118  0.08844  1.0000
  C   C27       1.0  0.74806  0.31118  0.58844  1.0000
  C   C28       1.0  0.24806  0.68881  0.91156  1.0000
  C   C29       1.0  0.29049  0.18090  0.30410  1.0000
  C   C30       1.0  0.79049  0.81910  0.19590  1.0000
  C   C31       1.0  0.70952  0.81910  0.69590  1.0000
  C   C32       1.0  0.20952  0.18090  0.80410  1.0000
  C   C33       1.0  0.29055  0.08560  0.33682  1.0000
  C   C34       1.0  0.79055  0.91440  0.16318  1.0000
  C   C35       1.0  0.70946  0.91440  0.66318  1.0000
  C   C36       1.0  0.20946  0.08559  0.83682  1.0000
  C   C37       1.0  0.29934  0.00792  0.26805  1.0000
  C   C38       1.0  0.79932  0.99208  0.23195  1.0000
  C   C39       1.0  0.70066  0.99208  0.73195  1.0000
  C   C40       1.0  0.20066  0.00792  0.76804  1.0000
  C   C41       1.0  0.27175  0.91832  0.29012  1.0000
  C   C42       1.0  0.77173  0.08168  0.20988  1.0000
  C   C43       1.0  0.72825  0.08168  0.70988  1.0000
  C   C44       1.0  0.22825  0.91832  0.79012  1.0000
  C   C45       1.0  0.23553  0.97847  0.44608  1.0000
  C   C46       1.0  0.73554  0.02153  0.05392  1.0000
  C   C47       1.0  0.76445  0.02153  0.55392  1.0000
  C   C48       1.0  0.26446  0.97847  0.94608  1.0000
  C   C49       1.0  0.26637  0.06997  0.42878  1.0000
  C   C50       1.0  0.76637  0.93003  0.07122  1.0000
  C   C51       1.0  0.73363  0.93003  0.57122  1.0000
  C   C52       1.0  0.23363  0.06997  0.92878  1.0000
  C   C53       1.0  0.26712  0.14764  0.50843  1.0000
  C   C54       1.0  0.76713  0.85236  0.99157  1.0000
  C   C55       1.0  0.73287  0.85237  0.49157  1.0000
  C   C56       1.0  0.23287  0.14764  0.00843  1.0000
  N   N1        1.0  0.23442  0.90658  0.37783  1.0000
  N   N2        1.0  0.73443  0.09342  0.12216  1.0000
  N   N3        1.0  0.76557  0.09342  0.62217  1.0000
  N   N4        1.0  0.26556  0.90658  0.87784  1.0000
  N   N5        1.0  0.26720  0.44535  0.55230  1.0000
  N   N6        1.0  0.76717  0.55465  0.94770  1.0000
  N   N7        1.0  0.73282  0.55465  0.44770  1.0000
  N   N8        1.0  0.23280  0.44534  0.05229  1.0000
  O   O1        1.0  0.12188  0.21229  0.28822  1.0000
  O   O2        1.0  0.62188  0.78771  0.21178  1.0000
  O   O3        1.0  0.87813  0.78771  0.71178  1.0000
  O   O4        1.0  0.37813  0.21229  0.78823  1.0000
  O   O5        1.0  0.45078  0.21746  0.28270  1.0000
  O   O6        1.0  0.95078  0.78254  0.21730  1.0000
  O   O7        1.0  0.54922  0.78254  0.71731  1.0000
  O   O8        1.0  0.04923  0.21746  0.78269  1.0000
  O   O9        1.0  0.29692  0.23067  0.49184  1.0000
  O   O10       1.0  0.79692  0.76933  0.00816  1.0000
  O   O11       1.0  0.70307  0.76934  0.50816  1.0000
  O   O12       1.0  0.20308  0.23067  0.99184  1.0000
  O   O13       1.0  0.23802  0.12602  0.58887  1.0000
  O   O14       1.0  0.73801  0.87398  0.91113  1.0000
  O   O15       1.0  0.76199  0.87398  0.41113  1.0000
  O   O16       1.0  0.26199  0.12602  0.08887  1.0000
  O   O17       1.0  0.40710  0.70656  0.37104  1.0000
  O   O18       1.0  0.90708  0.29343  0.12896  1.0000
  O   O19       1.0  0.59290  0.29343  0.62896  1.0000
  O   O20       1.0  0.09292  0.70656  0.87104  1.0000
  O   O21       1.0  0.10184  0.74324  0.41925  1.0000
  O   O22       1.0  0.60182  0.25677  0.08075  1.0000
  O   O23       1.0  0.89816  0.25676  0.58075  1.0000
  O   O24       1.0  0.39817  0.74323  0.91925  1.0000
  O   O25       1.0  0.02241  0.57495  0.29606  1.0000
  O   O26       1.0  0.52241  0.42505  0.20395  1.0000
  O   O27       1.0  0.97760  0.42506  0.70394  1.0000
  O   O28       1.0  0.47759  0.57495  0.79606  1.0000
  O   O29       1.0  0.11761  0.42433  0.27303  1.0000
  O   O30       1.0  0.61761  0.57567  0.22696  1.0000
  O   O31       1.0  0.88239  0.57568  0.72696  1.0000
  O   O32       1.0  0.38240  0.42433  0.77303  1.0000
