data_image0
_chemical_formula_structural       Ag6H20C20S4N6O24
_chemical_formula_sum              "Ag6 H20 C20 S4 N6 O24"
_cell_length_a       5.22009
_cell_length_b       11.9256
_cell_length_c       14.2289
_cell_angle_alpha    99.4474
_cell_angle_beta     90.0001
_cell_angle_gamma    90.0002

_space_group_name_H-M_alt    "P 1"
_space_group_IT_number       1

loop_
  _space_group_symop_operation_xyz
  'x, y, z'

loop_
  _atom_site_type_symbol
  _atom_site_label
  _atom_site_symmetry_multiplicity
  _atom_site_fract_x
  _atom_site_fract_y
  _atom_site_fract_z
  _atom_site_occupancy
  Ag  Ag1       1.0  0.91545  0.99495  0.49431  1.0000
  Ag  Ag2       1.0  0.08455  0.49495  0.99431  1.0000
  Ag  Ag3       1.0  0.24127  0.76312  0.41673  1.0000
  Ag  Ag4       1.0  0.75872  0.26311  0.91673  1.0000
  Ag  Ag5       1.0  0.80716  0.58212  0.34654  1.0000
  Ag  Ag6       1.0  0.19282  0.08211  0.84655  1.0000
  H   H1        1.0  0.33525  0.48203  0.34702  1.0000
  H   H2        1.0  0.66474  0.98202  0.84702  1.0000
  H   H3        1.0  0.28817  0.54396  0.25625  1.0000
  H   H4        1.0  0.71182  0.04396  0.75625  1.0000
  H   H5        1.0  0.22004  0.80650  0.83837  1.0000
  H   H6        1.0  0.77997  0.30649  0.33836  1.0000
  H   H7        1.0  0.28621  0.76176  0.99290  1.0000
  H   H8        1.0  0.71379  0.26176  0.49291  1.0000
  H   H9        1.0  0.48393  0.58257  0.70644  1.0000
  H   H10       1.0  0.51610  0.08258  0.20644  1.0000
  H   H11       1.0  0.64253  0.56588  0.86737  1.0000
  H   H12       1.0  0.35752  0.06590  0.36738  1.0000
  H   H13       1.0  0.08259  0.82849  0.68431  1.0000
  H   H14       1.0  0.91740  0.32848  0.18431  1.0000
  H   H15       1.0  0.01382  0.97712  0.14484  1.0000
  H   H16       1.0  0.98617  0.47711  0.64484  1.0000
  H   H17       1.0  0.88250  0.00123  0.98354  1.0000
  H   H18       1.0  0.11750  0.50122  0.48355  1.0000
  H   H19       1.0  0.39069  0.73837  0.14930  1.0000
  H   H20       1.0  0.60929  0.23837  0.64930  1.0000
  C   C1        1.0  0.77171  0.70734  0.68278  1.0000
  C   C2        1.0  0.22828  0.20735  0.18278  1.0000
  C   C3        1.0  0.64804  0.63275  0.73632  1.0000
  C   C4        1.0  0.35200  0.13277  0.23632  1.0000
  C   C5        1.0  0.73543  0.62284  0.82554  1.0000
  C   C6        1.0  0.26458  0.12285  0.32554  1.0000
  C   C7        1.0  0.95077  0.68766  0.86577  1.0000
  C   C8        1.0  0.04923  0.18767  0.36577  1.0000
  C   C9        1.0  0.97750  0.77040  0.72171  1.0000
  C   C10       1.0  0.02249  0.27039  0.22171  1.0000
  C   C11       1.0  0.71348  0.85441  0.15968  1.0000
  C   C12       1.0  0.28651  0.35439  0.65969  1.0000
  C   C13       1.0  0.85128  0.92930  0.11075  1.0000
  C   C14       1.0  0.14872  0.42928  0.61076  1.0000
  C   C15       1.0  0.77912  0.94253  0.02054  1.0000
  C   C16       1.0  0.22089  0.44252  0.52054  1.0000
  C   C17       1.0  0.56802  0.88023  0.97429  1.0000
  C   C18       1.0  0.43200  0.38023  0.47429  1.0000
  C   C19       1.0  0.50845  0.79560  0.11536  1.0000
  C   C20       1.0  0.49155  0.29558  0.61536  1.0000
  S   S1        1.0  0.68264  0.71145  0.56368  1.0000
  S   S2        1.0  0.31735  0.21145  0.06367  1.0000
  S   S3        1.0  0.79183  0.84207  0.27811  1.0000
  S   S4        1.0  0.20816  0.34206  0.77811  1.0000
  N   N1        1.0  0.06047  0.75975  0.81001  1.0000
  N   N2        1.0  0.93954  0.25975  0.31002  1.0000
  N   N3        1.0  0.44294  0.80890  0.02595  1.0000
  N   N4        1.0  0.55707  0.30889  0.52595  1.0000
  N   N5        1.0  0.42088  0.01098  0.61417  1.0000
  N   N6        1.0  0.57912  0.51098  0.11417  1.0000
  O   O1        1.0  0.84722  0.79649  0.53001  1.0000
  O   O2        1.0  0.15274  0.29648  0.03000  1.0000
  O   O3        1.0  0.73074  0.59489  0.51302  1.0000
  O   O4        1.0  0.26926  0.09488  0.01302  1.0000
  O   O5        1.0  0.40778  0.74125  0.56582  1.0000
  O   O6        1.0  0.59222  0.24125  0.06582  1.0000
  O   O7        1.0  0.04363  0.68393  0.94784  1.0000
  O   O8        1.0  0.95639  0.18394  0.44784  1.0000
  O   O9        1.0  0.73960  0.95455  0.33434  1.0000
  O   O10       1.0  0.26040  0.45453  0.83433  1.0000
  O   O11       1.0  0.06619  0.81090  0.27649  1.0000
  O   O12       1.0  0.93379  0.31089  0.77648  1.0000
  O   O13       1.0  0.62444  0.75156  0.30344  1.0000
  O   O14       1.0  0.37555  0.25155  0.80344  1.0000
  O   O15       1.0  0.49230  0.88533  0.88958  1.0000
  O   O16       1.0  0.50771  0.38533  0.38958  1.0000
  O   O17       1.0  0.36972  0.00132  0.52603  1.0000
  O   O18       1.0  0.63027  0.50132  0.02603  1.0000
  O   O19       1.0  0.65169  0.03549  0.64053  1.0000
  O   O20       1.0  0.34831  0.53549  0.14052  1.0000
  O   O21       1.0  0.25063  0.99723  0.67384  1.0000
  O   O22       1.0  0.74937  0.49724  0.17384  1.0000
  O   O23       1.0  0.24715  0.54845  0.32532  1.0000
  O   O24       1.0  0.75284  0.04845  0.82532  1.0000
