data_image0
_chemical_formula_structural       Ag8H16C20S4N8O28
_chemical_formula_sum              "Ag8 H16 C20 S4 N8 O28"
_cell_length_a       5.4737
_cell_length_b       9.49834
_cell_length_c       19.0136
_cell_angle_alpha    90.0003
_cell_angle_beta     89.9997
_cell_angle_gamma    99.3965

_space_group_name_H-M_alt    "P 1"
_space_group_IT_number       1

loop_
  _space_group_symop_operation_xyz
  'x, y, z'

loop_
  _atom_site_type_symbol
  _atom_site_label
  _atom_site_symmetry_multiplicity
  _atom_site_fract_x
  _atom_site_fract_y
  _atom_site_fract_z
  _atom_site_occupancy
  Ag  Ag1       1.0  0.74467  0.60169  0.52021  1.0000
  Ag  Ag2       1.0  0.25533  0.89831  0.02021  1.0000
  Ag  Ag3       1.0  0.25533  0.39831  0.47979  1.0000
  Ag  Ag4       1.0  0.74467  0.10169  0.97979  1.0000
  Ag  Ag5       1.0  0.73002  0.20438  0.52345  1.0000
  Ag  Ag6       1.0  0.26999  0.29562  0.02345  1.0000
  Ag  Ag7       1.0  0.26998  0.79561  0.47655  1.0000
  Ag  Ag8       1.0  0.73002  0.70438  0.97655  1.0000
  H   H1        1.0  0.51518  0.56168  0.15327  1.0000
  H   H2        1.0  0.48483  0.93833  0.65327  1.0000
  H   H3        1.0  0.48483  0.43833  0.84673  1.0000
  H   H4        1.0  0.51517  0.06168  0.34673  1.0000
  H   H5        1.0  0.74715  0.43553  0.22263  1.0000
  H   H6        1.0  0.25286  0.06447  0.72263  1.0000
  H   H7        1.0  0.25286  0.56447  0.77737  1.0000
  H   H8        1.0  0.74714  0.93553  0.27737  1.0000
  H   H9        1.0  0.19825  0.74386  0.32569  1.0000
  H   H10       1.0  0.80174  0.75613  0.82569  1.0000
  H   H11       1.0  0.80175  0.25614  0.67431  1.0000
  H   H12       1.0  0.19826  0.24387  0.17431  1.0000
  H   H13       1.0  0.22752  0.70622  0.19571  1.0000
  H   H14       1.0  0.77248  0.79378  0.69571  1.0000
  H   H15       1.0  0.77249  0.29378  0.80429  1.0000
  H   H16       1.0  0.22752  0.20622  0.30429  1.0000
  C   C1        1.0  0.62752  0.50038  0.24859  1.0000
  C   C2        1.0  0.37248  0.99962  0.74859  1.0000
  C   C3        1.0  0.37248  0.49962  0.75141  1.0000
  C   C4        1.0  0.62751  0.00038  0.25141  1.0000
  C   C5        1.0  0.61549  0.51232  0.32052  1.0000
  C   C6        1.0  0.38451  0.98768  0.82052  1.0000
  C   C7        1.0  0.38451  0.48768  0.67948  1.0000
  C   C8        1.0  0.61548  0.01232  0.17948  1.0000
  C   C9        1.0  0.46762  0.60738  0.35233  1.0000
  C   C10       1.0  0.53237  0.89261  0.85233  1.0000
  C   C11       1.0  0.53237  0.39262  0.64767  1.0000
  C   C12       1.0  0.46763  0.10739  0.14767  1.0000
  C   C13       1.0  0.32250  0.67557  0.30451  1.0000
  C   C14       1.0  0.67750  0.82442  0.80452  1.0000
  C   C15       1.0  0.67750  0.32442  0.69548  1.0000
  C   C16       1.0  0.32250  0.17558  0.19549  1.0000
  C   C17       1.0  0.33632  0.65596  0.23328  1.0000
  C   C18       1.0  0.66367  0.84404  0.73328  1.0000
  C   C19       1.0  0.66368  0.34404  0.76672  1.0000
  C   C20       1.0  0.33632  0.15596  0.26672  1.0000
  S   S1        1.0  0.77715  0.40086  0.37127  1.0000
  S   S2        1.0  0.22285  0.09914  0.87127  1.0000
  S   S3        1.0  0.22284  0.59914  0.62873  1.0000
  S   S4        1.0  0.77714  0.90086  0.12873  1.0000
  N   N1        1.0  0.49121  0.57135  0.20662  1.0000
  N   N2        1.0  0.50879  0.92865  0.70663  1.0000
  N   N3        1.0  0.50879  0.42865  0.79337  1.0000
  N   N4        1.0  0.49121  0.07135  0.29337  1.0000
  N   N5        1.0  0.82825  0.91389  0.42916  1.0000
  N   N6        1.0  0.17175  0.58611  0.92916  1.0000
  N   N7        1.0  0.17176  0.08611  0.57084  1.0000
  N   N8        1.0  0.82825  0.41389  0.07084  1.0000
  O   O1        1.0  0.93819  0.49752  0.41982  1.0000
  O   O2        1.0  0.06181  0.00248  0.91982  1.0000
  O   O3        1.0  0.06181  0.50248  0.58018  1.0000
  O   O4        1.0  0.93819  0.99752  0.08018  1.0000
  O   O5        1.0  0.91530  0.32542  0.32287  1.0000
  O   O6        1.0  0.08472  0.17458  0.82288  1.0000
  O   O7        1.0  0.08470  0.67457  0.67713  1.0000
  O   O8        1.0  0.91529  0.82542  0.17713  1.0000
  O   O9        1.0  0.58082  0.30486  0.41038  1.0000
  O   O10       1.0  0.41919  0.19514  0.91039  1.0000
  O   O11       1.0  0.41917  0.69514  0.58962  1.0000
  O   O12       1.0  0.58082  0.80486  0.08961  1.0000
  O   O13       1.0  0.46367  0.62866  0.41931  1.0000
  O   O14       1.0  0.53632  0.87133  0.91932  1.0000
  O   O15       1.0  0.53633  0.37134  0.58068  1.0000
  O   O16       1.0  0.46367  0.12867  0.08069  1.0000
  O   O17       1.0  0.62859  0.96660  0.42677  1.0000
  O   O18       1.0  0.37141  0.53340  0.92677  1.0000
  O   O19       1.0  0.37140  0.03340  0.57323  1.0000
  O   O20       1.0  0.62860  0.46660  0.07323  1.0000
  O   O21       1.0  0.88300  0.85818  0.48768  1.0000
  O   O22       1.0  0.11700  0.64181  0.98768  1.0000
  O   O23       1.0  0.11701  0.14182  0.51232  1.0000
  O   O24       1.0  0.88300  0.35818  0.01232  1.0000
  O   O25       1.0  0.96841  0.91640  0.37708  1.0000
  O   O26       1.0  0.03159  0.58360  0.87708  1.0000
  O   O27       1.0  0.03159  0.08360  0.62292  1.0000
  O   O28       1.0  0.96841  0.41640  0.12292  1.0000
