data_image0
_chemical_formula_structural       Gd2Cu6H42C48O42
_chemical_formula_sum              "Gd2 Cu6 H42 C48 O42"
_cell_length_a       9.65344
_cell_length_b       12.2126
_cell_length_c       12.6187
_cell_angle_alpha    116.55
_cell_angle_beta     96.1412
_cell_angle_gamma    90.6594

_space_group_name_H-M_alt    "P 1"
_space_group_IT_number       1

loop_
  _space_group_symop_operation_xyz
  'x, y, z'

loop_
  _atom_site_type_symbol
  _atom_site_label
  _atom_site_symmetry_multiplicity
  _atom_site_fract_x
  _atom_site_fract_y
  _atom_site_fract_z
  _atom_site_occupancy
  Gd  Gd1       1.0  0.25112  0.70121  0.22465  1.0000
  Gd  Gd2       1.0  0.74889  0.29879  0.77535  1.0000
  Cu  Cu1       1.0  0.32471  0.09763  0.13009  1.0000
  Cu  Cu2       1.0  0.67529  0.90234  0.86992  1.0000
  Cu  Cu3       1.0  0.27134  0.32514  0.10173  1.0000
  Cu  Cu4       1.0  0.72867  0.67489  0.89829  1.0000
  Cu  Cu5       1.0  0.03244  0.88240  0.00735  1.0000
  Cu  Cu6       1.0  0.96754  0.11759  0.99263  1.0000
  H   H1        1.0  0.35790  0.29562  0.59712  1.0000
  H   H2        1.0  0.64209  0.70438  0.40287  1.0000
  H   H3        1.0  0.30399  0.62655  0.56222  1.0000
  H   H4        1.0  0.69597  0.37343  0.43777  1.0000
  H   H5        1.0  0.25631  0.13038  0.63829  1.0000
  H   H6        1.0  0.74370  0.86962  0.36172  1.0000
  H   H7        1.0  0.34219  0.80389  0.67438  1.0000
  H   H8        1.0  0.65782  0.19614  0.32563  1.0000
  H   H9        1.0  0.32879  0.52038  0.69218  1.0000
  H   H10       1.0  0.67119  0.47961  0.30780  1.0000
  H   H11       1.0  0.29788  0.90724  0.54339  1.0000
  H   H12       1.0  0.70212  0.09277  0.45663  1.0000
  H   H13       1.0  0.99877  0.28418  0.57228  1.0000
  H   H14       1.0  0.00124  0.71583  0.42770  1.0000
  H   H15       1.0  0.05614  0.06484  0.47376  1.0000
  H   H16       1.0  0.94387  0.93516  0.52624  1.0000
  H   H17       1.0  0.96743  0.39771  0.45042  1.0000
  H   H18       1.0  0.03257  0.60228  0.54956  1.0000
  H   H19       1.0  0.01572  0.54157  0.24339  1.0000
  H   H20       1.0  0.98428  0.45842  0.75660  1.0000
  H   H21       1.0  0.17760  0.50023  0.97874  1.0000
  H   H22       1.0  0.82243  0.49977  0.02127  1.0000
  H   H23       1.0  0.34872  0.84284  0.08232  1.0000
  H   H24       1.0  0.65126  0.15717  0.91768  1.0000
  H   H25       1.0  0.56504  0.31969  0.10877  1.0000
  H   H26       1.0  0.43498  0.68032  0.89124  1.0000
  H   H27       1.0  0.48824  0.85777  0.42797  1.0000
  H   H28       1.0  0.51175  0.14223  0.57204  1.0000
  H   H29       1.0  0.53562  0.34248  0.99626  1.0000
  H   H30       1.0  0.46440  0.65753  0.00375  1.0000
  H   H31       1.0  0.93390  0.64416  0.22696  1.0000
  H   H32       1.0  0.06610  0.35586  0.77304  1.0000
  H   H33       1.0  0.48920  0.52002  0.14535  1.0000
  H   H34       1.0  0.51080  0.47999  0.85467  1.0000
  H   H35       1.0  0.12586  0.62007  0.96574  1.0000
  H   H36       1.0  0.87418  0.37993  0.03426  1.0000
  H   H37       1.0  0.57102  0.64923  0.20514  1.0000
  H   H38       1.0  0.42898  0.35078  0.79488  1.0000
  H   H39       1.0  0.39924  0.95035  0.39557  1.0000
  H   H40       1.0  0.60075  0.04965  0.60444  1.0000
  H   H41       1.0  0.43944  0.86663  0.20185  1.0000
  H   H42       1.0  0.56055  0.13340  0.79816  1.0000
  C   C1        1.0  0.34780  0.27561  0.41944  1.0000
  C   C2        1.0  0.65221  0.72440  0.58058  1.0000
  C   C3        1.0  0.36657  0.14253  0.37571  1.0000
  C   C4        1.0  0.63343  0.85748  0.62428  1.0000
  C   C5        1.0  0.23752  0.27897  0.85748  1.0000
  C   C6        1.0  0.76249  0.72102  0.14252  1.0000
  C   C7        1.0  0.31245  0.46442  0.39992  1.0000
  C   C8        1.0  0.68755  0.53557  0.60009  1.0000
  C   C9        1.0  0.26789  0.14816  0.81543  1.0000
  C   C10       1.0  0.73212  0.85185  0.18457  1.0000
  C   C11       1.0  0.31562  0.96125  0.83530  1.0000
  C   C12       1.0  0.68439  0.03875  0.16469  1.0000
  C   C13       1.0  0.34763  0.34448  0.54308  1.0000
  C   C14       1.0  0.65237  0.65551  0.45692  1.0000
  C   C15       1.0  0.33773  0.88460  0.89913  1.0000
  C   C16       1.0  0.66226  0.11541  0.10087  1.0000
  C   C17       1.0  0.32592  0.33530  0.34505  1.0000
  C   C18       1.0  0.67409  0.66471  0.65497  1.0000
  C   C19       1.0  0.31630  0.52845  0.52431  1.0000
  C   C20       1.0  0.68368  0.47154  0.47569  1.0000
  C   C21       1.0  0.28750  0.08740  0.88887  1.0000
  C   C22       1.0  0.71250  0.91259  0.11111  1.0000
  C   C23       1.0  0.29087  0.53840  0.33466  1.0000
  C   C24       1.0  0.70913  0.46158  0.66535  1.0000
  C   C25       1.0  0.27310  0.08145  0.69210  1.0000
  C   C26       1.0  0.72690  0.91855  0.30790  1.0000
  C   C27       1.0  0.04207  0.05255  0.29863  1.0000
  C   C28       1.0  0.95793  0.94744  0.70136  1.0000
  C   C29       1.0  0.32016  0.90008  0.71169  1.0000
  C   C30       1.0  0.67985  0.09993  0.28830  1.0000
  C   C31       1.0  0.08297  0.92406  0.25236  1.0000
  C   C32       1.0  0.91702  0.07593  0.74762  1.0000
  C   C33       1.0  0.33151  0.46970  0.59645  1.0000
  C   C34       1.0  0.66847  0.53028  0.40355  1.0000
  C   C35       1.0  0.29731  0.95780  0.63928  1.0000
  C   C36       1.0  0.70268  0.04220  0.36073  1.0000
  C   C37       1.0  0.00563  0.23777  0.47702  1.0000
  C   C38       1.0  0.99437  0.76223  0.52297  1.0000
  C   C39       1.0  0.03580  0.11553  0.42201  1.0000
  C   C40       1.0  0.96421  0.88447  0.57798  1.0000
  C   C41       1.0  0.99079  0.24330  0.28491  1.0000
  C   C42       1.0  0.00920  0.75669  0.71508  1.0000
  C   C43       1.0  0.01538  0.11619  0.22814  1.0000
  C   C44       1.0  0.98461  0.88379  0.77185  1.0000
  C   C45       1.0  0.98612  0.30054  0.40865  1.0000
  C   C46       1.0  0.01387  0.69946  0.59134  1.0000
  C   C47       1.0  0.97468  0.32545  0.22516  1.0000
  C   C48       1.0  0.02531  0.67454  0.77481  1.0000
  O   O1        1.0  0.26315  0.49077  0.21841  1.0000
  O   O2        1.0  0.73686  0.50924  0.78159  1.0000
  O   O3        1.0  0.36157  0.06653  0.26351  1.0000
  O   O4        1.0  0.63842  0.93346  0.73650  1.0000
  O   O5        1.0  0.20925  0.34871  0.96450  1.0000
  O   O6        1.0  0.79077  0.65130  0.03550  1.0000
  O   O7        1.0  0.27929  0.14885  0.00629  1.0000
  O   O8        1.0  0.72070  0.85114  0.99369  1.0000
  O   O9        1.0  0.38814  0.10046  0.45118  1.0000
  O   O10       1.0  0.61186  0.89952  0.54880  1.0000
  O   O11       1.0  0.32624  0.92987  0.01373  1.0000
  O   O12       1.0  0.67373  0.07012  0.98627  1.0000
  O   O13       1.0  0.23564  0.32307  0.78333  1.0000
  O   O14       1.0  0.76436  0.67694  0.21670  1.0000
  O   O15       1.0  0.31718  0.27210  0.22609  1.0000
  O   O16       1.0  0.68286  0.72791  0.77392  1.0000
  O   O17       1.0  0.29616  0.65455  0.39069  1.0000
  O   O18       1.0  0.70382  0.34544  0.60930  1.0000
  O   O19       1.0  0.07850  0.84889  0.13949  1.0000
  O   O20       1.0  0.92151  0.15111  0.86050  1.0000
  O   O21       1.0  0.12748  0.88307  0.32540  1.0000
  O   O22       1.0  0.87251  0.11693  0.67460  1.0000
  O   O23       1.0  0.41647  0.86072  0.36684  1.0000
  O   O24       1.0  0.58352  0.13928  0.63317  1.0000
  O   O25       1.0  0.38054  0.80266  0.13380  1.0000
  O   O26       1.0  0.61946  0.19735  0.86621  1.0000
  O   O27       1.0  0.01800  0.05725  0.10927  1.0000
  O   O28       1.0  0.98198  0.94272  0.89071  1.0000
  O   O29       1.0  0.47559  0.61027  0.17955  1.0000
  O   O30       1.0  0.52441  0.38974  0.82047  1.0000
  O   O31       1.0  0.97677  0.43895  0.28980  1.0000
  O   O32       1.0  0.02321  0.56104  0.71017  1.0000
  O   O33       1.0  0.02934  0.61483  0.22796  1.0000
  O   O34       1.0  0.97066  0.38517  0.77203  1.0000
  O   O35       1.0  0.96082  0.28300  0.10874  1.0000
  O   O36       1.0  0.03917  0.71699  0.89125  1.0000
  O   O37       1.0  0.18309  0.59112  0.01656  1.0000
  O   O38       1.0  0.81695  0.40887  0.98344  1.0000
  O   O39       1.0  0.51022  0.37053  0.07731  1.0000
  O   O40       1.0  0.48980  0.62948  0.92270  1.0000
  O   O41       1.0  0.36481  0.77487  0.84168  1.0000
  O   O42       1.0  0.63520  0.22515  0.15833  1.0000
