data_image0
_chemical_formula_structural       Na4H18C18N2O22
_chemical_formula_sum              "Na4 H18 C18 N2 O22"
_cell_length_a       5.56364
_cell_length_b       6.65605
_cell_length_c       18.545
_cell_angle_alpha    81.6255
_cell_angle_beta     85.6213
_cell_angle_gamma    67.2626

_space_group_name_H-M_alt    "P 1"
_space_group_IT_number       1

loop_
  _space_group_symop_operation_xyz
  'x, y, z'

loop_
  _atom_site_type_symbol
  _atom_site_label
  _atom_site_symmetry_multiplicity
  _atom_site_fract_x
  _atom_site_fract_y
  _atom_site_fract_z
  _atom_site_occupancy
  Na  Na1       1.0  0.28902  0.40905  0.44572  1.0000
  Na  Na2       1.0  0.71089  0.59101  0.55429  1.0000
  Na  Na3       1.0  0.69632  0.05218  0.05338  1.0000
  Na  Na4       1.0  0.30381  0.94772  0.94662  1.0000
  H   H1        1.0  0.03574  0.57799  0.10237  1.0000
  H   H2        1.0  0.96435  0.42198  0.89762  1.0000
  H   H3        1.0  0.86449  0.07945  0.26181  1.0000
  H   H4        1.0  0.13548  0.92056  0.73820  1.0000
  H   H5        1.0  0.51044  0.85127  0.20737  1.0000
  H   H6        1.0  0.48959  0.14872  0.79263  1.0000
  H   H7        1.0  0.85368  0.19968  0.46390  1.0000
  H   H8        1.0  0.14625  0.80035  0.53611  1.0000
  H   H9        1.0  0.74340  0.11028  0.53572  1.0000
  H   H10       1.0  0.25651  0.88976  0.46429  1.0000
  H   H11       1.0  0.87529  0.82157  0.40191  1.0000
  H   H12       1.0  0.12467  0.17846  0.59810  1.0000
  H   H13       1.0  0.73780  0.65678  0.40327  1.0000
  H   H14       1.0  0.26209  0.34328  0.59674  1.0000
  H   H15       1.0  0.25257  0.41000  0.97066  1.0000
  H   H16       1.0  0.74753  0.58996  0.02935  1.0000
  H   H17       1.0  0.13170  0.29244  0.03526  1.0000
  H   H18       1.0  0.86836  0.70755  0.96474  1.0000
  C   C1        1.0  0.11057  0.32121  0.27517  1.0000
  C   C2        1.0  0.88940  0.67882  0.72483  1.0000
  C   C3        1.0  0.03020  0.36927  0.20149  1.0000
  C   C4        1.0  0.96980  0.63073  0.79850  1.0000
  C   C5        1.0  0.09692  0.53066  0.15854  1.0000
  C   C6        1.0  0.90311  0.46933  0.84145  1.0000
  C   C7        1.0  0.23849  0.63857  0.18352  1.0000
  C   C8        1.0  0.76153  0.36140  0.81649  1.0000
  C   C9        1.0  0.31618  0.57363  0.25690  1.0000
  C   C10       1.0  0.68383  0.42635  0.74310  1.0000
  C   C11       1.0  0.05806  0.16012  0.33598  1.0000
  C   C12       1.0  0.94189  0.83993  0.66402  1.0000
  C   C13       1.0  0.87923  0.27167  0.16254  1.0000
  C   C14       1.0  0.12078  0.72835  0.83745  1.0000
  C   C15       1.0  0.28474  0.81040  0.12671  1.0000
  C   C16       1.0  0.71539  0.18949  0.87327  1.0000
  C   C17       1.0  0.48099  0.65527  0.29821  1.0000
  C   C18       1.0  0.51896  0.34474  0.70181  1.0000
  N   N1        1.0  0.24746  0.42312  0.29926  1.0000
  N   N2        1.0  0.75249  0.57691  0.70075  1.0000
  O   O1        1.0  0.13510  0.14902  0.39844  1.0000
  O   O2        1.0  0.86486  0.85098  0.60155  1.0000
  O   O3        1.0  0.93573  0.04022  0.32156  1.0000
  O   O4        1.0  0.06420  0.95982  0.67844  1.0000
  O   O5        1.0  0.79844  0.12738  0.19736  1.0000
  O   O6        1.0  0.20158  0.87263  0.80262  1.0000
  O   O7        1.0  0.83633  0.33312  0.09535  1.0000
  O   O8        1.0  0.16370  0.66684  0.90463  1.0000
  O   O9        1.0  0.16681  0.85651  0.06803  1.0000
  O   O10       1.0  0.83339  0.14340  0.93195  1.0000
  O   O11       1.0  0.44159  0.90010  0.14046  1.0000
  O   O12       1.0  0.55853  0.09985  0.85954  1.0000
  O   O13       1.0  0.56251  0.80508  0.26625  1.0000
  O   O14       1.0  0.43745  0.19494  0.73376  1.0000
  O   O15       1.0  0.53603  0.57237  0.36224  1.0000
  O   O16       1.0  0.46387  0.42768  0.63777  1.0000
  O   O17       1.0  0.70183  0.23664  0.49742  1.0000
  O   O18       1.0  0.29810  0.76340  0.50258  1.0000
  O   O19       1.0  0.85981  0.69187  0.43102  1.0000
  O   O20       1.0  0.14010  0.30818  0.56899  1.0000
  O   O21       1.0  0.28546  0.27106  0.00268  1.0000
  O   O22       1.0  0.71461  0.72889  0.99732  1.0000
