data_image0
_chemical_formula_structural       Cd2H28C22N4Cl2O6
_chemical_formula_sum              "Cd2 H28 C22 N4 Cl2 O6"
_cell_length_a       7.2946
_cell_length_b       9.4891
_cell_length_c       10.2586
_cell_angle_alpha    96.8675
_cell_angle_beta     98.711
_cell_angle_gamma    89.1319

_space_group_name_H-M_alt    "P 1"
_space_group_IT_number       1

loop_
  _space_group_symop_operation_xyz
  'x, y, z'

loop_
  _atom_site_type_symbol
  _atom_site_label
  _atom_site_symmetry_multiplicity
  _atom_site_fract_x
  _atom_site_fract_y
  _atom_site_fract_z
  _atom_site_occupancy
  Cd  Cd1       1.0  0.65370  0.96382  0.87351  1.0000
  Cd  Cd2       1.0  0.34629  0.03618  0.12648  1.0000
  H   H1        1.0  0.25976  0.75487  0.41314  1.0000
  H   H2        1.0  0.74024  0.24512  0.58686  1.0000
  H   H3        1.0  0.00365  0.82004  0.92265  1.0000
  H   H4        1.0  0.99635  0.17997  0.07735  1.0000
  H   H5        1.0  0.58838  0.61991  0.89257  1.0000
  H   H6        1.0  0.41162  0.38010  0.10743  1.0000
  H   H7        1.0  0.46611  0.36948  0.84240  1.0000
  H   H8        1.0  0.53389  0.63052  0.15760  1.0000
  H   H9        1.0  0.26733  0.29057  0.63218  1.0000
  H   H10       1.0  0.73267  0.70943  0.36782  1.0000
  H   H11       1.0  0.18438  0.45384  0.45767  1.0000
  H   H12       1.0  0.81563  0.54615  0.54233  1.0000
  H   H13       1.0  0.44643  0.07786  0.62936  1.0000
  H   H14       1.0  0.55357  0.92213  0.37064  1.0000
  H   H15       1.0  0.28903  0.02095  0.48211  1.0000
  H   H16       1.0  0.71097  0.97905  0.51789  1.0000
  H   H17       1.0  0.95557  0.39416  0.76061  1.0000
  H   H18       1.0  0.04443  0.60584  0.23938  1.0000
  H   H19       1.0  0.09686  0.34003  0.90366  1.0000
  H   H20       1.0  0.90313  0.65998  0.09634  1.0000
  H   H21       1.0  0.88736  0.43354  0.92123  1.0000
  H   H22       1.0  0.11264  0.56646  0.07877  1.0000
  H   H23       1.0  0.08959  0.72429  0.71980  1.0000
  H   H24       1.0  0.91042  0.27571  0.28020  1.0000
  H   H25       1.0  0.05658  0.91244  0.72289  1.0000
  H   H26       1.0  0.94342  0.08756  0.27711  1.0000
  H   H27       1.0  0.87766  0.79193  0.63936  1.0000
  H   H28       1.0  0.12234  0.20808  0.36064  1.0000
  C   C1        1.0  0.45427  0.67517  0.70218  1.0000
  C   C2        1.0  0.54574  0.32483  0.29782  1.0000
  C   C3        1.0  0.50222  0.58308  0.79862  1.0000
  C   C4        1.0  0.49778  0.41692  0.20138  1.0000
  C   C5        1.0  0.43342  0.44493  0.77007  1.0000
  C   C6        1.0  0.56658  0.55507  0.22994  1.0000
  C   C7        1.0  0.31955  0.39931  0.64896  1.0000
  C   C8        1.0  0.68045  0.60069  0.35104  1.0000
  C   C9        1.0  0.27176  0.48939  0.55139  1.0000
  C   C10       1.0  0.72824  0.51061  0.44861  1.0000
  C   C11       1.0  0.34129  0.62779  0.57989  1.0000
  C   C12       1.0  0.65872  0.37220  0.42011  1.0000
  C   C13       1.0  0.41070  0.85585  0.58792  1.0000
  C   C14       1.0  0.58931  0.14415  0.41208  1.0000
  C   C15       1.0  0.42117  0.99758  0.54237  1.0000
  C   C16       1.0  0.57883  0.00242  0.45763  1.0000
  C   C17       1.0  0.85135  0.21564  0.84128  1.0000
  C   C18       1.0  0.14865  0.78436  0.15872  1.0000
  C   C19       1.0  0.95361  0.35469  0.85634  1.0000
  C   C20       1.0  0.04638  0.64531  0.14365  1.0000
  C   C21       1.0  0.98780  0.81046  0.72527  1.0000
  C   C22       1.0  0.01220  0.18954  0.27473  1.0000
  N   N1        1.0  0.49517  0.81822  0.70330  1.0000
  N   N2        1.0  0.50483  0.18178  0.29670  1.0000
  N   N3        1.0  0.31760  0.74515  0.51112  1.0000
  N   N4        1.0  0.68240  0.25484  0.48888  1.0000
  Cl  Cl1       1.0  0.64879  0.88112  0.10248  1.0000
  Cl  Cl2       1.0  0.35121  0.11888  0.89751  1.0000
  O   O1        1.0  0.84379  0.15636  0.94709  1.0000
  O   O2        1.0  0.15620  0.84364  0.05291  1.0000
  O   O3        1.0  0.77303  0.15941  0.72903  1.0000
  O   O4        1.0  0.22697  0.84058  0.27096  1.0000
  O   O5        1.0  0.90340  0.81032  0.84262  1.0000
  O   O6        1.0  0.09660  0.18968  0.15738  1.0000
