data_image0
_chemical_formula_structural       Ag4H24C36S4N12O12
_chemical_formula_sum              "Ag4 H24 C36 S4 N12 O12"
_cell_length_a       6.40175
_cell_length_b       12.3015
_cell_length_c       13.3885
_cell_angle_alpha    90.0003
_cell_angle_beta     90.001
_cell_angle_gamma    95.5983

_space_group_name_H-M_alt    "P 1"
_space_group_IT_number       1

loop_
  _space_group_symop_operation_xyz
  'x, y, z'

loop_
  _atom_site_type_symbol
  _atom_site_label
  _atom_site_symmetry_multiplicity
  _atom_site_fract_x
  _atom_site_fract_y
  _atom_site_fract_z
  _atom_site_occupancy
  Ag  Ag1       1.0  0.20779  0.94260  0.83298  1.0000
  Ag  Ag2       1.0  0.79221  0.55740  0.33298  1.0000
  Ag  Ag3       1.0  0.79220  0.05740  0.16702  1.0000
  Ag  Ag4       1.0  0.20780  0.44260  0.66701  1.0000
  H   H1        1.0  0.33210  0.32374  0.03639  1.0000
  H   H2        1.0  0.66788  0.17627  0.53638  1.0000
  H   H3        1.0  0.66792  0.67626  0.96361  1.0000
  H   H4        1.0  0.33210  0.82373  0.46361  1.0000
  H   H5        1.0  0.29939  0.21296  0.14716  1.0000
  H   H6        1.0  0.70056  0.28704  0.64715  1.0000
  H   H7        1.0  0.70059  0.78704  0.85284  1.0000
  H   H8        1.0  0.29946  0.71296  0.35285  1.0000
  H   H9        1.0  0.25143  0.82868  0.04222  1.0000
  H   H10       1.0  0.74859  0.67132  0.54222  1.0000
  H   H11       1.0  0.74857  0.17132  0.95778  1.0000
  H   H12       1.0  0.25141  0.32868  0.45778  1.0000
  H   H13       1.0  0.31560  0.87477  0.22520  1.0000
  H   H14       1.0  0.68441  0.62524  0.72520  1.0000
  H   H15       1.0  0.68439  0.12523  0.77480  1.0000
  H   H16       1.0  0.31560  0.37476  0.27480  1.0000
  H   H17       1.0  0.32697  0.06877  0.27782  1.0000
  H   H18       1.0  0.67300  0.43124  0.77781  1.0000
  H   H19       1.0  0.67302  0.93124  0.72218  1.0000
  H   H20       1.0  0.32701  0.56876  0.22219  1.0000
  H   H21       1.0  0.29482  0.44747  0.89169  1.0000
  H   H22       1.0  0.70516  0.05254  0.39169  1.0000
  H   H23       1.0  0.70521  0.55253  0.10831  1.0000
  H   H24       1.0  0.29481  0.94746  0.60831  1.0000
  C   C1        1.0  0.28929  0.28959  0.96356  1.0000
  C   C2        1.0  0.71069  0.21041  0.46356  1.0000
  C   C3        1.0  0.71072  0.71041  0.03644  1.0000
  C   C4        1.0  0.28930  0.78959  0.53644  1.0000
  C   C5        1.0  0.25549  0.17710  0.94599  1.0000
  C   C6        1.0  0.74449  0.32290  0.44599  1.0000
  C   C7        1.0  0.74450  0.82290  0.05400  1.0000
  C   C8        1.0  0.25551  0.67710  0.55401  1.0000
  C   C9        1.0  0.29166  0.12717  0.12668  1.0000
  C   C10       1.0  0.70830  0.37283  0.62668  1.0000
  C   C11       1.0  0.70832  0.87283  0.87332  1.0000
  C   C12       1.0  0.29170  0.62716  0.37332  1.0000
  C   C13       1.0  0.26703  0.91273  0.06938  1.0000
  C   C14       1.0  0.73298  0.58728  0.56939  1.0000
  C   C15       1.0  0.73297  0.08728  0.93062  1.0000
  C   C16       1.0  0.26702  0.41272  0.43062  1.0000
  C   C17       1.0  0.29949  0.93818  0.16995  1.0000
  C   C18       1.0  0.70051  0.56183  0.66995  1.0000
  C   C19       1.0  0.70050  0.06183  0.83005  1.0000
  C   C20       1.0  0.29950  0.43817  0.33005  1.0000
  C   C21       1.0  0.30970  0.04732  0.19919  1.0000
  C   C22       1.0  0.69028  0.45269  0.69919  1.0000
  C   C23       1.0  0.69028  0.95269  0.80081  1.0000
  C   C24       1.0  0.30973  0.54731  0.30081  1.0000
  C   C25       1.0  0.26574  0.09537  0.02648  1.0000
  C   C26       1.0  0.73424  0.40464  0.52648  1.0000
  C   C27       1.0  0.73425  0.90463  0.97352  1.0000
  C   C28       1.0  0.26576  0.59536  0.47352  1.0000
  C   C29       1.0  0.20581  0.21198  0.77893  1.0000
  C   C30       1.0  0.79418  0.28802  0.27893  1.0000
  C   C31       1.0  0.79418  0.78802  0.22107  1.0000
  C   C32       1.0  0.20582  0.71198  0.72107  1.0000
  C   C33       1.0  0.27236  0.35903  0.88323  1.0000
  C   C34       1.0  0.72762  0.14097  0.38323  1.0000
  C   C35       1.0  0.72767  0.64097  0.11676  1.0000
  C   C36       1.0  0.27235  0.85903  0.61677  1.0000
  S   S1        1.0  0.18064  0.15394  0.65343  1.0000
  S   S2        1.0  0.81935  0.34605  0.15343  1.0000
  S   S3        1.0  0.81936  0.84605  0.34658  1.0000
  S   S4        1.0  0.18066  0.65395  0.84657  1.0000
  N   N1        1.0  0.21544  0.13975  0.85247  1.0000
  N   N2        1.0  0.78455  0.36025  0.35247  1.0000
  N   N3        1.0  0.78455  0.86025  0.14753  1.0000
  N   N4        1.0  0.21545  0.63975  0.64753  1.0000
  N   N5        1.0  0.25125  0.98937  0.99926  1.0000
  N   N6        1.0  0.74876  0.51063  0.49926  1.0000
  N   N7        1.0  0.74875  0.01063  0.00074  1.0000
  N   N8        1.0  0.25125  0.48937  0.50074  1.0000
  N   N9        1.0  0.22846  0.32098  0.78990  1.0000
  N   N10       1.0  0.77153  0.17902  0.28990  1.0000
  N   N11       1.0  0.77156  0.67902  0.21010  1.0000
  N   N12       1.0  0.22846  0.82097  0.71010  1.0000
  O   O1        1.0  0.39475  0.12403  0.63605  1.0000
  O   O2        1.0  0.60525  0.37598  0.13605  1.0000
  O   O3        1.0  0.60525  0.87597  0.36395  1.0000
  O   O4        1.0  0.39476  0.62402  0.86395  1.0000
  O   O5        1.0  0.11972  0.24170  0.58920  1.0000
  O   O6        1.0  0.88025  0.25829  0.08920  1.0000
  O   O7        1.0  0.88027  0.75830  0.41080  1.0000
  O   O8        1.0  0.11976  0.74170  0.91080  1.0000
  O   O9        1.0  0.02213  0.06061  0.66119  1.0000
  O   O10       1.0  0.97789  0.43938  0.16120  1.0000
  O   O11       1.0  0.97787  0.93939  0.33881  1.0000
  O   O12       1.0  0.02213  0.56061  0.83881  1.0000
