data_image0
_chemical_formula_structural       H44Pb2C32N8O20
_chemical_formula_sum              "H44 Pb2 C32 N8 O20"
_cell_length_a       9.32108
_cell_length_b       9.32106
_cell_length_c       11.5489
_cell_angle_alpha    96.8727
_cell_angle_beta     96.8728
_cell_angle_gamma    90.3897

_space_group_name_H-M_alt    "P 1"
_space_group_IT_number       1

loop_
  _space_group_symop_operation_xyz
  'x, y, z'

loop_
  _atom_site_type_symbol
  _atom_site_label
  _atom_site_symmetry_multiplicity
  _atom_site_fract_x
  _atom_site_fract_y
  _atom_site_fract_z
  _atom_site_occupancy
  H   H1        1.0  0.66316  0.79096  0.69648  1.0000
  H   H2        1.0  0.20904  0.33684  0.80352  1.0000
  H   H3        1.0  0.33684  0.20904  0.30352  1.0000
  H   H4        1.0  0.79096  0.66316  0.19648  1.0000
  H   H5        1.0  0.33043  0.96458  0.92763  1.0000
  H   H6        1.0  0.03542  0.66957  0.57237  1.0000
  H   H7        1.0  0.66957  0.03541  0.07237  1.0000
  H   H8        1.0  0.96458  0.33043  0.42763  1.0000
  H   H9        1.0  0.66155  0.35139  0.01993  1.0000
  H   H10       1.0  0.64861  0.33845  0.48007  1.0000
  H   H11       1.0  0.33845  0.64860  0.98006  1.0000
  H   H12       1.0  0.35140  0.66155  0.51994  1.0000
  H   H13       1.0  0.64303  0.51996  0.01889  1.0000
  H   H14       1.0  0.48004  0.35697  0.48111  1.0000
  H   H15       1.0  0.35697  0.48004  0.98111  1.0000
  H   H16       1.0  0.51996  0.64303  0.51889  1.0000
  H   H17       1.0  0.86676  0.97226  0.63441  1.0000
  H   H18       1.0  0.02774  0.13325  0.86560  1.0000
  H   H19       1.0  0.13325  0.02774  0.36559  1.0000
  H   H20       1.0  0.97226  0.86676  0.13441  1.0000
  H   H21       1.0  0.80302  0.14740  0.61314  1.0000
  H   H22       1.0  0.85260  0.19698  0.88687  1.0000
  H   H23       1.0  0.19698  0.85260  0.38687  1.0000
  H   H24       1.0  0.14740  0.80302  0.11314  1.0000
  H   H25       1.0  0.62054  0.04390  0.45176  1.0000
  H   H26       1.0  0.95610  0.37946  0.04824  1.0000
  H   H27       1.0  0.37946  0.95611  0.54824  1.0000
  H   H28       1.0  0.04390  0.62054  0.95177  1.0000
  H   H29       1.0  0.66582  0.86556  0.47793  1.0000
  H   H30       1.0  0.13444  0.33418  0.02207  1.0000
  H   H31       1.0  0.33418  0.13444  0.52207  1.0000
  H   H32       1.0  0.86556  0.66582  0.97793  1.0000
  H   H33       1.0  0.87295  0.08319  0.39859  1.0000
  H   H34       1.0  0.91681  0.12705  0.10141  1.0000
  H   H35       1.0  0.12705  0.91681  0.60141  1.0000
  H   H36       1.0  0.08319  0.87295  0.89859  1.0000
  H   H37       1.0  0.78438  0.93462  0.30829  1.0000
  H   H38       1.0  0.06538  0.21562  0.19171  1.0000
  H   H39       1.0  0.21562  0.06538  0.69171  1.0000
  H   H40       1.0  0.93462  0.78438  0.80829  1.0000
  H   H41       1.0  0.91536  0.90327  0.42629  1.0000
  H   H42       1.0  0.09673  0.08464  0.07371  1.0000
  H   H43       1.0  0.08464  0.09673  0.57371  1.0000
  H   H44       1.0  0.90327  0.91536  0.92629  1.0000
  Pb  Pb1       1.0  0.58834  0.41166  0.75000  1.0000
  Pb  Pb2       1.0  0.41165  0.58835  0.25000  1.0000
  C   C1        1.0  0.66429  0.02043  0.69275  1.0000
  C   C2        1.0  0.97957  0.33571  0.80725  1.0000
  C   C3        1.0  0.33571  0.97957  0.30724  1.0000
  C   C4        1.0  0.02043  0.66429  0.19276  1.0000
  C   C5        1.0  0.49989  0.06256  0.81141  1.0000
  C   C6        1.0  0.93744  0.50011  0.68859  1.0000
  C   C7        1.0  0.50011  0.93744  0.18859  1.0000
  C   C8        1.0  0.06256  0.49989  0.31141  1.0000
  C   C9        1.0  0.52260  0.91385  0.80077  1.0000
  C   C10       1.0  0.08615  0.47739  0.69923  1.0000
  C   C11       1.0  0.47739  0.08615  0.19923  1.0000
  C   C12       1.0  0.91385  0.52260  0.30077  1.0000
  C   C13       1.0  0.39406  0.14775  0.87318  1.0000
  C   C14       1.0  0.85225  0.60594  0.62682  1.0000
  C   C15       1.0  0.60594  0.85224  0.12682  1.0000
  C   C16       1.0  0.14775  0.39406  0.37318  1.0000
  C   C17       1.0  0.46800  0.79360  0.85763  1.0000
  C   C18       1.0  0.20640  0.53199  0.64237  1.0000
  C   C19       1.0  0.53200  0.20640  0.14237  1.0000
  C   C20       1.0  0.79360  0.46801  0.35763  1.0000
  C   C21       1.0  0.77015  0.03330  0.60787  1.0000
  C   C22       1.0  0.96670  0.22985  0.89213  1.0000
  C   C23       1.0  0.22985  0.96670  0.39213  1.0000
  C   C24       1.0  0.03330  0.77015  0.10787  1.0000
  C   C25       1.0  0.71034  0.97554  0.48044  1.0000
  C   C26       1.0  0.02446  0.28967  0.01957  1.0000
  C   C27       1.0  0.28967  0.02446  0.51956  1.0000
  C   C28       1.0  0.97554  0.71034  0.98044  1.0000
  C   C29       1.0  0.82753  0.97435  0.39903  1.0000
  C   C30       1.0  0.02565  0.17247  0.10097  1.0000
  C   C31       1.0  0.17248  0.02565  0.60097  1.0000
  C   C32       1.0  0.97435  0.82753  0.89903  1.0000
  N   N1        1.0  0.62588  0.89157  0.72602  1.0000
  N   N2        1.0  0.10843  0.37412  0.77398  1.0000
  N   N3        1.0  0.37412  0.10843  0.27398  1.0000
  N   N4        1.0  0.89157  0.62588  0.22602  1.0000
  N   N5        1.0  0.58984  0.12639  0.74490  1.0000
  N   N6        1.0  0.87361  0.41017  0.75510  1.0000
  N   N7        1.0  0.41016  0.87361  0.25510  1.0000
  N   N8        1.0  0.12639  0.58983  0.24490  1.0000
  O   O1        1.0  0.38260  0.28072  0.86567  1.0000
  O   O2        1.0  0.71928  0.61740  0.63433  1.0000
  O   O3        1.0  0.61740  0.71927  0.13433  1.0000
  O   O4        1.0  0.28072  0.38259  0.36567  1.0000
  O   O5        1.0  0.30837  0.08054  0.93198  1.0000
  O   O6        1.0  0.91946  0.69163  0.56802  1.0000
  O   O7        1.0  0.69162  0.91946  0.06802  1.0000
  O   O8        1.0  0.08053  0.30837  0.43198  1.0000
  O   O9        1.0  0.36328  0.82131  0.92079  1.0000
  O   O10       1.0  0.17869  0.63672  0.57921  1.0000
  O   O11       1.0  0.63672  0.17868  0.07920  1.0000
  O   O12       1.0  0.82131  0.36328  0.42079  1.0000
  O   O13       1.0  0.52762  0.67394  0.84510  1.0000
  O   O14       1.0  0.32606  0.47237  0.65490  1.0000
  O   O15       1.0  0.47238  0.32606  0.15490  1.0000
  O   O16       1.0  0.67394  0.52763  0.34509  1.0000
  O   O17       1.0  0.68533  0.43471  0.97919  1.0000
  O   O18       1.0  0.56529  0.31467  0.52081  1.0000
  O   O19       1.0  0.31467  0.56529  0.02081  1.0000
  O   O20       1.0  0.43471  0.68533  0.47919  1.0000
