data_image0
_chemical_formula_structural       H44Pb2C32N8O20
_chemical_formula_sum              "H44 Pb2 C32 N8 O20"
_cell_length_a       9.41011
_cell_length_b       9.4099
_cell_length_c       11.1615
_cell_angle_alpha    96.1192
_cell_angle_beta     96.1181
_cell_angle_gamma    89.755

_space_group_name_H-M_alt    "P 1"
_space_group_IT_number       1

loop_
  _space_group_symop_operation_xyz
  'x, y, z'

loop_
  _atom_site_type_symbol
  _atom_site_label
  _atom_site_symmetry_multiplicity
  _atom_site_fract_x
  _atom_site_fract_y
  _atom_site_fract_z
  _atom_site_occupancy
  H   H1        1.0  0.84721  0.70382  0.29850  1.0000
  H   H2        1.0  0.29618  0.15278  0.20149  1.0000
  H   H3        1.0  0.15279  0.29618  0.70151  1.0000
  H   H4        1.0  0.70382  0.84722  0.79850  1.0000
  H   H5        1.0  0.17713  0.53888  0.06614  1.0000
  H   H6        1.0  0.46113  0.82287  0.43387  1.0000
  H   H7        1.0  0.82289  0.46115  0.93388  1.0000
  H   H8        1.0  0.53885  0.17711  0.56612  1.0000
  H   H9        1.0  0.05569  0.15173  0.52131  1.0000
  H   H10       1.0  0.84828  0.94431  0.97869  1.0000
  H   H11       1.0  0.94429  0.84828  0.47868  1.0000
  H   H12       1.0  0.15172  0.05570  0.02131  1.0000
  H   H13       1.0  0.89607  0.12544  0.53611  1.0000
  H   H14       1.0  0.87457  0.10393  0.96389  1.0000
  H   H15       1.0  0.10392  0.87456  0.46390  1.0000
  H   H16       1.0  0.12545  0.89607  0.03610  1.0000
  H   H17       1.0  0.69353  0.35547  0.38357  1.0000
  H   H18       1.0  0.64452  0.30647  0.11643  1.0000
  H   H19       1.0  0.30647  0.64452  0.61642  1.0000
  H   H20       1.0  0.35548  0.69354  0.88358  1.0000
  H   H21       1.0  0.63727  0.53274  0.36288  1.0000
  H   H22       1.0  0.46726  0.36273  0.13712  1.0000
  H   H23       1.0  0.36272  0.46725  0.63712  1.0000
  H   H24       1.0  0.53274  0.63727  0.86288  1.0000
  H   H25       1.0  0.87037  0.44357  0.55226  1.0000
  H   H26       1.0  0.55644  0.12963  0.94774  1.0000
  H   H27       1.0  0.12962  0.55641  0.44774  1.0000
  H   H28       1.0  0.44358  0.87037  0.05227  1.0000
  H   H29       1.0  0.83613  0.62376  0.52675  1.0000
  H   H30       1.0  0.37625  0.16385  0.97325  1.0000
  H   H31       1.0  0.16386  0.37623  0.47326  1.0000
  H   H32       1.0  0.62376  0.83614  0.02675  1.0000
  H   H33       1.0  0.58581  0.60205  0.57758  1.0000
  H   H34       1.0  0.39795  0.41418  0.92242  1.0000
  H   H35       1.0  0.41417  0.39794  0.42242  1.0000
  H   H36       1.0  0.60206  0.58581  0.07757  1.0000
  H   H37       1.0  0.70802  0.55663  0.69948  1.0000
  H   H38       1.0  0.44337  0.29198  0.80051  1.0000
  H   H39       1.0  0.29197  0.44334  0.30052  1.0000
  H   H40       1.0  0.55664  0.70801  0.19949  1.0000
  H   H41       1.0  0.61497  0.41976  0.60229  1.0000
  H   H42       1.0  0.58023  0.38504  0.89771  1.0000
  H   H43       1.0  0.38502  0.58022  0.39771  1.0000
  H   H44       1.0  0.41977  0.61496  0.10229  1.0000
  Pb  Pb1       1.0  0.91540  0.08459  0.25000  1.0000
  Pb  Pb2       1.0  0.08459  0.91542  0.75000  1.0000
  C   C1        1.0  0.11383  0.33754  0.12619  1.0000
  C   C2        1.0  0.66245  0.88616  0.37381  1.0000
  C   C3        1.0  0.88617  0.66248  0.87381  1.0000
  C   C4        1.0  0.33754  0.11383  0.62619  1.0000
  C   C5        1.0  0.00819  0.42703  0.18795  1.0000
  C   C6        1.0  0.57297  0.99181  0.31204  1.0000
  C   C7        1.0  0.99181  0.57299  0.81205  1.0000
  C   C8        1.0  0.42703  0.00818  0.68795  1.0000
  C   C9        1.0  0.98937  0.57511  0.19602  1.0000
  C   C10       1.0  0.42490  0.01062  0.30398  1.0000
  C   C11       1.0  0.01063  0.42491  0.80399  1.0000
  C   C12       1.0  0.57511  0.98937  0.69601  1.0000
  C   C13       1.0  0.05303  0.68937  0.13846  1.0000
  C   C14       1.0  0.31063  0.94697  0.36155  1.0000
  C   C15       1.0  0.94698  0.31064  0.86156  1.0000
  C   C16       1.0  0.68937  0.05303  0.63845  1.0000
  C   C17       1.0  0.83896  0.47698  0.30493  1.0000
  C   C18       1.0  0.52302  0.16104  0.19506  1.0000
  C   C19       1.0  0.16104  0.52302  0.69507  1.0000
  C   C20       1.0  0.47699  0.83896  0.80494  1.0000
  C   C21       1.0  0.72963  0.46709  0.39026  1.0000
  C   C22       1.0  0.53291  0.27038  0.10974  1.0000
  C   C23       1.0  0.27037  0.53290  0.60973  1.0000
  C   C24       1.0  0.46710  0.72963  0.89027  1.0000
  C   C25       1.0  0.78638  0.51763  0.52256  1.0000
  C   C26       1.0  0.48237  0.21361  0.97743  1.0000
  C   C27       1.0  0.21361  0.48236  0.47744  1.0000
  C   C28       1.0  0.51764  0.78638  0.02257  1.0000
  C   C29       1.0  0.66685  0.52434  0.60495  1.0000
  C   C30       1.0  0.47566  0.33314  0.89506  1.0000
  C   C31       1.0  0.33314  0.47564  0.39506  1.0000
  C   C32       1.0  0.52435  0.66686  0.10494  1.0000
  N   N1        1.0  0.91330  0.36866  0.25487  1.0000
  N   N2        1.0  0.63134  0.08669  0.24513  1.0000
  N   N3        1.0  0.08670  0.63136  0.74513  1.0000
  N   N4        1.0  0.36866  0.91330  0.75487  1.0000
  N   N5        1.0  0.88257  0.60246  0.26993  1.0000
  N   N6        1.0  0.39754  0.11743  0.23007  1.0000
  N   N7        1.0  0.11743  0.39754  0.73009  1.0000
  N   N8        1.0  0.60246  0.88257  0.76992  1.0000
  O   O1        1.0  0.11960  0.20494  0.14125  1.0000
  O   O2        1.0  0.79505  0.88039  0.35874  1.0000
  O   O3        1.0  0.88039  0.79507  0.85874  1.0000
  O   O4        1.0  0.20494  0.11961  0.64126  1.0000
  O   O5        1.0  0.19783  0.39598  0.06304  1.0000
  O   O6        1.0  0.60401  0.80216  0.43695  1.0000
  O   O7        1.0  0.80218  0.60403  0.93696  1.0000
  O   O8        1.0  0.39598  0.19783  0.56304  1.0000
  O   O9        1.0  0.15665  0.65367  0.07111  1.0000
  O   O10       1.0  0.34633  0.84335  0.42890  1.0000
  O   O11       1.0  0.84337  0.34634  0.92891  1.0000
  O   O12       1.0  0.65366  0.15663  0.57109  1.0000
  O   O13       1.0  0.00896  0.81457  0.14998  1.0000
  O   O14       1.0  0.18543  0.99103  0.35002  1.0000
  O   O15       1.0  0.99103  0.18544  0.85002  1.0000
  O   O16       1.0  0.81457  0.00898  0.64998  1.0000
  O   O17       1.0  0.95811  0.17171  0.48553  1.0000
  O   O18       1.0  0.82830  0.04189  0.01447  1.0000
  O   O19       1.0  0.04187  0.82830  0.51447  1.0000
  O   O20       1.0  0.17171  0.95813  0.98553  1.0000
