data_image0
_chemical_formula_structural       Cd2H28C28N8O16
_chemical_formula_sum              "Cd2 H28 C28 N8 O16"
_cell_length_a       8.01841
_cell_length_b       8.01839
_cell_length_c       13.4496
_cell_angle_alpha    90.9417
_cell_angle_beta     90.9418
_cell_angle_gamma    112.512

_space_group_name_H-M_alt    "P 1"
_space_group_IT_number       1

loop_
  _space_group_symop_operation_xyz
  'x, y, z'

loop_
  _atom_site_type_symbol
  _atom_site_label
  _atom_site_symmetry_multiplicity
  _atom_site_fract_x
  _atom_site_fract_y
  _atom_site_fract_z
  _atom_site_occupancy
  Cd  Cd1       1.0  0.70597  0.29403  0.75000  1.0000
  Cd  Cd2       1.0  0.29403  0.70597  0.25000  1.0000
  H   H1        1.0  0.58617  0.33517  0.11090  1.0000
  H   H2        1.0  0.66482  0.41383  0.38910  1.0000
  H   H3        1.0  0.41383  0.66482  0.88910  1.0000
  H   H4        1.0  0.33518  0.58617  0.61090  1.0000
  H   H5        1.0  0.56585  0.17458  0.01273  1.0000
  H   H6        1.0  0.82542  0.43415  0.48727  1.0000
  H   H7        1.0  0.43415  0.82542  0.98727  1.0000
  H   H8        1.0  0.17458  0.56585  0.51273  1.0000
  H   H9        1.0  0.47701  0.09798  0.13290  1.0000
  H   H10       1.0  0.90202  0.52299  0.36710  1.0000
  H   H11       1.0  0.52299  0.90203  0.86710  1.0000
  H   H12       1.0  0.09798  0.47701  0.63290  1.0000
  H   H13       1.0  0.20436  0.18622  0.18956  1.0000
  H   H14       1.0  0.81377  0.79564  0.31044  1.0000
  H   H15       1.0  0.79564  0.81377  0.81044  1.0000
  H   H16       1.0  0.18623  0.20436  0.68956  1.0000
  H   H17       1.0  0.79769  0.12080  0.10228  1.0000
  H   H18       1.0  0.87920  0.20231  0.39772  1.0000
  H   H19       1.0  0.20231  0.87920  0.89772  1.0000
  H   H20       1.0  0.12080  0.79769  0.60228  1.0000
  H   H21       1.0  0.88018  0.35348  0.06907  1.0000
  H   H22       1.0  0.64652  0.11982  0.43093  1.0000
  H   H23       1.0  0.11982  0.64652  0.93093  1.0000
  H   H24       1.0  0.35347  0.88018  0.56907  1.0000
  H   H25       1.0  0.95180  0.28946  0.18437  1.0000
  H   H26       1.0  0.71054  0.04821  0.31563  1.0000
  H   H27       1.0  0.04820  0.71054  0.81563  1.0000
  H   H28       1.0  0.28946  0.95179  0.68437  1.0000
  C   C1        1.0  0.11523  0.25662  0.95820  1.0000
  C   C2        1.0  0.74338  0.88477  0.54180  1.0000
  C   C3        1.0  0.88477  0.74338  0.04180  1.0000
  C   C4        1.0  0.25662  0.11523  0.45820  1.0000
  C   C5        1.0  0.28246  0.24444  0.95261  1.0000
  C   C6        1.0  0.75556  0.71755  0.54739  1.0000
  C   C7        1.0  0.71754  0.75556  0.04739  1.0000
  C   C8        1.0  0.24444  0.28245  0.45261  1.0000
  C   C9        1.0  0.50088  0.20322  0.07801  1.0000
  C   C10       1.0  0.79678  0.49912  0.42199  1.0000
  C   C11       1.0  0.49912  0.79678  0.92199  1.0000
  C   C12       1.0  0.20322  0.50088  0.57801  1.0000
  C   C13       1.0  0.19933  0.20670  0.10999  1.0000
  C   C14       1.0  0.79330  0.80068  0.39001  1.0000
  C   C15       1.0  0.80067  0.79330  0.89001  1.0000
  C   C16       1.0  0.20670  0.19932  0.60999  1.0000
  C   C17       1.0  0.91338  0.25013  0.10644  1.0000
  C   C18       1.0  0.74987  0.08663  0.39356  1.0000
  C   C19       1.0  0.08663  0.74987  0.89356  1.0000
  C   C20       1.0  0.25013  0.91337  0.60644  1.0000
  C   C21       1.0  0.00215  0.28079  0.87538  1.0000
  C   C22       1.0  0.71921  0.99785  0.62462  1.0000
  C   C23       1.0  0.99784  0.71920  0.12463  1.0000
  C   C24       1.0  0.28079  0.00215  0.37538  1.0000
  C   C25       1.0  0.41588  0.27001  0.87093  1.0000
  C   C26       1.0  0.72999  0.58412  0.62907  1.0000
  C   C27       1.0  0.58412  0.72999  0.12907  1.0000
  C   C28       1.0  0.27001  0.41588  0.37093  1.0000
  N   N1        1.0  0.06900  0.23436  0.05855  1.0000
  N   N2        1.0  0.76563  0.93100  0.44145  1.0000
  N   N3        1.0  0.93100  0.76563  0.94145  1.0000
  N   N4        1.0  0.23437  0.06900  0.55855  1.0000
  N   N5        1.0  0.32893  0.21052  0.04711  1.0000
  N   N6        1.0  0.78947  0.67107  0.45289  1.0000
  N   N7        1.0  0.67107  0.78947  0.95289  1.0000
  N   N8        1.0  0.21053  0.32893  0.54711  1.0000
  O   O1        1.0  0.84045  0.26495  0.89550  1.0000
  O   O2        1.0  0.73505  0.15955  0.60450  1.0000
  O   O3        1.0  0.15955  0.73504  0.10450  1.0000
  O   O4        1.0  0.26495  0.84045  0.39550  1.0000
  O   O5        1.0  0.07169  0.31405  0.79121  1.0000
  O   O6        1.0  0.68596  0.92832  0.70879  1.0000
  O   O7        1.0  0.92831  0.68595  0.20879  1.0000
  O   O8        1.0  0.31404  0.07168  0.29121  1.0000
  O   O9        1.0  0.40244  0.13284  0.81721  1.0000
  O   O10       1.0  0.86716  0.59757  0.68279  1.0000
  O   O11       1.0  0.59757  0.86716  0.18279  1.0000
  O   O12       1.0  0.13284  0.40243  0.31721  1.0000
  O   O13       1.0  0.54184  0.42318  0.86761  1.0000
  O   O14       1.0  0.57682  0.45817  0.63239  1.0000
  O   O15       1.0  0.45816  0.57683  0.13239  1.0000
  O   O16       1.0  0.42318  0.54184  0.36762  1.0000
