data_image0
_chemical_formula_structural       Cd2H24C24I4N4
_chemical_formula_sum              "Cd2 H24 C24 I4 N4"
_cell_length_a       7.82474
_cell_length_b       10.0362
_cell_length_c       10.4403
_cell_angle_alpha    118.728
_cell_angle_beta     98.3678
_cell_angle_gamma    90.0003

_space_group_name_H-M_alt    "P 1"
_space_group_IT_number       1

loop_
  _space_group_symop_operation_xyz
  'x, y, z'

loop_
  _atom_site_type_symbol
  _atom_site_label
  _atom_site_symmetry_multiplicity
  _atom_site_fract_x
  _atom_site_fract_y
  _atom_site_fract_z
  _atom_site_occupancy
  Cd  Cd1       1.0  0.75000  0.92280  1.00000  1.0000
  Cd  Cd2       1.0  0.25000  0.07720  0.00000  1.0000
  H   H1        1.0  0.03758  0.97688  0.28208  1.0000
  H   H2        1.0  0.46241  0.69480  0.71792  1.0000
  H   H3        1.0  0.96241  0.02312  0.71793  1.0000
  H   H4        1.0  0.53759  0.30520  0.28208  1.0000
  H   H5        1.0  0.32469  0.81300  0.44404  1.0000
  H   H6        1.0  0.17531  0.36897  0.55596  1.0000
  H   H7        1.0  0.67531  0.18700  0.55597  1.0000
  H   H8        1.0  0.82469  0.63104  0.44404  1.0000
  H   H9        1.0  0.15914  0.85912  0.55233  1.0000
  H   H10       1.0  0.34086  0.30679  0.44767  1.0000
  H   H11       1.0  0.84086  0.14088  0.44767  1.0000
  H   H12       1.0  0.65914  0.69321  0.55233  1.0000
  H   H13       1.0  0.22524  0.98545  0.49003  1.0000
  H   H14       1.0  0.27476  0.49543  0.50998  1.0000
  H   H15       1.0  0.77476  0.01455  0.50998  1.0000
  H   H16       1.0  0.72524  0.50457  0.49003  1.0000
  H   H17       1.0  0.06572  0.56305  0.31242  1.0000
  H   H18       1.0  0.43428  0.25062  0.68757  1.0000
  H   H19       1.0  0.93428  0.43696  0.68758  1.0000
  H   H20       1.0  0.56572  0.74938  0.31243  1.0000
  H   H21       1.0  0.84436  0.44037  0.09049  1.0000
  H   H22       1.0  0.65564  0.34988  0.90951  1.0000
  H   H23       1.0  0.15564  0.55963  0.90951  1.0000
  H   H24       1.0  0.34436  0.65012  0.09049  1.0000
  C   C1        1.0  0.99619  0.85815  0.24500  1.0000
  C   C2        1.0  0.50381  0.61315  0.75500  1.0000
  C   C3        1.0  0.00381  0.14185  0.75500  1.0000
  C   C4        1.0  0.49619  0.38685  0.24500  1.0000
  C   C5        1.0  0.06887  0.78385  0.32139  1.0000
  C   C6        1.0  0.43113  0.46246  0.67860  1.0000
  C   C7        1.0  0.93113  0.21615  0.67860  1.0000
  C   C8        1.0  0.56887  0.53754  0.32140  1.0000
  C   C9        1.0  0.20067  0.86525  0.45891  1.0000
  C   C10       1.0  0.29933  0.40634  0.54109  1.0000
  C   C11       1.0  0.79933  0.13475  0.54109  1.0000
  C   C12       1.0  0.70067  0.59366  0.45891  1.0000
  C   C13       1.0  0.01190  0.62993  0.26121  1.0000
  C   C14       1.0  0.48810  0.36871  0.73879  1.0000
  C   C15       1.0  0.98811  0.37007  0.73879  1.0000
  C   C16       1.0  0.51190  0.63129  0.26121  1.0000
  C   C17       1.0  0.88657  0.55995  0.13473  1.0000
  C   C18       1.0  0.61342  0.42523  0.86527  1.0000
  C   C19       1.0  0.11343  0.44005  0.86527  1.0000
  C   C20       1.0  0.38658  0.57477  0.13473  1.0000
  C   C21       1.0  0.81759  0.64413  0.06710  1.0000
  C   C22       1.0  0.68241  0.57702  0.93290  1.0000
  C   C23       1.0  0.18241  0.35588  0.93290  1.0000
  C   C24       1.0  0.31759  0.42297  0.06710  1.0000
  I   I1        1.0  0.95528  0.20674  0.19584  1.0000
  I   I2        1.0  0.54472  0.01090  0.80417  1.0000
  I   I3        1.0  0.04472  0.79326  0.80417  1.0000
  I   I4        1.0  0.45528  0.98910  0.19584  1.0000
  N   N1        1.0  0.87489  0.79140  0.12355  1.0000
  N   N2        1.0  0.62510  0.66785  0.87645  1.0000
  N   N3        1.0  0.12510  0.20860  0.87645  1.0000
  N   N4        1.0  0.37490  0.33215  0.12355  1.0000
