data_image0
_chemical_formula_structural       Rb4H24C32Cl8O14
_chemical_formula_sum              "Rb4 H24 C32 Cl8 O14"
_cell_length_a       4.24061
_cell_length_b       12.9016
_cell_length_c       19.9525
_cell_angle_alpha    98.0985
_cell_angle_beta     96.0902
_cell_angle_gamma    89.9536

_space_group_name_H-M_alt    "P 1"
_space_group_IT_number       1

loop_
  _space_group_symop_operation_xyz
  'x, y, z'

loop_
  _atom_site_type_symbol
  _atom_site_label
  _atom_site_symmetry_multiplicity
  _atom_site_fract_x
  _atom_site_fract_y
  _atom_site_fract_z
  _atom_site_occupancy
  Rb  Rb1       1.0  0.24178  0.41040  0.06503  1.0000
  Rb  Rb2       1.0  0.17716  0.08970  0.93491  1.0000
  Rb  Rb3       1.0  0.75821  0.58960  0.93497  1.0000
  Rb  Rb4       1.0  0.82283  0.91030  0.06509  1.0000
  H   H1        1.0  0.63212  0.26690  0.96194  1.0000
  H   H2        1.0  0.66967  0.23315  0.03809  1.0000
  H   H3        1.0  0.36787  0.73310  0.03806  1.0000
  H   H4        1.0  0.33033  0.76685  0.96191  1.0000
  H   H5        1.0  0.46034  0.39039  0.21845  1.0000
  H   H6        1.0  0.24068  0.10958  0.78132  1.0000
  H   H7        1.0  0.53967  0.60961  0.78155  1.0000
  H   H8        1.0  0.75932  0.89043  0.21868  1.0000
  H   H9        1.0  0.57977  0.46288  0.43773  1.0000
  H   H10       1.0  0.14028  0.03704  0.56204  1.0000
  H   H11       1.0  0.42024  0.53712  0.56227  1.0000
  H   H12       1.0  0.85972  0.96296  0.43796  1.0000
  H   H13       1.0  0.00268  0.66137  0.31941  1.0000
  H   H14       1.0  0.68228  0.83879  0.68052  1.0000
  H   H15       1.0  0.99733  0.33863  0.68059  1.0000
  H   H16       1.0  0.31772  0.16121  0.31948  1.0000
  H   H17       1.0  0.07364  0.70880  0.20595  1.0000
  H   H18       1.0  0.86872  0.79127  0.79401  1.0000
  H   H19       1.0  0.92636  0.29120  0.79405  1.0000
  H   H20       1.0  0.13127  0.20874  0.20599  1.0000
  H   H21       1.0  0.73040  0.64553  0.22682  1.0000
  H   H22       1.0  0.50408  0.85449  0.77331  1.0000
  H   H23       1.0  0.26960  0.35446  0.77318  1.0000
  H   H24       1.0  0.49592  0.14551  0.22669  1.0000
  C   C1        1.0  0.21783  0.52932  0.26091  1.0000
  C   C2        1.0  0.95601  0.97073  0.73894  1.0000
  C   C3        1.0  0.78217  0.47067  0.73908  1.0000
  C   C4        1.0  0.04399  0.02927  0.26106  1.0000
  C   C5        1.0  0.41136  0.44147  0.26440  1.0000
  C   C6        1.0  0.14562  0.05855  0.73537  1.0000
  C   C7        1.0  0.58865  0.55853  0.73560  1.0000
  C   C8        1.0  0.85438  0.94145  0.26463  1.0000
  C   C9        1.0  0.53729  0.41998  0.32816  1.0000
  C   C10       1.0  0.20745  0.08002  0.67159  1.0000
  C   C11       1.0  0.46272  0.58002  0.67184  1.0000
  C   C12       1.0  0.79256  0.91998  0.32841  1.0000
  C   C13       1.0  0.47911  0.48201  0.38866  1.0000
  C   C14       1.0  0.08874  0.01797  0.61113  1.0000
  C   C15       1.0  0.52089  0.51799  0.61134  1.0000
  C   C16       1.0  0.91126  0.98203  0.38887  1.0000
  C   C17       1.0  0.28551  0.56825  0.38319  1.0000
  C   C18       1.0  0.90084  0.93181  0.61666  1.0000
  C   C19       1.0  0.71449  0.43175  0.61681  1.0000
  C   C20       1.0  0.09916  0.06819  0.38334  1.0000
  C   C21       1.0  0.15489  0.59375  0.32043  1.0000
  C   C22       1.0  0.83328  0.90636  0.67944  1.0000
  C   C23       1.0  0.84512  0.40625  0.67956  1.0000
  C   C24       1.0  0.16672  0.09365  0.32056  1.0000
  C   C25       1.0  0.91583  0.63963  0.19188  1.0000
  C   C26       1.0  0.72469  0.86042  0.80815  1.0000
  C   C27       1.0  0.08416  0.36037  0.80812  1.0000
  C   C28       1.0  0.27531  0.13958  0.19186  1.0000
  C   C29       1.0  0.74950  0.64060  0.12016  1.0000
  C   C30       1.0  0.63073  0.85949  0.87993  1.0000
  C   C31       1.0  0.25050  0.35940  0.87984  1.0000
  C   C32       1.0  0.36927  0.14052  0.12007  1.0000
  Cl  Cl1       1.0  0.77102  0.31036  0.33326  1.0000
  Cl  Cl2       1.0  0.43581  0.18952  0.66643  1.0000
  Cl  Cl3       1.0  0.22899  0.68964  0.66674  1.0000
  Cl  Cl4       1.0  0.56420  0.81047  0.33357  1.0000
  Cl  Cl5       1.0  0.19677  0.64670  0.45643  1.0000
  Cl  Cl6       1.0  0.73900  0.85337  0.54346  1.0000
  Cl  Cl7       1.0  0.80324  0.35330  0.54357  1.0000
  Cl  Cl8       1.0  0.26100  0.14663  0.45654  1.0000
  O   O1        1.0  0.78748  0.25011  0.00008  1.0000
  O   O2        1.0  0.21252  0.74989  0.99992  1.0000
  O   O3        1.0  0.09538  0.54588  0.19687  1.0000
  O   O4        1.0  0.89846  0.95419  0.80304  1.0000
  O   O5        1.0  0.90463  0.45412  0.80313  1.0000
  O   O6        1.0  0.10153  0.04582  0.19697  1.0000
  O   O7        1.0  0.75218  0.56010  0.07609  1.0000
  O   O8        1.0  0.67745  0.93999  0.92398  1.0000
  O   O9        1.0  0.24782  0.43990  0.92391  1.0000
  O   O10       1.0  0.32254  0.06002  0.07602  1.0000
  O   O11       1.0  0.61098  0.72631  0.11230  1.0000
  O   O12       1.0  0.50048  0.77380  0.88784  1.0000
  O   O13       1.0  0.38903  0.27369  0.88770  1.0000
  O   O14       1.0  0.49951  0.22620  0.11216  1.0000
