data_image0
_chemical_formula_structural       K4H24C32Cl8O14
_chemical_formula_sum              "K4 H24 C32 Cl8 O14"
_cell_length_a       4.24807
_cell_length_b       12.4748
_cell_length_c       19.79
_cell_angle_alpha    99.2805
_cell_angle_beta     96.1826
_cell_angle_gamma    89.9887

_space_group_name_H-M_alt    "P 1"
_space_group_IT_number       1

loop_
  _space_group_symop_operation_xyz
  'x, y, z'

loop_
  _atom_site_type_symbol
  _atom_site_label
  _atom_site_symmetry_multiplicity
  _atom_site_fract_x
  _atom_site_fract_y
  _atom_site_fract_z
  _atom_site_occupancy
  K   K1        1.0  0.24481  0.40952  0.06158  1.0000
  K   K2        1.0  0.18299  0.09047  0.93843  1.0000
  K   K3        1.0  0.75519  0.59048  0.93842  1.0000
  K   K4        1.0  0.81701  0.90953  0.06156  1.0000
  H   H1        1.0  0.64635  0.26739  0.96239  1.0000
  H   H2        1.0  0.68401  0.23261  0.03762  1.0000
  H   H3        1.0  0.35365  0.73261  0.03761  1.0000
  H   H4        1.0  0.31599  0.76739  0.96238  1.0000
  H   H5        1.0  0.47916  0.38320  0.21416  1.0000
  H   H6        1.0  0.26507  0.11667  0.78594  1.0000
  H   H7        1.0  0.52084  0.61680  0.78584  1.0000
  H   H8        1.0  0.73493  0.88333  0.21407  1.0000
  H   H9        1.0  0.56759  0.45734  0.43648  1.0000
  H   H10       1.0  0.13078  0.04275  0.56362  1.0000
  H   H11       1.0  0.43241  0.54266  0.56352  1.0000
  H   H12       1.0  0.86922  0.95726  0.43638  1.0000
  H   H13       1.0  0.98470  0.65685  0.31686  1.0000
  H   H14       1.0  0.66763  0.84316  0.68313  1.0000
  H   H15       1.0  0.01530  0.34315  0.68314  1.0000
  H   H16       1.0  0.33237  0.15684  0.31687  1.0000
  H   H17       1.0  0.07551  0.70948  0.20391  1.0000
  H   H18       1.0  0.87115  0.79051  0.79612  1.0000
  H   H19       1.0  0.92449  0.29052  0.79609  1.0000
  H   H20       1.0  0.12885  0.20949  0.20388  1.0000
  H   H21       1.0  0.73373  0.64153  0.22265  1.0000
  H   H22       1.0  0.51072  0.85861  0.77736  1.0000
  H   H23       1.0  0.26627  0.35847  0.77735  1.0000
  H   H24       1.0  0.48928  0.14139  0.22264  1.0000
  C   C1        1.0  0.21956  0.52361  0.25748  1.0000
  C   C2        1.0  0.96200  0.97634  0.74257  1.0000
  C   C3        1.0  0.78044  0.47639  0.74253  1.0000
  C   C4        1.0  0.03800  0.02366  0.25743  1.0000
  C   C5        1.0  0.42050  0.43492  0.26087  1.0000
  C   C6        1.0  0.15959  0.06501  0.73922  1.0000
  C   C7        1.0  0.57950  0.56508  0.73913  1.0000
  C   C8        1.0  0.84041  0.93499  0.26078  1.0000
  C   C9        1.0  0.54061  0.41358  0.32550  1.0000
  C   C10       1.0  0.21492  0.08638  0.67460  1.0000
  C   C11       1.0  0.45939  0.58642  0.67450  1.0000
  C   C12       1.0  0.78508  0.91363  0.32540  1.0000
  C   C13       1.0  0.47000  0.47637  0.38683  1.0000
  C   C14       1.0  0.08285  0.02366  0.61325  1.0000
  C   C15       1.0  0.53000  0.52363  0.61317  1.0000
  C   C16       1.0  0.91715  0.97634  0.38675  1.0000
  C   C17       1.0  0.26910  0.56340  0.38136  1.0000
  C   C18       1.0  0.88749  0.93664  0.61868  1.0000
  C   C19       1.0  0.73089  0.43660  0.61864  1.0000
  C   C20       1.0  0.11251  0.06337  0.38132  1.0000
  C   C21       1.0  0.14282  0.58861  0.31780  1.0000
  C   C22       1.0  0.82481  0.91139  0.68221  1.0000
  C   C23       1.0  0.85718  0.41139  0.68220  1.0000
  C   C24       1.0  0.17518  0.08861  0.31779  1.0000
  C   C25       1.0  0.92178  0.63676  0.18819  1.0000
  C   C26       1.0  0.73331  0.86329  0.81183  1.0000
  C   C27       1.0  0.07822  0.36325  0.81181  1.0000
  C   C28       1.0  0.26669  0.13671  0.18817  1.0000
  C   C29       1.0  0.75832  0.63657  0.11561  1.0000
  C   C30       1.0  0.64254  0.86347  0.88440  1.0000
  C   C31       1.0  0.24169  0.36343  0.88439  1.0000
  C   C32       1.0  0.35746  0.13652  0.11560  1.0000
  Cl  Cl1       1.0  0.78402  0.30307  0.33062  1.0000
  Cl  Cl2       1.0  0.45322  0.19689  0.66952  1.0000
  Cl  Cl3       1.0  0.21598  0.69693  0.66938  1.0000
  Cl  Cl4       1.0  0.54678  0.80311  0.33048  1.0000
  Cl  Cl5       1.0  0.16820  0.64371  0.45550  1.0000
  Cl  Cl6       1.0  0.71243  0.85639  0.54450  1.0000
  Cl  Cl7       1.0  0.83179  0.35629  0.54450  1.0000
  Cl  Cl8       1.0  0.28757  0.14362  0.45550  1.0000
  O   O1        1.0  0.80492  0.25003  0.00002  1.0000
  O   O2        1.0  0.19508  0.74997  0.99998  1.0000
  O   O3        1.0  0.10469  0.54064  0.19257  1.0000
  O   O4        1.0  0.91202  0.95934  0.80747  1.0000
  O   O5        1.0  0.89531  0.45936  0.80743  1.0000
  O   O6        1.0  0.08798  0.04066  0.19253  1.0000
  O   O7        1.0  0.75689  0.55151  0.07115  1.0000
  O   O8        1.0  0.68535  0.94854  0.92886  1.0000
  O   O9        1.0  0.24311  0.44848  0.92886  1.0000
  O   O10       1.0  0.31467  0.05145  0.07114  1.0000
  O   O11       1.0  0.62492  0.72579  0.10760  1.0000
  O   O12       1.0  0.51751  0.77422  0.89242  1.0000
  O   O13       1.0  0.37508  0.27421  0.89240  1.0000
  O   O14       1.0  0.48249  0.22577  0.10758  1.0000
