data_image0
_chemical_formula_structural       Nd2H24C42N2O18
_chemical_formula_sum              "Nd2 H24 C42 N2 O18"
_cell_length_a       9.255
_cell_length_b       10.6079
_cell_length_c       11.2349
_cell_angle_alpha    60.2932
_cell_angle_beta     79.6355
_cell_angle_gamma    81.2584

_space_group_name_H-M_alt    "P 1"
_space_group_IT_number       1

loop_
  _space_group_symop_operation_xyz
  'x, y, z'

loop_
  _atom_site_type_symbol
  _atom_site_label
  _atom_site_symmetry_multiplicity
  _atom_site_fract_x
  _atom_site_fract_y
  _atom_site_fract_z
  _atom_site_occupancy
  Nd  Nd1       1.0  0.17367  0.59109  0.50620  1.0000
  Nd  Nd2       1.0  0.82633  0.40891  0.49380  1.0000
  H   H1        1.0  0.46066  0.37491  0.62123  1.0000
  H   H2        1.0  0.53933  0.62509  0.37877  1.0000
  H   H3        1.0  0.39067  0.44707  0.72124  1.0000
  H   H4        1.0  0.60933  0.55293  0.27876  1.0000
  H   H5        1.0  0.48051  0.88763  0.18334  1.0000
  H   H6        1.0  0.51949  0.11236  0.81665  1.0000
  H   H7        1.0  0.15121  0.06257  0.42577  1.0000
  H   H8        1.0  0.84878  0.93742  0.57423  1.0000
  H   H9        1.0  0.49226  0.33371  0.35481  1.0000
  H   H10       1.0  0.50772  0.66630  0.64518  1.0000
  H   H11       1.0  0.66746  0.19214  0.26476  1.0000
  H   H12       1.0  0.33253  0.80787  0.73524  1.0000
  H   H13       1.0  0.64074  0.78013  0.07144  1.0000
  H   H14       1.0  0.35927  0.21987  0.92855  1.0000
  H   H15       1.0  0.99694  0.90360  0.18563  1.0000
  H   H16       1.0  0.00306  0.09642  0.81436  1.0000
  H   H17       1.0  0.81413  0.01447  0.29784  1.0000
  H   H18       1.0  0.18587  0.98553  0.70217  1.0000
  H   H19       1.0  0.81285  0.85629  0.87023  1.0000
  H   H20       1.0  0.18715  0.14370  0.12978  1.0000
  H   H21       1.0  0.97929  0.74166  0.74531  1.0000
  H   H22       1.0  0.02072  0.25834  0.25470  1.0000
  H   H23       1.0  0.26058  0.54956  0.06638  1.0000
  H   H24       1.0  0.73943  0.45046  0.93362  1.0000
  C   C1        1.0  0.30492  0.86837  0.36982  1.0000
  C   C2        1.0  0.69508  0.13163  0.63018  1.0000
  C   C3        1.0  0.36402  0.00417  0.34702  1.0000
  C   C4        1.0  0.63597  0.99582  0.65298  1.0000
  C   C5        1.0  0.26488  0.09149  0.38987  1.0000
  C   C6        1.0  0.73511  0.90851  0.61013  1.0000
  C   C7        1.0  0.30911  0.21026  0.39239  1.0000
  C   C8        1.0  0.69087  0.78973  0.60761  1.0000
  C   C9        1.0  0.45633  0.24321  0.35053  1.0000
  C   C10       1.0  0.54366  0.75679  0.64947  1.0000
  C   C11       1.0  0.55494  0.16091  0.30293  1.0000
  C   C12       1.0  0.44505  0.83908  0.69707  1.0000
  C   C13       1.0  0.51254  0.04095  0.29970  1.0000
  C   C14       1.0  0.48746  0.95905  0.70030  1.0000
  C   C15       1.0  0.20064  0.30246  0.43944  1.0000
  C   C16       1.0  0.79936  0.69754  0.56056  1.0000
  C   C17       1.0  0.62650  0.96807  0.24080  1.0000
  C   C18       1.0  0.37350  0.03193  0.75920  1.0000
  C   C19       1.0  0.68631  0.83690  0.11311  1.0000
  C   C20       1.0  0.31369  0.16310  0.88689  1.0000
  C   C21       1.0  0.83708  0.83547  0.11228  1.0000
  C   C22       1.0  0.16292  0.16453  0.88772  1.0000
  C   C23       1.0  0.88079  0.90218  0.18033  1.0000
  C   C24       1.0  0.11921  0.09782  0.81968  1.0000
  C   C25       1.0  0.77744  0.96676  0.24333  1.0000
  C   C26       1.0  0.22256  0.03324  0.75667  1.0000
  C   C27       1.0  0.93933  0.76471  0.04264  1.0000
  C   C28       1.0  0.06068  0.23529  0.95736  1.0000
  C   C29       1.0  0.90873  0.78631  0.91574  1.0000
  C   C30       1.0  0.09128  0.21369  0.08427  1.0000
  C   C31       1.0  0.00176  0.72415  0.84450  1.0000
  C   C32       1.0  0.99825  0.27585  0.15550  1.0000
  C   C33       1.0  0.12847  0.63754  0.89883  1.0000
  C   C34       1.0  0.87155  0.36247  0.10117  1.0000
  C   C35       1.0  0.16161  0.61623  0.02441  1.0000
  C   C36       1.0  0.83841  0.38377  0.97559  1.0000
  C   C37       1.0  0.06779  0.67874  0.09687  1.0000
  C   C38       1.0  0.93223  0.32126  0.90313  1.0000
  C   C39       1.0  0.10378  0.64961  0.23339  1.0000
  C   C40       1.0  0.89623  0.35040  0.76661  1.0000
  C   C41       1.0  0.22530  0.57390  0.81528  1.0000
  C   C42       1.0  0.77471  0.42610  0.18472  1.0000
  N   N1        1.0  0.58928  0.90276  0.17359  1.0000
  N   N2        1.0  0.41073  0.09724  0.82641  1.0000
  O   O1        1.0  0.39214  0.75300  0.39892  1.0000
  O   O2        1.0  0.60786  0.24700  0.60108  1.0000
  O   O3        1.0  0.16833  0.86902  0.36812  1.0000
  O   O4        1.0  0.83167  0.13097  0.63187  1.0000
  O   O5        1.0  0.06488  0.28898  0.44795  1.0000
  O   O6        1.0  0.93511  0.71103  0.55204  1.0000
  O   O7        1.0  0.25494  0.38719  0.46634  1.0000
  O   O8        1.0  0.74506  0.61280  0.53367  1.0000
  O   O9        1.0  0.00365  0.60008  0.33876  1.0000
  O   O10       1.0  0.99635  0.39992  0.66124  1.0000
  O   O11       1.0  0.22865  0.67601  0.24198  1.0000
  O   O12       1.0  0.77136  0.32399  0.75802  1.0000
  O   O13       1.0  0.19510  0.63022  0.69102  1.0000
  O   O14       1.0  0.80491  0.36978  0.30898  1.0000
  O   O15       1.0  0.32707  0.47657  0.86595  1.0000
  O   O16       1.0  0.67293  0.52343  0.13404  1.0000
  O   O17       1.0  0.38264  0.44057  0.63715  1.0000
  O   O18       1.0  0.61736  0.55944  0.36285  1.0000
