data_image0
_chemical_formula_structural       Cd4H28C12N4Cl8O8
_chemical_formula_sum              "Cd4 H28 C12 N4 Cl8 O8"
_cell_length_a       6.80766
_cell_length_b       7.74582
_cell_length_c       13.2663
_cell_angle_alpha    90
_cell_angle_beta     89.9999
_cell_angle_gamma    89.9995

_space_group_name_H-M_alt    "P 1"
_space_group_IT_number       1

loop_
  _space_group_symop_operation_xyz
  'x, y, z'

loop_
  _atom_site_type_symbol
  _atom_site_label
  _atom_site_symmetry_multiplicity
  _atom_site_fract_x
  _atom_site_fract_y
  _atom_site_fract_z
  _atom_site_occupancy
  Cd  Cd1       1.0  0.17630  0.14897  0.27865  1.0000
  Cd  Cd2       1.0  0.82370  0.64898  0.72136  1.0000
  Cd  Cd3       1.0  0.32371  0.64898  0.77864  1.0000
  Cd  Cd4       1.0  0.67630  0.14896  0.22136  1.0000
  H   H1        1.0  0.47841  0.16592  0.97411  1.0000
  H   H2        1.0  0.52158  0.66590  0.02590  1.0000
  H   H3        1.0  0.02159  0.66593  0.47410  1.0000
  H   H4        1.0  0.97842  0.16590  0.52590  1.0000
  H   H5        1.0  0.34617  0.33755  0.93915  1.0000
  H   H6        1.0  0.65382  0.83753  0.06085  1.0000
  H   H7        1.0  0.15383  0.83757  0.43915  1.0000
  H   H8        1.0  0.84618  0.33756  0.56086  1.0000
  H   H9        1.0  0.27823  0.22445  0.04111  1.0000
  H   H10       1.0  0.72175  0.72445  0.95889  1.0000
  H   H11       1.0  0.22177  0.72445  0.54111  1.0000
  H   H12       1.0  0.77823  0.22446  0.45888  1.0000
  H   H13       1.0  0.95852  0.28053  0.89105  1.0000
  H   H14       1.0  0.04147  0.78052  0.10895  1.0000
  H   H15       1.0  0.54147  0.78054  0.39106  1.0000
  H   H16       1.0  0.45853  0.28055  0.60896  1.0000
  H   H17       1.0  0.89846  0.06317  0.87377  1.0000
  H   H18       1.0  0.10154  0.56316  0.12621  1.0000
  H   H19       1.0  0.60154  0.56320  0.37377  1.0000
  H   H20       1.0  0.39847  0.06318  0.62624  1.0000
  H   H21       1.0  0.24572  0.10945  0.82931  1.0000
  H   H22       1.0  0.75429  0.60942  0.17069  1.0000
  H   H23       1.0  0.25429  0.60947  0.32931  1.0000
  H   H24       1.0  0.74573  0.10944  0.67069  1.0000
  H   H25       1.0  0.22924  0.96897  0.93441  1.0000
  H   H26       1.0  0.77078  0.46897  0.06557  1.0000
  H   H27       1.0  0.27078  0.46900  0.43440  1.0000
  H   H28       1.0  0.72921  0.96900  0.56559  1.0000
  C   C1        1.0  0.91280  0.14377  0.02887  1.0000
  C   C2        1.0  0.08721  0.64379  0.97112  1.0000
  C   C3        1.0  0.58721  0.64377  0.52888  1.0000
  C   C4        1.0  0.41278  0.14377  0.47113  1.0000
  C   C5        1.0  0.98678  0.14990  0.92092  1.0000
  C   C6        1.0  0.01322  0.64991  0.07908  1.0000
  C   C7        1.0  0.51322  0.64992  0.42093  1.0000
  C   C8        1.0  0.48679  0.14989  0.57906  1.0000
  C   C9        1.0  0.20242  0.10132  0.90853  1.0000
  C   C10       1.0  0.79758  0.60132  0.09145  1.0000
  C   C11       1.0  0.29758  0.60134  0.40853  1.0000
  C   C12       1.0  0.70246  0.10131  0.59147  1.0000
  N   N1        1.0  0.33654  0.21457  0.96862  1.0000
  N   N2        1.0  0.66345  0.71456  0.03137  1.0000
  N   N3        1.0  0.16346  0.71458  0.46862  1.0000
  N   N4        1.0  0.83653  0.21455  0.53139  1.0000
  Cl  Cl1       1.0  0.39672  0.91332  0.19918  1.0000
  Cl  Cl2       1.0  0.60327  0.41333  0.80082  1.0000
  Cl  Cl3       1.0  0.10327  0.41333  0.69919  1.0000
  Cl  Cl4       1.0  0.89673  0.91332  0.30082  1.0000
  Cl  Cl5       1.0  0.40749  0.37932  0.19154  1.0000
  Cl  Cl6       1.0  0.59250  0.87932  0.80846  1.0000
  Cl  Cl7       1.0  0.09251  0.87932  0.69154  1.0000
  Cl  Cl8       1.0  0.90748  0.37931  0.30846  1.0000
  O   O1        1.0  0.03438  0.17105  0.09920  1.0000
  O   O2        1.0  0.96563  0.67110  0.90080  1.0000
  O   O3        1.0  0.46564  0.67109  0.59920  1.0000
  O   O4        1.0  0.53434  0.17105  0.40081  1.0000
  O   O5        1.0  0.72872  0.11598  0.04525  1.0000
  O   O6        1.0  0.27129  0.61601  0.95475  1.0000
  O   O7        1.0  0.77129  0.61598  0.54525  1.0000
  O   O8        1.0  0.22870  0.11598  0.45477  1.0000
