data_image0
_chemical_formula_structural       Cu4H44C30N12O16
_chemical_formula_sum              "Cu4 H44 C30 N12 O16"
_cell_length_a       8.52028
_cell_length_b       8.79516
_cell_length_c       15.82
_cell_angle_alpha    77.3378
_cell_angle_beta     82.3867
_cell_angle_gamma    63.9399

_space_group_name_H-M_alt    "P 1"
_space_group_IT_number       1

loop_
  _space_group_symop_operation_xyz
  'x, y, z'

loop_
  _atom_site_type_symbol
  _atom_site_label
  _atom_site_symmetry_multiplicity
  _atom_site_fract_x
  _atom_site_fract_y
  _atom_site_fract_z
  _atom_site_occupancy
  Cu  Cu1       1.0  0.63061  0.96256  0.55168  1.0000
  Cu  Cu2       1.0  0.36967  0.03737  0.44846  1.0000
  Cu  Cu3       1.0  0.97792  0.60953  0.92486  1.0000
  Cu  Cu4       1.0  0.02209  0.39043  0.07516  1.0000
  H   H1        1.0  0.60454  0.38432  0.29176  1.0000
  H   H2        1.0  0.39537  0.61569  0.70823  1.0000
  H   H3        1.0  0.44628  0.52255  0.35621  1.0000
  H   H4        1.0  0.55370  0.47741  0.64375  1.0000
  H   H5        1.0  0.66850  0.51076  0.44390  1.0000
  H   H6        1.0  0.33140  0.48924  0.55607  1.0000
  H   H7        1.0  0.83561  0.34043  0.39844  1.0000
  H   H8        1.0  0.16427  0.65958  0.60151  1.0000
  H   H9        1.0  0.62700  0.68540  0.28336  1.0000
  H   H10       1.0  0.37288  0.31458  0.71658  1.0000
  H   H11       1.0  0.83077  0.52061  0.25877  1.0000
  H   H12       1.0  0.16915  0.47940  0.74122  1.0000
  H   H13       1.0  0.88221  0.75660  0.29048  1.0000
  H   H14       1.0  0.11766  0.24344  0.70949  1.0000
  H   H15       1.0  0.95925  0.58413  0.37930  1.0000
  H   H16       1.0  0.04071  0.41582  0.62069  1.0000
  H   H17       1.0  0.90499  0.06289  0.93982  1.0000
  H   H18       1.0  0.09503  0.93713  0.06018  1.0000
  H   H19       1.0  0.03950  0.09878  0.85167  1.0000
  H   H20       1.0  0.96051  0.90121  0.14833  1.0000
  H   H21       1.0  0.79265  0.33433  0.77304  1.0000
  H   H22       1.0  0.20735  0.66566  0.22697  1.0000
  H   H23       1.0  0.75375  0.14853  0.80366  1.0000
  H   H24       1.0  0.24624  0.85145  0.19635  1.0000
  H   H25       1.0  0.54123  0.12825  0.92840  1.0000
  H   H26       1.0  0.45876  0.87175  0.07161  1.0000
  H   H27       1.0  0.60121  0.20734  0.00543  1.0000
  H   H28       1.0  0.39878  0.79264  0.99457  1.0000
  H   H29       1.0  0.48959  0.41454  0.82327  1.0000
  H   H30       1.0  0.51041  0.58544  0.17674  1.0000
  H   H31       1.0  0.59590  0.46041  0.89573  1.0000
  H   H32       1.0  0.40411  0.53957  0.10429  1.0000
  H   H33       1.0  0.69181  0.71503  0.70120  1.0000
  H   H34       1.0  0.30815  0.28494  0.29882  1.0000
  H   H35       1.0  0.81062  0.59824  0.79552  1.0000
  H   H36       1.0  0.18936  0.40177  0.20449  1.0000
  H   H37       1.0  0.00321  0.17946  0.56186  1.0000
  H   H38       1.0  0.99684  0.82051  0.43812  1.0000
  H   H39       1.0  0.81807  0.16179  0.53547  1.0000
  H   H40       1.0  0.18192  0.83827  0.46451  1.0000
  H   H41       1.0  0.31378  0.84756  0.79503  1.0000
  H   H42       1.0  0.68621  0.15244  0.20496  1.0000
  H   H43       1.0  0.25780  0.68990  0.86337  1.0000
  H   H44       1.0  0.74217  0.31012  0.13662  1.0000
  C   C1        1.0  0.86537  0.79654  0.73074  1.0000
  C   C2        1.0  0.13460  0.20346  0.26925  1.0000
  C   C3        1.0  0.93886  0.00379  0.64562  1.0000
  C   C4        1.0  0.06114  0.99621  0.35436  1.0000
  C   C5        1.0  0.09040  0.84302  0.76608  1.0000
  C   C6        1.0  0.90958  0.15698  0.23391  1.0000
  C   C7        1.0  0.55272  0.25805  0.41295  1.0000
  C   C8        1.0  0.44745  0.74192  0.58709  1.0000
  C   C9        1.0  0.57552  0.41213  0.35804  1.0000
  C   C10       1.0  0.42447  0.58788  0.64194  1.0000
  C   C11       1.0  0.71359  0.45708  0.38381  1.0000
  C   C12       1.0  0.28636  0.54298  0.61614  1.0000
  C   C13       1.0  0.75051  0.58645  0.31135  1.0000
  C   C14       1.0  0.24940  0.41363  0.68863  1.0000
  C   C15       1.0  0.71884  0.79958  0.40314  1.0000
  C   C16       1.0  0.28123  0.20041  0.59692  1.0000
  C   C17       1.0  0.84162  0.67651  0.34421  1.0000
  C   C18       1.0  0.15834  0.32352  0.65579  1.0000
  C   C19       1.0  0.95020  0.28703  0.93114  1.0000
  C   C20       1.0  0.04980  0.71301  0.06885  1.0000
  C   C21       1.0  0.91851  0.16388  0.88914  1.0000
  C   C22       1.0  0.08150  0.83613  0.11086  1.0000
  C   C23       1.0  0.76437  0.25020  0.82939  1.0000
  C   C24       1.0  0.23563  0.74978  0.17061  1.0000
  C   C25       1.0  0.33223  0.34007  0.97292  1.0000
  C   C26       1.0  0.66777  0.65996  0.02706  1.0000
  C   C27       1.0  0.52558  0.24826  0.94697  1.0000
  C   C28       1.0  0.47442  0.75175  0.05303  1.0000
  C   C29       1.0  0.58887  0.35411  0.87254  1.0000
  C   C30       1.0  0.41114  0.64588  0.12747  1.0000
  N   N1        1.0  0.77169  0.70369  0.74724  1.0000
  N   N2        1.0  0.22829  0.29631  0.25277  1.0000
  N   N3        1.0  0.83759  0.91602  0.65687  1.0000
  N   N4        1.0  0.16242  0.08398  0.34312  1.0000
  N   N5        1.0  0.90760  0.13678  0.57946  1.0000
  N   N6        1.0  0.09243  0.86323  0.42052  1.0000
  N   N7        1.0  0.07190  0.96632  0.69627  1.0000
  N   N8        1.0  0.92809  0.03369  0.30371  1.0000
  N   N9        1.0  0.22611  0.79749  0.81674  1.0000
  N   N10       1.0  0.77389  0.20248  0.18324  1.0000
  N   N11       1.0  0.98431  0.76156  0.79025  1.0000
  N   N12       1.0  0.01566  0.23846  0.20974  1.0000
  O   O1        1.0  0.65154  0.16824  0.47566  1.0000
  O   O2        1.0  0.34858  0.83178  0.52441  1.0000
  O   O3        1.0  0.78361  0.80815  0.46953  1.0000
  O   O4        1.0  0.21649  0.19186  0.53051  1.0000
  O   O5        1.0  0.43086  0.23011  0.39047  1.0000
  O   O6        1.0  0.56935  0.76979  0.60957  1.0000
  O   O7        1.0  0.56140  0.88232  0.38081  1.0000
  O   O8        1.0  0.43866  0.11762  0.61926  1.0000
  O   O9        1.0  0.94032  0.42803  0.88330  1.0000
  O   O10       1.0  0.05960  0.57203  0.11669  1.0000
  O   O11       1.0  0.27919  0.27599  0.04446  1.0000
  O   O12       1.0  0.72082  0.72409  0.95553  1.0000
  O   O13       1.0  0.23891  0.47161  0.91925  1.0000
  O   O14       1.0  0.76109  0.52838  0.08072  1.0000
  O   O15       1.0  0.98684  0.23849  0.01063  1.0000
  O   O16       1.0  0.01324  0.76152  0.98934  1.0000
