data_image0
_chemical_formula_structural       Ag2H24C24S2N2O6
_chemical_formula_sum              "Ag2 H24 C24 S2 N2 O6"
_cell_length_a       5.43987
_cell_length_b       9.02003
_cell_length_c       12.3456
_cell_angle_alpha    91.2574
_cell_angle_beta     90.0011
_cell_angle_gamma    90.0015

_space_group_name_H-M_alt    "P 1"
_space_group_IT_number       1

loop_
  _space_group_symop_operation_xyz
  'x, y, z'

loop_
  _atom_site_type_symbol
  _atom_site_label
  _atom_site_symmetry_multiplicity
  _atom_site_fract_x
  _atom_site_fract_y
  _atom_site_fract_z
  _atom_site_occupancy
  Ag  Ag1       1.0  0.45838  0.80390  0.94596  1.0000
  Ag  Ag2       1.0  0.95844  0.19610  0.05405  1.0000
  H   H1        1.0  0.36365  0.91219  0.66844  1.0000
  H   H2        1.0  0.86368  0.08781  0.33153  1.0000
  H   H3        1.0  0.48977  0.08200  0.52334  1.0000
  H   H4        1.0  0.98977  0.91800  0.47664  1.0000
  H   H5        1.0  0.31419  0.27148  0.38090  1.0000
  H   H6        1.0  0.81417  0.72852  0.61909  1.0000
  H   H7        1.0  0.42232  0.39228  0.48368  1.0000
  H   H8        1.0  0.92229  0.60773  0.51632  1.0000
  H   H9        1.0  0.11609  0.41114  0.43579  1.0000
  H   H10       1.0  0.61607  0.58887  0.56420  1.0000
  H   H11       1.0  0.83507  0.34127  0.57733  1.0000
  H   H12       1.0  0.33506  0.65873  0.42267  1.0000
  H   H13       1.0  0.70429  0.16830  0.71995  1.0000
  H   H14       1.0  0.20425  0.83171  0.28005  1.0000
  H   H15       1.0  0.46591  0.50233  0.07360  1.0000
  H   H16       1.0  0.96596  0.49767  0.92640  1.0000
  H   H17       1.0  0.21192  0.37332  0.20777  1.0000
  H   H18       1.0  0.71191  0.62666  0.79225  1.0000
  H   H19       1.0  0.80285  0.48522  0.26413  1.0000
  H   H20       1.0  0.30287  0.51476  0.73590  1.0000
  H   H21       1.0  0.68846  0.73352  0.18783  1.0000
  H   H22       1.0  0.18851  0.26646  0.81219  1.0000
  H   H23       1.0  0.97070  0.85153  0.05726  1.0000
  H   H24       1.0  0.47073  0.14845  0.94276  1.0000
  C   C1        1.0  0.02687  0.03056  0.70282  1.0000
  C   C2        1.0  0.52687  0.96946  0.29717  1.0000
  C   C3        1.0  0.24768  0.00560  0.64738  1.0000
  C   C4        1.0  0.74770  0.99438  0.35260  1.0000
  C   C5        1.0  0.31854  0.10244  0.56689  1.0000
  C   C6        1.0  0.81855  0.89756  0.43311  1.0000
  C   C7        1.0  0.17366  0.22543  0.54083  1.0000
  C   C8        1.0  0.67366  0.77456  0.45916  1.0000
  C   C9        1.0  0.25893  0.33036  0.45575  1.0000
  C   C10       1.0  0.75892  0.66964  0.54424  1.0000
  C   C11       1.0  0.95194  0.24719  0.59684  1.0000
  C   C12       1.0  0.45194  0.75282  0.40317  1.0000
  C   C13       1.0  0.87729  0.15066  0.67738  1.0000
  C   C14       1.0  0.37726  0.84934  0.32261  1.0000
  C   C15       1.0  0.29190  0.55007  0.10056  1.0000
  C   C16       1.0  0.79188  0.44996  0.89945  1.0000
  C   C17       1.0  0.14551  0.47686  0.17508  1.0000
  C   C18       1.0  0.64554  0.52313  0.82493  1.0000
  C   C19       1.0  0.92339  0.54138  0.20759  1.0000
  C   C20       1.0  0.42338  0.45862  0.79243  1.0000
  C   C21       1.0  0.85780  0.67727  0.16454  1.0000
  C   C22       1.0  0.35783  0.32272  0.83546  1.0000
  C   C23       1.0  0.01461  0.74429  0.09103  1.0000
  C   C24       1.0  0.51456  0.25571  0.90899  1.0000
  S   S1        1.0  0.95667  0.91583  0.81378  1.0000
  S   S2        1.0  0.45667  0.08418  0.18620  1.0000
  N   N1        1.0  0.22857  0.68157  0.05874  1.0000
  N   N2        1.0  0.72857  0.31845  0.94124  1.0000
  O   O1        1.0  0.07196  0.98907  0.90903  1.0000
  O   O2        1.0  0.57199  0.01092  0.09096  1.0000
  O   O3        1.0  0.06156  0.76924  0.78924  1.0000
  O   O4        1.0  0.56157  0.23075  0.21075  1.0000
  O   O5        1.0  0.68325  0.91497  0.82064  1.0000
  O   O6        1.0  0.18325  0.08503  0.17935  1.0000
