data_image0
_chemical_formula_structural       Na2H36C30N2O8
_chemical_formula_sum              "Na2 H36 C30 N2 O8"
_cell_length_a       6.27631
_cell_length_b       6.6407
_cell_length_c       18.7756
_cell_angle_alpha    78.4358
_cell_angle_beta     87.973
_cell_angle_gamma    71.3499

_space_group_name_H-M_alt    "P 1"
_space_group_IT_number       1

loop_
  _space_group_symop_operation_xyz
  'x, y, z'

loop_
  _atom_site_type_symbol
  _atom_site_label
  _atom_site_symmetry_multiplicity
  _atom_site_fract_x
  _atom_site_fract_y
  _atom_site_fract_z
  _atom_site_occupancy
  Na  Na1       1.0  0.88218  0.29253  0.47478  1.0000
  Na  Na2       1.0  0.11785  0.70745  0.52522  1.0000
  H   H1        1.0  0.94053  0.99096  0.39066  1.0000
  H   H2        1.0  0.05950  0.00900  0.60935  1.0000
  H   H3        1.0  0.18366  0.01567  0.38513  1.0000
  H   H4        1.0  0.81636  0.98431  0.61487  1.0000
  H   H5        1.0  0.28155  0.20664  0.56471  1.0000
  H   H6        1.0  0.71846  0.79334  0.43529  1.0000
  H   H7        1.0  0.35790  0.30100  0.48686  1.0000
  H   H8        1.0  0.64211  0.69899  0.51314  1.0000
  H   H9        1.0  0.04797  0.17769  0.18517  1.0000
  H   H10       1.0  0.95206  0.82232  0.81484  1.0000
  H   H11       1.0  0.73303  0.45859  0.22516  1.0000
  H   H12       1.0  0.26700  0.54139  0.77486  1.0000
  H   H13       1.0  0.79505  0.64240  0.32306  1.0000
  H   H14       1.0  0.20495  0.35758  0.67695  1.0000
  H   H15       1.0  0.17439  0.52199  0.38376  1.0000
  H   H16       1.0  0.82560  0.47802  0.61625  1.0000
  H   H17       1.0  0.61667  0.99985  0.26750  1.0000
  H   H18       1.0  0.38336  0.00012  0.73250  1.0000
  H   H19       1.0  0.48481  0.52323  0.05397  1.0000
  H   H20       1.0  0.51518  0.47679  0.94603  1.0000
  H   H21       1.0  0.21446  0.54649  0.15449  1.0000
  H   H22       1.0  0.78559  0.45350  0.84551  1.0000
  H   H23       1.0  0.20960  0.78337  0.24150  1.0000
  H   H24       1.0  0.79039  0.21661  0.75851  1.0000
  H   H25       1.0  0.69773  0.17754  0.14631  1.0000
  H   H26       1.0  0.30229  0.82245  0.85369  1.0000
  H   H27       1.0  0.73187  0.13521  0.05542  1.0000
  H   H28       1.0  0.26810  0.86479  0.94458  1.0000
  H   H29       1.0  0.92932  0.96468  0.12391  1.0000
  H   H30       1.0  0.07066  0.03531  0.87609  1.0000
  H   H31       1.0  0.77860  0.61856  0.99020  1.0000
  H   H32       1.0  0.22136  0.38148  0.00978  1.0000
  H   H33       1.0  0.95387  0.71248  0.03874  1.0000
  H   H34       1.0  0.04609  0.28755  0.96125  1.0000
  H   H35       1.0  0.73893  0.90009  0.97865  1.0000
  H   H36       1.0  0.26102  0.09995  0.02135  1.0000
  C   C1        1.0  0.32294  0.27256  0.32337  1.0000
  C   C2        1.0  0.67704  0.72742  0.67664  1.0000
  C   C3        1.0  0.29144  0.17902  0.26356  1.0000
  C   C4        1.0  0.70856  0.82096  0.73645  1.0000
  C   C5        1.0  0.07439  0.24930  0.22997  1.0000
  C   C6        1.0  0.92563  0.75068  0.77004  1.0000
  C   C7        1.0  0.89823  0.40955  0.25202  1.0000
  C   C8        1.0  0.10179  0.59045  0.74798  1.0000
  C   C9        1.0  0.93198  0.51235  0.30715  1.0000
  C   C10       1.0  0.06802  0.48766  0.69285  1.0000
  C   C11       1.0  0.14295  0.44396  0.34124  1.0000
  C   C12       1.0  0.85705  0.55602  0.65877  1.0000
  C   C13       1.0  0.53547  0.19205  0.36871  1.0000
  C   C14       1.0  0.46452  0.80792  0.63128  1.0000
  C   C15       1.0  0.46296  0.90811  0.18625  1.0000
  C   C16       1.0  0.53704  0.09190  0.81375  1.0000
  C   C17       1.0  0.60940  0.90425  0.12732  1.0000
  C   C18       1.0  0.39059  0.09577  0.87268  1.0000
  C   C19       1.0  0.61963  0.76042  0.08017  1.0000
  C   C20       1.0  0.38036  0.23960  0.91982  1.0000
  C   C21       1.0  0.47648  0.63390  0.09049  1.0000
  C   C22       1.0  0.52352  0.36612  0.90951  1.0000
  C   C23       1.0  0.32519  0.64567  0.14698  1.0000
  C   C24       1.0  0.67481  0.35434  0.85302  1.0000
  C   C25       1.0  0.32045  0.78023  0.19547  1.0000
  C   C26       1.0  0.67956  0.21978  0.80454  1.0000
  C   C27       1.0  0.74903  0.05328  0.11301  1.0000
  C   C28       1.0  0.25096  0.94673  0.88700  1.0000
  C   C29       1.0  0.78074  0.74657  0.01879  1.0000
  C   C30       1.0  0.21922  0.25347  0.98120  1.0000
  N   N1        1.0  0.46975  0.03378  0.23803  1.0000
  N   N2        1.0  0.53027  0.96622  0.76197  1.0000
  O   O1        1.0  0.08221  0.96631  0.41960  1.0000
  O   O2        1.0  0.91780  0.03370  0.58041  1.0000
  O   O3        1.0  0.23466  0.32711  0.52240  1.0000
  O   O4        1.0  0.76535  0.67287  0.47760  1.0000
  O   O5        1.0  0.55160  0.28154  0.42124  1.0000
  O   O6        1.0  0.44837  0.71845  0.57875  1.0000
  O   O7        1.0  0.69464  0.02659  0.35419  1.0000
  O   O8        1.0  0.30534  0.97340  0.64579  1.0000
