data_image0
_chemical_formula_structural       Na2Cd2H44C42S6N6O10
_chemical_formula_sum              "Na2 Cd2 H44 C42 S6 N6 O10"
_cell_length_a       10.3587
_cell_length_b       11.4432
_cell_length_c       11.4379
_cell_angle_alpha    91.2404
_cell_angle_beta     106.61
_cell_angle_gamma    107.721

_space_group_name_H-M_alt    "P 1"
_space_group_IT_number       1

loop_
  _space_group_symop_operation_xyz
  'x, y, z'

loop_
  _atom_site_type_symbol
  _atom_site_label
  _atom_site_symmetry_multiplicity
  _atom_site_fract_x
  _atom_site_fract_y
  _atom_site_fract_z
  _atom_site_occupancy
  Na  Na1       1.0  0.79018  0.62724  0.26683  1.0000
  Na  Na2       1.0  0.20982  0.37276  0.73317  1.0000
  Cd  Cd1       1.0  0.03185  0.75444  0.97641  1.0000
  Cd  Cd2       1.0  0.96815  0.24556  0.02359  1.0000
  H   H1        1.0  0.22490  0.74221  0.64037  1.0000
  H   H2        1.0  0.77510  0.25779  0.35963  1.0000
  H   H3        1.0  0.46854  0.88573  0.74828  1.0000
  H   H4        1.0  0.53146  0.11427  0.25172  1.0000
  H   H5        1.0  0.65934  0.08496  0.76469  1.0000
  H   H6        1.0  0.34067  0.91504  0.23531  1.0000
  H   H7        1.0  0.61553  0.24023  0.62408  1.0000
  H   H8        1.0  0.38447  0.75977  0.37592  1.0000
  H   H9        1.0  0.37685  0.20104  0.46958  1.0000
  H   H10       1.0  0.62315  0.79896  0.53042  1.0000
  H   H11       1.0  0.13244  0.06330  0.36949  1.0000
  H   H12       1.0  0.86756  0.93670  0.63051  1.0000
  H   H13       1.0  0.89133  0.02023  0.29943  1.0000
  H   H14       1.0  0.10867  0.97977  0.70057  1.0000
  H   H15       1.0  0.94763  0.94733  0.19105  1.0000
  H   H16       1.0  0.05237  0.05267  0.80895  1.0000
  H   H17       1.0  0.69152  0.93375  0.10834  1.0000
  H   H18       1.0  0.30848  0.06625  0.89165  1.0000
  H   H19       1.0  0.65652  0.85698  0.23586  1.0000
  H   H20       1.0  0.34348  0.14302  0.76414  1.0000
  H   H21       1.0  0.52506  0.75268  0.97657  1.0000
  H   H22       1.0  0.47494  0.24732  0.02343  1.0000
  H   H23       1.0  0.57840  0.61841  0.97868  1.0000
  H   H24       1.0  0.42160  0.38158  0.02132  1.0000
  H   H25       1.0  0.36523  0.57912  0.04796  1.0000
  H   H26       1.0  0.63477  0.42088  0.95204  1.0000
  H   H27       1.0  0.45392  0.70634  0.16597  1.0000
  H   H28       1.0  0.54608  0.29366  0.83403  1.0000
  H   H29       1.0  0.44493  0.58995  0.32439  1.0000
  H   H30       1.0  0.55507  0.41005  0.67561  1.0000
  H   H31       1.0  0.35858  0.44274  0.23278  1.0000
  H   H32       1.0  0.64142  0.55726  0.76722  1.0000
  H   H33       1.0  0.58306  0.38698  0.32545  1.0000
  H   H34       1.0  0.41694  0.61302  0.67456  1.0000
  H   H35       1.0  0.49853  0.41381  0.43546  1.0000
  H   H36       1.0  0.50146  0.58619  0.56454  1.0000
  H   H37       1.0  0.75186  0.47876  0.59709  1.0000
  H   H38       1.0  0.24815  0.52124  0.40291  1.0000
  H   H39       1.0  0.81391  0.44620  0.47337  1.0000
  H   H40       1.0  0.18609  0.55380  0.52663  1.0000
  H   H41       1.0  0.00242  0.60268  0.63960  1.0000
  H   H42       1.0  0.99758  0.39732  0.36040  1.0000
  H   H43       1.0  0.89521  0.70246  0.61667  1.0000
  H   H44       1.0  0.10479  0.29754  0.38333  1.0000
  C   C1        1.0  0.07519  0.78888  0.49392  1.0000
  C   C2        1.0  0.92482  0.21112  0.50608  1.0000
  C   C3        1.0  0.20476  0.81303  0.58245  1.0000
  C   C4        1.0  0.79524  0.18697  0.41755  1.0000
  C   C5        1.0  0.31375  0.92832  0.59807  1.0000
  C   C6        1.0  0.68625  0.07168  0.40193  1.0000
  C   C7        1.0  0.44911  0.95502  0.68757  1.0000
  C   C8        1.0  0.55089  0.04498  0.31243  1.0000
  C   C9        1.0  0.55503  0.06582  0.69687  1.0000
  C   C10       1.0  0.44497  0.93418  0.30313  1.0000
  C   C11       1.0  0.52909  0.15466  0.61730  1.0000
  C   C12       1.0  0.47091  0.84534  0.38270  1.0000
  C   C13       1.0  0.39747  0.13270  0.53112  1.0000
  C   C14       1.0  0.60252  0.86730  0.46888  1.0000
  C   C15       1.0  0.28679  0.01932  0.51873  1.0000
  C   C16       1.0  0.71321  0.98068  0.48127  1.0000
  C   C17       1.0  0.15150  0.99321  0.42894  1.0000
  C   C18       1.0  0.84850  0.00679  0.57106  1.0000
  C   C19       1.0  0.04699  0.88096  0.41702  1.0000
  C   C20       1.0  0.95301  0.11904  0.58298  1.0000
  C   C21       1.0  0.87784  0.93166  0.24977  1.0000
  C   C22       1.0  0.12216  0.06834  0.75023  1.0000
  C   C23       1.0  0.72413  0.87199  0.17504  1.0000
  C   C24       1.0  0.27587  0.12801  0.82496  1.0000
  C   C25       1.0  0.56922  0.69119  0.03672  1.0000
  C   C26       1.0  0.43078  0.30881  0.96328  1.0000
  C   C27       1.0  0.47026  0.63476  0.11098  1.0000
  C   C28       1.0  0.52974  0.36524  0.88902  1.0000
  C   C29       1.0  0.46281  0.51309  0.27836  1.0000
  C   C30       1.0  0.53719  0.48691  0.72164  1.0000
  C   C31       1.0  0.55595  0.45777  0.37166  1.0000
  C   C32       1.0  0.44405  0.54223  0.62835  1.0000
  C   C33       1.0  0.78895  0.51783  0.52047  1.0000
  C   C34       1.0  0.21105  0.48217  0.47953  1.0000
  C   C35       1.0  0.92011  0.62937  0.57200  1.0000
  C   C36       1.0  0.07989  0.37063  0.42800  1.0000
  C   C37       1.0  0.07490  0.54287  0.15405  1.0000
  C   C38       1.0  0.92510  0.45713  0.84595  1.0000
  C   C39       1.0  0.23965  0.67236  0.84373  1.0000
  C   C40       1.0  0.76035  0.32764  0.15627  1.0000
  C   C41       1.0  0.84078  0.93908  0.88660  1.0000
  C   C42       1.0  0.15922  0.06092  0.11340  1.0000
  S   S1        1.0  0.07555  0.68088  0.19595  1.0000
  S   S2        1.0  0.92445  0.31912  0.80405  1.0000
  S   S3        1.0  0.26475  0.80572  0.91822  1.0000
  S   S4        1.0  0.73525  0.19428  0.08178  1.0000
  S   S5        1.0  0.80982  0.79739  0.82972  1.0000
  S   S6        1.0  0.19018  0.20261  0.17028  1.0000
  N   N1        1.0  0.07996  0.44436  0.12748  1.0000
  N   N2        1.0  0.92004  0.55564  0.87252  1.0000
  N   N3        1.0  0.22465  0.57823  0.78854  1.0000
  N   N4        1.0  0.77535  0.42177  0.21146  1.0000
  N   N5        1.0  0.86291  0.04182  0.92602  1.0000
  N   N6        1.0  0.13709  0.95817  0.07398  1.0000
  O   O1        1.0  0.96853  0.67576  0.46979  1.0000
  O   O2        1.0  0.03147  0.32424  0.53021  1.0000
  O   O3        1.0  0.91290  0.84682  0.33513  1.0000
  O   O4        1.0  0.08709  0.15318  0.66486  1.0000
  O   O5        1.0  0.71157  0.75710  0.11246  1.0000
  O   O6        1.0  0.28843  0.24290  0.88754  1.0000
  O   O7        1.0  0.53415  0.55911  0.19057  1.0000
  O   O8        1.0  0.46585  0.44089  0.80943  1.0000
  O   O9        1.0  0.68290  0.55668  0.43599  1.0000
  O   O10       1.0  0.31710  0.44333  0.56401  1.0000
