data_image0
_chemical_formula_structural       K2H32C30N2O6
_chemical_formula_sum              "K2 H32 C30 N2 O6"
_cell_length_a       6.97725
_cell_length_b       7.0184
_cell_length_c       16.0366
_cell_angle_alpha    94.9925
_cell_angle_beta     96.0193
_cell_angle_gamma    114.175

_space_group_name_H-M_alt    "P 1"
_space_group_IT_number       1

loop_
  _space_group_symop_operation_xyz
  'x, y, z'

loop_
  _atom_site_type_symbol
  _atom_site_label
  _atom_site_symmetry_multiplicity
  _atom_site_fract_x
  _atom_site_fract_y
  _atom_site_fract_z
  _atom_site_occupancy
  K   K1        1.0  0.17635  0.38114  0.46123  1.0000
  K   K2        1.0  0.82365  0.61887  0.53877  1.0000
  H   H1        1.0  0.60679  0.85494  0.42934  1.0000
  H   H2        1.0  0.39320  0.14506  0.57066  1.0000
  H   H3        1.0  0.57380  0.64667  0.37128  1.0000
  H   H4        1.0  0.42619  0.35333  0.62872  1.0000
  H   H5        1.0  0.17894  0.30666  0.19009  1.0000
  H   H6        1.0  0.82105  0.69333  0.80991  1.0000
  H   H7        1.0  0.88819  0.99050  0.22425  1.0000
  H   H8        1.0  0.11180  0.00951  0.77575  1.0000
  H   H9        1.0  0.96448  0.79022  0.33619  1.0000
  H   H10       1.0  0.03551  0.20979  0.66382  1.0000
  H   H11       1.0  0.33279  0.90727  0.40830  1.0000
  H   H12       1.0  0.66721  0.09274  0.59170  1.0000
  H   H13       1.0  0.72909  0.48884  0.29506  1.0000
  H   H14       1.0  0.27091  0.51116  0.70493  1.0000
  H   H15       1.0  0.60874  0.94167  0.02212  1.0000
  H   H16       1.0  0.39127  0.05833  0.97787  1.0000
  H   H17       1.0  0.38705  0.93846  0.13562  1.0000
  H   H18       1.0  0.61296  0.06154  0.86437  1.0000
  H   H19       1.0  0.37294  0.71470  0.24873  1.0000
  H   H20       1.0  0.62706  0.28530  0.75127  1.0000
  H   H21       1.0  0.98948  0.54562  0.15087  1.0000
  H   H22       1.0  0.01052  0.45438  0.84913  1.0000
  H   H23       1.0  0.79800  0.36722  0.06702  1.0000
  H   H24       1.0  0.20201  0.63278  0.93298  1.0000
  H   H25       1.0  0.76605  0.32934  0.17362  1.0000
  H   H26       1.0  0.23396  0.67066  0.82638  1.0000
  H   H27       1.0  0.83882  0.83135  0.95801  1.0000
  H   H28       1.0  0.16119  0.16865  0.04199  1.0000
  H   H29       1.0  0.78354  0.56202  0.96227  1.0000
  H   H30       1.0  0.21647  0.43798  0.03773  1.0000
  H   H31       1.0  0.00749  0.76205  0.02803  1.0000
  H   H32       1.0  0.99252  0.23794  0.97197  1.0000
  C   C1        1.0  0.68846  0.23502  0.38795  1.0000
  C   C2        1.0  0.31154  0.76498  0.61206  1.0000
  C   C3        1.0  0.46824  0.17133  0.34124  1.0000
  C   C4        1.0  0.53175  0.82868  0.65876  1.0000
  C   C5        1.0  0.42252  0.28976  0.28007  1.0000
  C   C6        1.0  0.57748  0.71024  0.71992  1.0000
  C   C7        1.0  0.21260  0.21805  0.23753  1.0000
  C   C8        1.0  0.78739  0.78195  0.76247  1.0000
  C   C9        1.0  0.04945  0.03996  0.25700  1.0000
  C   C10       1.0  0.95054  0.96005  0.74301  1.0000
  C   C11       1.0  0.09144  0.92661  0.31875  1.0000
  C   C12       1.0  0.90855  0.07339  0.68125  1.0000
  C   C13       1.0  0.29915  0.99245  0.35942  1.0000
  C   C14       1.0  0.70085  0.00756  0.64059  1.0000
  C   C15       1.0  0.57526  0.58601  0.19659  1.0000
  C   C16       1.0  0.42474  0.41399  0.80341  1.0000
  C   C17       1.0  0.69641  0.58274  0.13193  1.0000
  C   C18       1.0  0.30359  0.41726  0.86807  1.0000
  C   C19       1.0  0.70754  0.71327  0.06871  1.0000
  C   C20       1.0  0.29246  0.28673  0.93129  1.0000
  C   C21       1.0  0.59534  0.83900  0.07057  1.0000
  C   C22       1.0  0.40467  0.16100  0.92942  1.0000
  C   C23       1.0  0.47139  0.83739  0.13378  1.0000
  C   C24       1.0  0.52862  0.16260  0.86622  1.0000
  C   C25       1.0  0.46182  0.71113  0.19705  1.0000
  C   C26       1.0  0.53818  0.28887  0.80294  1.0000
  C   C27       1.0  0.81775  0.44863  0.13112  1.0000
  C   C28       1.0  0.18225  0.55137  0.86888  1.0000
  C   C29       1.0  0.84103  0.71816  0.00063  1.0000
  C   C30       1.0  0.15897  0.28183  0.99937  1.0000
  N   N1        1.0  0.58321  0.47551  0.26591  1.0000
  N   N2        1.0  0.41679  0.52449  0.73408  1.0000
  O   O1        1.0  0.83532  0.41547  0.37990  1.0000
  O   O2        1.0  0.16467  0.58453  0.62010  1.0000
  O   O3        1.0  0.72532  0.11410  0.43560  1.0000
  O   O4        1.0  0.27468  0.88590  0.56440  1.0000
  O   O5        1.0  0.55153  0.69739  0.42697  1.0000
  O   O6        1.0  0.44847  0.30261  0.57303  1.0000
