data_image0
_chemical_formula_structural       Ca2H64C60N4O12
_chemical_formula_sum              "Ca2 H64 C60 N4 O12"
_cell_length_a       7.59203
_cell_length_b       10.2258
_cell_length_c       18.2436
_cell_angle_alpha    94.2893
_cell_angle_beta     91.7455
_cell_angle_gamma    104.794

_space_group_name_H-M_alt    "P 1"
_space_group_IT_number       1

loop_
  _space_group_symop_operation_xyz
  'x, y, z'

loop_
  _atom_site_type_symbol
  _atom_site_label
  _atom_site_symmetry_multiplicity
  _atom_site_fract_x
  _atom_site_fract_y
  _atom_site_fract_z
  _atom_site_occupancy
  Ca  Ca1       1.0  0.68084  0.39793  0.52073  1.0000
  Ca  Ca2       1.0  0.31914  0.60208  0.47927  1.0000
  H   H1        1.0  0.33739  0.28089  0.43986  1.0000
  H   H2        1.0  0.66257  0.71911  0.56014  1.0000
  H   H3        1.0  0.36591  0.14017  0.46061  1.0000
  H   H4        1.0  0.63407  0.85984  0.53938  1.0000
  H   H5        1.0  0.89639  0.21006  0.59008  1.0000
  H   H6        1.0  0.10362  0.78995  0.40992  1.0000
  H   H7        1.0  0.72859  0.21959  0.63490  1.0000
  H   H8        1.0  0.27142  0.78042  0.36510  1.0000
  H   H9        1.0  0.73614  0.57259  0.12279  1.0000
  H   H10       1.0  0.26387  0.42739  0.87722  1.0000
  H   H11       1.0  0.02153  0.51129  0.15207  1.0000
  H   H12       1.0  0.97850  0.48872  0.84796  1.0000
  H   H13       1.0  0.11399  0.48966  0.28247  1.0000
  H   H14       1.0  0.88602  0.51039  0.71757  1.0000
  H   H15       1.0  0.90368  0.51996  0.38160  1.0000
  H   H16       1.0  0.09630  0.48008  0.61842  1.0000
  H   H17       1.0  0.44047  0.64420  0.26836  1.0000
  H   H18       1.0  0.55949  0.35579  0.73163  1.0000
  H   H19       1.0  0.11213  0.63155  0.97653  1.0000
  H   H20       1.0  0.88787  0.36843  0.02347  1.0000
  H   H21       1.0  0.27493  0.45094  0.98668  1.0000
  H   H22       1.0  0.72510  0.54906  0.01331  1.0000
  H   H23       1.0  0.45600  0.44349  0.10064  1.0000
  H   H24       1.0  0.54403  0.55651  0.89935  1.0000
  H   H25       1.0  0.34566  0.93810  0.19158  1.0000
  H   H26       1.0  0.65436  0.06190  0.80840  1.0000
  H   H27       1.0  0.45177  0.84568  0.24808  1.0000
  H   H28       1.0  0.54825  0.15432  0.75191  1.0000
  H   H29       1.0  0.20923  0.81496  0.24327  1.0000
  H   H30       1.0  0.79080  0.18504  0.75672  1.0000
  H   H31       1.0  0.98836  0.81496  0.11721  1.0000
  H   H32       1.0  0.01167  0.18503  0.88279  1.0000
  H   H33       1.0  0.04135  0.83174  0.02367  1.0000
  H   H34       1.0  0.95867  0.16825  0.97632  1.0000
  H   H35       1.0  0.18475  0.93810  0.09521  1.0000
  H   H36       1.0  0.81528  0.06188  0.90478  1.0000
  H   H37       1.0  0.07633  0.99888  0.22004  1.0000
  H   H38       1.0  0.92368  0.00111  0.77996  1.0000
  H   H39       1.0  0.81028  0.82792  0.25686  1.0000
  H   H40       1.0  0.18974  0.17207  0.74315  1.0000
  H   H41       1.0  0.63963  0.87802  0.36614  1.0000
  H   H42       1.0  0.36038  0.12197  0.63386  1.0000
  H   H43       1.0  0.74385  0.10633  0.43666  1.0000
  H   H44       1.0  0.25614  0.89366  0.56333  1.0000
  H   H45       1.0  0.26622  0.32223  0.32569  1.0000
  H   H46       1.0  0.73377  0.67777  0.67431  1.0000
  H   H47       1.0  0.68511  0.15657  0.09175  1.0000
  H   H48       1.0  0.31490  0.84343  0.90826  1.0000
  H   H49       1.0  0.77322  0.19473  0.22633  1.0000
  H   H50       1.0  0.22678  0.80528  0.77367  1.0000
  H   H51       1.0  0.54712  0.23431  0.31542  1.0000
  H   H52       1.0  0.45287  0.76570  0.68458  1.0000
  H   H53       1.0  0.03750  0.26364  0.17121  1.0000
  H   H54       1.0  0.96250  0.73635  0.82878  1.0000
  H   H55       1.0  0.00451  0.10878  0.11552  1.0000
  H   H56       1.0  0.99550  0.89121  0.88447  1.0000
  H   H57       1.0  0.10787  0.26470  0.07935  1.0000
  H   H58       1.0  0.89214  0.73529  0.92065  1.0000
  H   H59       1.0  0.47101  0.12408  0.99323  1.0000
  H   H60       1.0  0.52899  0.87592  0.00677  1.0000
  H   H61       1.0  0.35941  0.25534  0.00219  1.0000
  H   H62       1.0  0.64060  0.74466  0.99781  1.0000
  H   H63       1.0  0.23401  0.08603  0.00918  1.0000
  H   H64       1.0  0.76600  0.91397  0.99082  1.0000
  C   C1        1.0  0.58455  0.57657  0.37055  1.0000
  C   C2        1.0  0.41542  0.42345  0.62945  1.0000
  C   C3        1.0  0.70301  0.56235  0.30906  1.0000
  C   C4        1.0  0.29698  0.43766  0.69095  1.0000
  C   C5        1.0  0.65307  0.57914  0.23472  1.0000
  C   C6        1.0  0.34693  0.42086  0.76528  1.0000
  C   C7        1.0  0.77176  0.55929  0.17935  1.0000
  C   C8        1.0  0.22825  0.44072  0.82066  1.0000
  C   C9        1.0  0.93336  0.52601  0.19628  1.0000
  C   C10       1.0  0.06665  0.47402  0.80375  1.0000
  C   C11       1.0  0.98560  0.51373  0.26933  1.0000
  C   C12       1.0  0.01439  0.48631  0.73070  1.0000
  C   C13       1.0  0.86930  0.53121  0.32443  1.0000
  C   C14       1.0  0.13069  0.46881  0.67560  1.0000
  C   C15       1.0  0.40742  0.62615  0.15341  1.0000
  C   C16       1.0  0.59259  0.37384  0.84659  1.0000
  C   C17       1.0  0.31815  0.73107  0.14806  1.0000
  C   C18       1.0  0.68187  0.26893  0.85194  1.0000
  C   C19       1.0  0.20950  0.73134  0.08402  1.0000
  C   C20       1.0  0.79051  0.26864  0.91597  1.0000
  C   C21       1.0  0.19659  0.63136  0.02590  1.0000
  C   C22       1.0  0.80343  0.36863  0.97409  1.0000
  C   C23       1.0  0.28810  0.53009  0.03141  1.0000
  C   C24       1.0  0.71192  0.46990  0.96858  1.0000
  C   C25       1.0  0.39241  0.52642  0.09476  1.0000
  C   C26       1.0  0.60762  0.47357  0.90523  1.0000
  C   C27       1.0  0.33240  0.83721  0.21097  1.0000
  C   C28       1.0  0.66763  0.16279  0.78902  1.0000
  C   C29       1.0  0.10096  0.83467  0.07943  1.0000
  C   C30       1.0  0.89906  0.16532  0.92055  1.0000
  C   C31       1.0  0.02624  0.30889  0.41798  1.0000
  C   C32       1.0  0.97372  0.69111  0.58202  1.0000
  C   C33       1.0  0.96915  0.17964  0.37003  1.0000
  C   C34       1.0  0.03083  0.82035  0.62996  1.0000
  C   C35       1.0  0.06567  0.15098  0.30709  1.0000
  C   C36       1.0  0.93432  0.84901  0.69291  1.0000
  C   C37       1.0  0.00277  0.02248  0.26737  1.0000
  C   C38       1.0  0.99723  0.97753  0.73263  1.0000
  C   C39       1.0  0.85283  0.92639  0.28851  1.0000
  C   C40       1.0  0.14717  0.07360  0.71149  1.0000
  C   C41       1.0  0.75686  0.95432  0.34974  1.0000
  C   C42       1.0  0.24315  0.04567  0.65026  1.0000
  C   C43       1.0  0.81552  0.08062  0.38899  1.0000
  C   C44       1.0  0.18447  0.91937  0.61100  1.0000
  C   C45       1.0  0.33550  0.21979  0.23164  1.0000
  C   C46       1.0  0.66450  0.78021  0.76836  1.0000
  C   C47       1.0  0.28419  0.20065  0.15577  1.0000
  C   C48       1.0  0.71581  0.79933  0.84423  1.0000
  C   C49       1.0  0.41274  0.17675  0.10522  1.0000
  C   C50       1.0  0.58725  0.82324  0.89478  1.0000
  C   C51       1.0  0.58716  0.17429  0.13137  1.0000
  C   C52       1.0  0.41285  0.82571  0.86863  1.0000
  C   C53       1.0  0.63722  0.19619  0.20639  1.0000
  C   C54       1.0  0.36279  0.80381  0.79361  1.0000
  C   C55       1.0  0.51166  0.21886  0.25647  1.0000
  C   C56       1.0  0.48834  0.78114  0.74353  1.0000
  C   C57       1.0  0.09902  0.20986  0.12913  1.0000
  C   C58       1.0  0.90098  0.79013  0.87086  1.0000
  C   C59       1.0  0.36653  0.15882  0.02351  1.0000
  C   C60       1.0  0.63348  0.84117  0.97649  1.0000
  N   N1        1.0  0.49711  0.61901  0.22053  1.0000
  N   N2        1.0  0.50288  0.38097  0.77947  1.0000
  N   N3        1.0  0.21413  0.24589  0.28534  1.0000
  N   N4        1.0  0.78587  0.75411  0.71466  1.0000
  O   O1        1.0  0.43082  0.23339  0.45462  1.0000
  O   O2        1.0  0.56914  0.76662  0.54538  1.0000
  O   O3        1.0  0.76754  0.20781  0.58492  1.0000
  O   O4        1.0  0.23247  0.79221  0.41507  1.0000
  O   O5        1.0  0.60847  0.52928  0.43198  1.0000
  O   O6        1.0  0.39149  0.47075  0.56804  1.0000
  O   O7        1.0  0.45536  0.63601  0.36221  1.0000
  O   O8        1.0  0.54460  0.36400  0.63778  1.0000
  O   O9        1.0  0.91426  0.34379  0.46024  1.0000
  O   O10       1.0  0.08568  0.65621  0.53974  1.0000
  O   O11       1.0  0.19279  0.38204  0.41597  1.0000
  O   O12       1.0  0.80718  0.61797  0.58404  1.0000
