data_image0
_chemical_formula_structural       Ni2H26C36N6O14
_chemical_formula_sum              "Ni2 H26 C36 N6 O14"
_cell_length_a       8.33305
_cell_length_b       10.2326
_cell_length_c       11.7433
_cell_angle_alpha    73.4946
_cell_angle_beta     69.8417
_cell_angle_gamma    66.1895

_space_group_name_H-M_alt    "P 1"
_space_group_IT_number       1

loop_
  _space_group_symop_operation_xyz
  'x, y, z'

loop_
  _atom_site_type_symbol
  _atom_site_label
  _atom_site_symmetry_multiplicity
  _atom_site_fract_x
  _atom_site_fract_y
  _atom_site_fract_z
  _atom_site_occupancy
  Ni  Ni1       1.0  0.01130  0.01636  0.79438  1.0000
  Ni  Ni2       1.0  0.98876  0.98365  0.20565  1.0000
  H   H1        1.0  0.81742  0.98105  0.01492  1.0000
  H   H2        1.0  0.18374  0.01845  0.98507  1.0000
  H   H3        1.0  0.85540  0.12695  0.98101  1.0000
  H   H4        1.0  0.14602  0.87271  0.01845  1.0000
  H   H5        1.0  0.08255  0.52366  0.75915  1.0000
  H   H6        1.0  0.91762  0.47641  0.24087  1.0000
  H   H7        1.0  0.26331  0.58654  0.03629  1.0000
  H   H8        1.0  0.73689  0.41404  0.96348  1.0000
  H   H9        1.0  0.35727  0.15561  0.99285  1.0000
  H   H10       1.0  0.64349  0.84478  0.00717  1.0000
  H   H11       1.0  0.37701  0.79611  0.71364  1.0000
  H   H12       1.0  0.62343  0.20420  0.28598  1.0000
  H   H13       1.0  0.49286  0.91245  0.31802  1.0000
  H   H14       1.0  0.50495  0.08687  0.68157  1.0000
  H   H15       1.0  0.67094  0.27426  0.83379  1.0000
  H   H16       1.0  0.33110  0.72716  0.16682  1.0000
  H   H17       1.0  0.19854  0.11785  0.34431  1.0000
  H   H18       1.0  0.79933  0.88153  0.65587  1.0000
  H   H19       1.0  0.58601  0.74974  0.50517  1.0000
  H   H20       1.0  0.41331  0.25034  0.49418  1.0000
  H   H21       1.0  0.67756  0.50574  0.46207  1.0000
  H   H22       1.0  0.32137  0.49356  0.53838  1.0000
  H   H23       1.0  0.95947  0.30177  0.38907  1.0000
  H   H24       1.0  0.03819  0.69666  0.61120  1.0000
  H   H25       1.0  0.52620  0.48779  0.69107  1.0000
  H   H26       1.0  0.47519  0.51330  0.30958  1.0000
  C   C1        1.0  0.16448  0.57470  0.89169  1.0000
  C   C2        1.0  0.83582  0.42555  0.10813  1.0000
  C   C3        1.0  0.15190  0.48012  0.83205  1.0000
  C   C4        1.0  0.84827  0.52001  0.16798  1.0000
  C   C5        1.0  0.19578  0.23729  0.79763  1.0000
  C   C6        1.0  0.80490  0.76271  0.20251  1.0000
  C   C7        1.0  0.96652  0.18715  0.57221  1.0000
  C   C8        1.0  0.03270  0.81239  0.42807  1.0000
  C   C9        1.0  0.22169  0.32981  0.86543  1.0000
  C   C10       1.0  0.77874  0.67036  0.13467  1.0000
  C   C11       1.0  0.25191  0.51739  0.98639  1.0000
  C   C12       1.0  0.74854  0.48311  0.01334  1.0000
  C   C13       1.0  0.30587  0.27185  0.96130  1.0000
  C   C14       1.0  0.69481  0.72852  0.03869  1.0000
  C   C15       1.0  0.31964  0.36700  0.01945  1.0000
  C   C16       1.0  0.68097  0.63356  0.98039  1.0000
  C   C17       1.0  0.13434  0.06665  0.54241  1.0000
  C   C18       1.0  0.86467  0.93284  0.45765  1.0000
  C   C19       1.0  0.34095  0.86307  0.62991  1.0000
  C   C20       1.0  0.65888  0.13685  0.36976  1.0000
  C   C21       1.0  0.40489  0.92885  0.40959  1.0000
  C   C22       1.0  0.59342  0.07056  0.59009  1.0000
  C   C23       1.0  0.73090  0.28644  0.73494  1.0000
  C   C24       1.0  0.27016  0.71435  0.26564  1.0000
  C   C25       1.0  0.24211  0.04503  0.42404  1.0000
  C   C26       1.0  0.75620  0.95428  0.57593  1.0000
  C   C27       1.0  0.45595  0.83783  0.51395  1.0000
  C   C28       1.0  0.54310  0.16188  0.48557  1.0000
  C   C29       1.0  0.73336  0.41303  0.52791  1.0000
  C   C30       1.0  0.26592  0.58656  0.47256  1.0000
  C   C31       1.0  0.89246  0.30183  0.48674  1.0000
  C   C32       1.0  0.10611  0.69727  0.51356  1.0000
  C   C33       1.0  0.65065  0.40408  0.65392  1.0000
  C   C34       1.0  0.34994  0.59646  0.34668  1.0000
  C   C35       1.0  0.07474  0.73361  0.85179  1.0000
  C   C36       1.0  0.92532  0.26654  0.14784  1.0000
  N   N1        1.0  0.18177  0.97375  0.64390  1.0000
  N   N2        1.0  0.81792  0.02607  0.35606  1.0000
  N   N3        1.0  0.88666  0.18065  0.69557  1.0000
  N   N4        1.0  0.11363  0.81955  0.30488  1.0000
  N   N5        1.0  0.39988  0.30508  0.12431  1.0000
  N   N6        1.0  0.60066  0.69550  0.87567  1.0000
  O   O1        1.0  0.18586  0.11267  0.85734  1.0000
  O   O2        1.0  0.81526  0.88723  0.14272  1.0000
  O   O3        1.0  0.18368  0.28892  0.68958  1.0000
  O   O4        1.0  0.81685  0.71090  0.31056  1.0000
  O   O5        1.0  0.40219  0.39043  0.18085  1.0000
  O   O6        1.0  0.59874  0.60988  0.81921  1.0000
  O   O7        1.0  0.46017  0.17144  0.15213  1.0000
  O   O8        1.0  0.53996  0.82915  0.84787  1.0000
  O   O9        1.0  0.82593  0.06685  0.94363  1.0000
  O   O10       1.0  0.17505  0.93266  0.05624  1.0000
  O   O11       1.0  0.96596  0.77190  0.78785  1.0000
  O   O12       1.0  0.03420  0.22790  0.21181  1.0000
  O   O13       1.0  0.11904  0.82504  0.88301  1.0000
  O   O14       1.0  0.88077  0.17539  0.11645  1.0000
