data_image0
_chemical_formula_structural       Ni2H30C46N8O12
_chemical_formula_sum              "Ni2 H30 C46 N8 O12"
_cell_length_a       7.41608
_cell_length_b       9.81629
_cell_length_c       15.6635
_cell_angle_alpha    78.2605
_cell_angle_beta     80.946
_cell_angle_gamma    70.4107

_space_group_name_H-M_alt    "P 1"
_space_group_IT_number       1

loop_
  _space_group_symop_operation_xyz
  'x, y, z'

loop_
  _atom_site_type_symbol
  _atom_site_label
  _atom_site_symmetry_multiplicity
  _atom_site_fract_x
  _atom_site_fract_y
  _atom_site_fract_z
  _atom_site_occupancy
  Ni  Ni1       1.0  0.48322  0.38808  0.26105  1.0000
  Ni  Ni2       1.0  0.51680  0.61191  0.73895  1.0000
  H   H1        1.0  0.76427  0.53247  0.29742  1.0000
  H   H2        1.0  0.23574  0.46752  0.70258  1.0000
  H   H3        1.0  0.93604  0.51709  0.42667  1.0000
  H   H4        1.0  0.06394  0.48294  0.57332  1.0000
  H   H5        1.0  0.84675  0.37167  0.57220  1.0000
  H   H6        1.0  0.15322  0.62838  0.42781  1.0000
  H   H7        1.0  0.60927  0.24418  0.57767  1.0000
  H   H8        1.0  0.39070  0.75583  0.42235  1.0000
  H   H9        1.0  0.37577  0.16435  0.57428  1.0000
  H   H10       1.0  0.62426  0.83566  0.42574  1.0000
  H   H11       1.0  0.15589  0.03701  0.55383  1.0000
  H   H12       1.0  0.84410  0.96299  0.44621  1.0000
  H   H13       1.0  0.08156  0.04648  0.39762  1.0000
  H   H14       1.0  0.91845  0.95349  0.60242  1.0000
  H   H15       1.0  0.24209  0.18020  0.27452  1.0000
  H   H16       1.0  0.75793  0.81978  0.72551  1.0000
  H   H17       1.0  0.54038  0.34377  0.07214  1.0000
  H   H18       1.0  0.45961  0.65623  0.92787  1.0000
  H   H19       1.0  0.33318  0.41529  0.94970  1.0000
  H   H20       1.0  0.66684  0.58471  0.05029  1.0000
  H   H21       1.0  0.84081  0.52186  0.14297  1.0000
  H   H22       1.0  0.15919  0.47814  0.85703  1.0000
  H   H23       1.0  0.07139  0.45424  0.25405  1.0000
  H   H24       1.0  0.92861  0.54575  0.74595  1.0000
  H   H25       1.0  0.42511  0.80245  0.05386  1.0000
  H   H26       1.0  0.57488  0.19755  0.94612  1.0000
  H   H27       1.0  0.95836  0.20555  0.06694  1.0000
  H   H28       1.0  0.04165  0.79444  0.93306  1.0000
  H   H29       1.0  0.04891  0.86524  0.29187  1.0000
  H   H30       1.0  0.95106  0.13477  0.70813  1.0000
  C   C1        1.0  0.82358  0.13703  0.24145  1.0000
  C   C2        1.0  0.17645  0.86294  0.75854  1.0000
  C   C3        1.0  0.73884  0.46716  0.36053  1.0000
  C   C4        1.0  0.26115  0.53283  0.63947  1.0000
  C   C5        1.0  0.83067  0.45972  0.43311  1.0000
  C   C6        1.0  0.16935  0.54028  0.56687  1.0000
  C   C7        1.0  0.78392  0.37849  0.51248  1.0000
  C   C8        1.0  0.21608  0.62154  0.48752  1.0000
  C   C9        1.0  0.64872  0.30703  0.51615  1.0000
  C   C10       1.0  0.35128  0.69299  0.48385  1.0000
  C   C11       1.0  0.56515  0.31675  0.44022  1.0000
  C   C12       1.0  0.43485  0.68327  0.55978  1.0000
  C   C13       1.0  0.42497  0.24244  0.43566  1.0000
  C   C14       1.0  0.57506  0.75755  0.56434  1.0000
  C   C15       1.0  0.34214  0.16814  0.50844  1.0000
  C   C16       1.0  0.65787  0.83188  0.49156  1.0000
  C   C17       1.0  0.21694  0.09627  0.49647  1.0000
  C   C18       1.0  0.78307  0.90372  0.50355  1.0000
  C   C19       1.0  0.17962  0.09886  0.41156  1.0000
  C   C20       1.0  0.82038  0.90113  0.58846  1.0000
  C   C21       1.0  0.26603  0.17582  0.34201  1.0000
  C   C22       1.0  0.73400  0.82415  0.65802  1.0000
  C   C23       1.0  0.38434  0.38541  0.08373  1.0000
  C   C24       1.0  0.61565  0.61457  0.91627  1.0000
  C   C25       1.0  0.26631  0.42485  0.01628  1.0000
  C   C26       1.0  0.73368  0.57516  0.98371  1.0000
  C   C27       1.0  0.06550  0.47708  0.03483  1.0000
  C   C28       1.0  0.93448  0.52294  0.96517  1.0000
  C   C29       1.0  0.99413  0.48404  0.12286  1.0000
  C   C30       1.0  0.00585  0.51597  0.87713  1.0000
  C   C31       1.0  0.12192  0.44488  0.18580  1.0000
  C   C32       1.0  0.87807  0.55510  0.81419  1.0000
  C   C33       1.0  0.34951  0.66326  0.21871  1.0000
  C   C34       1.0  0.65049  0.33674  0.78130  1.0000
  C   C35       1.0  0.25001  0.81695  0.17808  1.0000
  C   C36       1.0  0.74996  0.18306  0.82189  1.0000
  C   C37       1.0  0.30380  0.86922  0.09140  1.0000
  C   C38       1.0  0.69618  0.13080  0.90857  1.0000
  C   C39       1.0  0.19618  0.00793  0.05306  1.0000
  C   C40       1.0  0.80380  0.99208  0.94695  1.0000
  C   C41       1.0  0.04021  0.09816  0.09888  1.0000
  C   C42       1.0  0.95980  0.90183  0.90113  1.0000
  C   C43       1.0  0.98995  0.04678  0.18638  1.0000
  C   C44       1.0  0.01011  0.95318  0.81363  1.0000
  C   C45       1.0  0.09374  0.90602  0.22470  1.0000
  C   C46       1.0  0.90626  0.09396  0.77530  1.0000
  N   N1        1.0  0.61184  0.39596  0.36371  1.0000
  N   N2        1.0  0.38814  0.60404  0.63628  1.0000
  N   N3        1.0  0.24837  0.05908  0.96030  1.0000
  N   N4        1.0  0.75161  0.94093  0.03970  1.0000
  N   N5        1.0  0.38223  0.24850  0.35358  1.0000
  N   N6        1.0  0.61781  0.75150  0.64641  1.0000
  N   N7        1.0  0.31428  0.39699  0.16748  1.0000
  N   N8        1.0  0.68572  0.60298  0.83253  1.0000
  O   O1        1.0  0.71652  0.25693  0.19993  1.0000
  O   O2        1.0  0.28351  0.74302  0.80006  1.0000
  O   O3        1.0  0.15002  0.18185  0.92609  1.0000
  O   O4        1.0  0.84996  0.81819  0.07390  1.0000
  O   O5        1.0  0.38720  0.97617  0.92096  1.0000
  O   O6        1.0  0.61280  0.02384  0.07903  1.0000
  O   O7        1.0  0.51273  0.59178  0.18373  1.0000
  O   O8        1.0  0.48724  0.40823  0.81626  1.0000
  O   O9        1.0  0.26365  0.60275  0.28501  1.0000
  O   O10       1.0  0.73632  0.39727  0.71497  1.0000
  O   O11       1.0  0.80319  0.08964  0.32169  1.0000
  O   O12       1.0  0.19686  0.91037  0.67832  1.0000
