data_image0
_chemical_formula_structural       Tb4H24C24N8O32
_chemical_formula_sum              "Tb4 H24 C24 N8 O32"
_cell_length_a       7.82535
_cell_length_b       8.39843
_cell_length_c       17.4196
_cell_angle_alpha    89.9999
_cell_angle_beta     89.9998
_cell_angle_gamma    107.634

_space_group_name_H-M_alt    "P 1"
_space_group_IT_number       1

loop_
  _space_group_symop_operation_xyz
  'x, y, z'

loop_
  _atom_site_type_symbol
  _atom_site_label
  _atom_site_symmetry_multiplicity
  _atom_site_fract_x
  _atom_site_fract_y
  _atom_site_fract_z
  _atom_site_occupancy
  Tb  Tb1       1.0  0.25519  0.73599  0.97709  1.0000
  Tb  Tb2       1.0  0.24481  0.26402  0.47709  1.0000
  Tb  Tb3       1.0  0.74481  0.26403  0.02291  1.0000
  Tb  Tb4       1.0  0.75519  0.73598  0.52291  1.0000
  H   H1        1.0  0.88206  0.65736  0.91880  1.0000
  H   H2        1.0  0.61794  0.34263  0.41880  1.0000
  H   H3        1.0  0.11794  0.34264  0.08120  1.0000
  H   H4        1.0  0.38207  0.65736  0.58120  1.0000
  H   H5        1.0  0.01877  0.67710  0.85066  1.0000
  H   H6        1.0  0.48123  0.32288  0.35066  1.0000
  H   H7        1.0  0.98123  0.32289  0.14934  1.0000
  H   H8        1.0  0.51877  0.67710  0.64934  1.0000
  H   H9        1.0  0.29155  0.09826  0.02028  1.0000
  H   H10       1.0  0.20845  0.90174  0.52028  1.0000
  H   H11       1.0  0.70845  0.90174  0.97972  1.0000
  H   H12       1.0  0.79155  0.09826  0.47972  1.0000
  H   H13       1.0  0.13385  0.97121  0.06473  1.0000
  H   H14       1.0  0.36614  0.02879  0.56473  1.0000
  H   H15       1.0  0.86615  0.02879  0.93528  1.0000
  H   H16       1.0  0.63385  0.97121  0.43528  1.0000
  H   H17       1.0  0.14932  0.09890  0.23212  1.0000
  H   H18       1.0  0.35068  0.90110  0.73211  1.0000
  H   H19       1.0  0.85068  0.90110  0.76789  1.0000
  H   H20       1.0  0.64932  0.09890  0.26789  1.0000
  H   H21       1.0  0.84131  0.60759  0.28762  1.0000
  H   H22       1.0  0.65870  0.39240  0.78762  1.0000
  H   H23       1.0  0.15870  0.39241  0.71238  1.0000
  H   H24       1.0  0.34130  0.60759  0.21238  1.0000
  C   C1        1.0  0.99982  0.87538  0.28852  1.0000
  C   C2        1.0  0.50019  0.12461  0.78851  1.0000
  C   C3        1.0  0.00018  0.12462  0.71149  1.0000
  C   C4        1.0  0.49982  0.87539  0.21149  1.0000
  C   C5        1.0  0.91644  0.71902  0.25701  1.0000
  C   C6        1.0  0.58356  0.28097  0.75701  1.0000
  C   C7        1.0  0.08356  0.28097  0.74299  1.0000
  C   C8        1.0  0.41645  0.71903  0.24299  1.0000
  C   C9        1.0  0.95760  0.73763  0.17806  1.0000
  C   C10       1.0  0.54239  0.26237  0.67806  1.0000
  C   C11       1.0  0.04240  0.26237  0.82195  1.0000
  C   C12       1.0  0.45761  0.73763  0.32195  1.0000
  C   C13       1.0  0.57255  0.56019  0.97462  1.0000
  C   C14       1.0  0.92746  0.43981  0.47462  1.0000
  C   C15       1.0  0.42745  0.43982  0.02538  1.0000
  C   C16       1.0  0.07255  0.56019  0.52538  1.0000
  C   C17       1.0  0.91912  0.61037  0.11637  1.0000
  C   C18       1.0  0.58088  0.38963  0.61637  1.0000
  C   C19       1.0  0.08088  0.38963  0.88363  1.0000
  C   C20       1.0  0.41912  0.61037  0.38363  1.0000
  C   C21       1.0  0.02007  0.93916  0.36803  1.0000
  C   C22       1.0  0.47994  0.06084  0.86803  1.0000
  C   C23       1.0  0.97993  0.06084  0.63197  1.0000
  C   C24       1.0  0.52007  0.93916  0.13197  1.0000
  N   N1        1.0  0.05751  0.89594  0.16176  1.0000
  N   N2        1.0  0.44248  0.10406  0.66175  1.0000
  N   N3        1.0  0.94249  0.10407  0.83824  1.0000
  N   N4        1.0  0.55751  0.89593  0.33824  1.0000
  N   N5        1.0  0.08005  0.97542  0.22872  1.0000
  N   N6        1.0  0.41995  0.02458  0.72872  1.0000
  N   N7        1.0  0.91995  0.02458  0.77128  1.0000
  N   N8        1.0  0.58005  0.97542  0.27128  1.0000
  O   O1        1.0  0.54471  0.69303  0.95201  1.0000
  O   O2        1.0  0.95530  0.30699  0.45202  1.0000
  O   O3        1.0  0.45529  0.30699  0.04798  1.0000
  O   O4        1.0  0.04471  0.69301  0.54798  1.0000
  O   O5        1.0  0.99370  0.73587  0.89547  1.0000
  O   O6        1.0  0.50630  0.26412  0.39548  1.0000
  O   O7        1.0  0.00631  0.26413  0.10453  1.0000
  O   O8        1.0  0.49370  0.73586  0.60453  1.0000
  O   O9        1.0  0.70975  0.51490  0.95996  1.0000
  O   O10       1.0  0.79026  0.48512  0.45996  1.0000
  O   O11       1.0  0.29025  0.48512  0.04003  1.0000
  O   O12       1.0  0.20975  0.51489  0.54004  1.0000
  O   O13       1.0  0.19736  0.99057  0.01434  1.0000
  O   O14       1.0  0.30263  0.00943  0.51433  1.0000
  O   O15       1.0  0.80263  0.00943  0.98567  1.0000
  O   O16       1.0  0.69736  0.99057  0.48567  1.0000
  O   O17       1.0  0.01534  0.64468  0.05616  1.0000
  O   O18       1.0  0.48466  0.35532  0.55616  1.0000
  O   O19       1.0  0.98465  0.35532  0.94384  1.0000
  O   O20       1.0  0.51534  0.64468  0.44384  1.0000
  O   O21       1.0  0.79705  0.47237  0.12693  1.0000
  O   O22       1.0  0.70295  0.52763  0.62693  1.0000
  O   O23       1.0  0.20295  0.52763  0.87307  1.0000
  O   O24       1.0  0.29705  0.47237  0.37307  1.0000
  O   O25       1.0  0.11752  0.08991  0.37645  1.0000
  O   O26       1.0  0.38249  0.91009  0.87645  1.0000
  O   O27       1.0  0.88248  0.91008  0.62355  1.0000
  O   O28       1.0  0.61751  0.08992  0.12355  1.0000
  O   O29       1.0  0.94335  0.84061  0.42095  1.0000
  O   O30       1.0  0.55665  0.15940  0.92095  1.0000
  O   O31       1.0  0.05665  0.15939  0.57905  1.0000
  O   O32       1.0  0.44335  0.84061  0.07905  1.0000
