data_image0
_chemical_formula_structural       Cd4H40C48S8N8O16
_chemical_formula_sum              "Cd4 H40 C48 S8 N8 O16"
_cell_length_a       7.16304
_cell_length_b       13.7407
_cell_length_c       14.1987
_cell_angle_alpha    93.1302
_cell_angle_beta     90.0004
_cell_angle_gamma    90.0018

_space_group_name_H-M_alt    "P 1"
_space_group_IT_number       1

loop_
  _space_group_symop_operation_xyz
  'x, y, z'

loop_
  _atom_site_type_symbol
  _atom_site_label
  _atom_site_symmetry_multiplicity
  _atom_site_fract_x
  _atom_site_fract_y
  _atom_site_fract_z
  _atom_site_occupancy
  Cd  Cd1       1.0  0.75152  0.75935  0.35378  1.0000
  Cd  Cd2       1.0  0.25152  0.74064  0.14621  1.0000
  Cd  Cd3       1.0  0.24850  0.24064  0.64622  1.0000
  Cd  Cd4       1.0  0.74849  0.25936  0.85379  1.0000
  H   H1        1.0  0.88720  0.53520  0.27686  1.0000
  H   H2        1.0  0.38720  0.96479  0.22315  1.0000
  H   H3        1.0  0.11280  0.46478  0.72315  1.0000
  H   H4        1.0  0.61280  0.03521  0.77685  1.0000
  H   H5        1.0  0.89551  0.36524  0.33472  1.0000
  H   H6        1.0  0.39550  0.13476  0.16530  1.0000
  H   H7        1.0  0.10450  0.63474  0.66528  1.0000
  H   H8        1.0  0.60449  0.86525  0.83471  1.0000
  H   H9        1.0  0.79601  0.33736  0.49887  1.0000
  H   H10       1.0  0.29599  0.16265  0.00115  1.0000
  H   H11       1.0  0.20399  0.66263  0.50113  1.0000
  H   H12       1.0  0.70398  0.83737  0.99887  1.0000
  H   H13       1.0  0.67545  0.40692  0.65320  1.0000
  H   H14       1.0  0.17543  0.09309  0.84680  1.0000
  H   H15       1.0  0.32457  0.59307  0.34680  1.0000
  H   H16       1.0  0.82456  0.90693  0.15320  1.0000
  H   H17       1.0  0.56869  0.54945  0.75275  1.0000
  H   H18       1.0  0.06867  0.95056  0.74725  1.0000
  H   H19       1.0  0.43132  0.45054  0.24726  1.0000
  H   H20       1.0  0.93133  0.04946  0.25275  1.0000
  H   H21       1.0  0.49516  0.72760  0.76851  1.0000
  H   H22       1.0  0.99516  0.77241  0.73149  1.0000
  H   H23       1.0  0.50484  0.27239  0.23149  1.0000
  H   H24       1.0  0.00483  0.22761  0.26851  1.0000
  H   H25       1.0  0.50189  0.89232  0.69610  1.0000
  H   H26       1.0  0.00190  0.60768  0.80388  1.0000
  H   H27       1.0  0.49812  0.10766  0.30390  1.0000
  H   H28       1.0  0.99810  0.39234  0.19611  1.0000
  H   H29       1.0  0.64255  0.90494  0.53826  1.0000
  H   H30       1.0  0.14255  0.59506  0.96172  1.0000
  H   H31       1.0  0.35748  0.09505  0.46174  1.0000
  H   H32       1.0  0.85745  0.40495  0.03827  1.0000
  H   H33       1.0  0.74328  0.97203  0.40347  1.0000
  H   H34       1.0  0.24326  0.52796  0.09652  1.0000
  H   H35       1.0  0.25674  0.02796  0.59653  1.0000
  H   H36       1.0  0.75676  0.47204  0.90347  1.0000
  H   H37       1.0  0.53492  0.93712  0.38018  1.0000
  H   H38       1.0  0.03490  0.56288  0.11981  1.0000
  H   H39       1.0  0.46510  0.06287  0.61982  1.0000
  H   H40       1.0  0.96511  0.43713  0.88019  1.0000
  C   C1        1.0  0.84836  0.52072  0.34910  1.0000
  C   C2        1.0  0.34834  0.97928  0.15090  1.0000
  C   C3        1.0  0.15164  0.47926  0.65090  1.0000
  C   C4        1.0  0.65164  0.02073  0.84910  1.0000
  C   C5        1.0  0.85114  0.42598  0.38135  1.0000
  C   C6        1.0  0.35112  0.07402  0.11866  1.0000
  C   C7        1.0  0.14886  0.57400  0.61865  1.0000
  C   C8        1.0  0.64885  0.92599  0.88135  1.0000
  C   C9        1.0  0.79603  0.41031  0.47242  1.0000
  C   C10       1.0  0.29601  0.08970  0.02759  1.0000
  C   C11       1.0  0.20396  0.58968  0.52758  1.0000
  C   C12       1.0  0.70395  0.91032  0.97242  1.0000
  C   C13       1.0  0.73822  0.49041  0.53163  1.0000
  C   C14       1.0  0.23821  0.00960  0.96837  1.0000
  C   C15       1.0  0.26178  0.50958  0.46837  1.0000
  C   C16       1.0  0.76177  0.99042  0.03164  1.0000
  C   C17       1.0  0.67711  0.47972  0.62643  1.0000
  C   C18       1.0  0.17709  0.02029  0.87357  1.0000
  C   C19       1.0  0.32289  0.52027  0.37357  1.0000
  C   C20       1.0  0.82288  0.97973  0.12643  1.0000
  C   C21       1.0  0.61889  0.55861  0.68122  1.0000
  C   C22       1.0  0.11887  0.94140  0.81878  1.0000
  C   C23       1.0  0.38111  0.44138  0.31878  1.0000
  C   C24       1.0  0.88112  0.05861  0.18122  1.0000
  C   C25       1.0  0.61952  0.65406  0.64558  1.0000
  C   C26       1.0  0.11951  0.84595  0.85442  1.0000
  C   C27       1.0  0.38048  0.34593  0.35441  1.0000
  C   C28       1.0  0.88047  0.15407  0.14559  1.0000
  C   C29       1.0  0.55160  0.73681  0.69810  1.0000
  C   C30       1.0  0.05159  0.76320  0.80190  1.0000
  C   C31       1.0  0.44840  0.26318  0.30191  1.0000
  C   C32       1.0  0.94839  0.23682  0.19809  1.0000
  C   C33       1.0  0.55658  0.82682  0.65931  1.0000
  C   C34       1.0  0.05656  0.67318  0.84068  1.0000
  C   C35       1.0  0.44343  0.17316  0.34069  1.0000
  C   C36       1.0  0.94343  0.32683  0.15932  1.0000
  C   C37       1.0  0.63207  0.83422  0.56872  1.0000
  C   C38       1.0  0.13208  0.66578  0.93127  1.0000
  C   C39       1.0  0.36794  0.16576  0.43129  1.0000
  C   C40       1.0  0.86792  0.33424  0.06873  1.0000
  C   C41       1.0  0.68507  0.66793  0.55259  1.0000
  C   C42       1.0  0.18506  0.83207  0.94741  1.0000
  C   C43       1.0  0.31494  0.33205  0.44741  1.0000
  C   C44       1.0  0.81492  0.16794  0.05259  1.0000
  C   C45       1.0  0.74249  0.58410  0.49387  1.0000
  C   C46       1.0  0.24248  0.91590  0.00613  1.0000
  C   C47       1.0  0.25751  0.41589  0.50613  1.0000
  C   C48       1.0  0.75749  0.08411  0.99387  1.0000
  S   S1        1.0  0.05740  0.82071  0.28550  1.0000
  S   S2        1.0  0.55740  0.67927  0.21449  1.0000
  S   S3        1.0  0.94261  0.17927  0.71450  1.0000
  S   S4        1.0  0.44260  0.32073  0.78551  1.0000
  S   S5        1.0  0.22752  0.83879  0.40629  1.0000
  S   S6        1.0  0.72751  0.66121  0.09369  1.0000
  S   S7        1.0  0.77249  0.16121  0.59370  1.0000
  S   S8        1.0  0.27249  0.33880  0.90630  1.0000
  N   N1        1.0  0.79666  0.59747  0.40415  1.0000
  N   N2        1.0  0.29665  0.90253  0.09585  1.0000
  N   N3        1.0  0.20334  0.40251  0.59585  1.0000
  N   N4        1.0  0.70333  0.09748  0.90415  1.0000
  N   N5        1.0  0.69182  0.75719  0.51674  1.0000
  N   N6        1.0  0.19182  0.74281  0.98325  1.0000
  N   N7        1.0  0.30819  0.24279  0.48327  1.0000
  N   N8        1.0  0.80817  0.25720  0.01674  1.0000
  O   O1        1.0  0.10427  0.83198  0.48776  1.0000
  O   O2        1.0  0.60427  0.66802  0.01222  1.0000
  O   O3        1.0  0.89574  0.16802  0.51223  1.0000
  O   O4        1.0  0.39573  0.33199  0.98778  1.0000
  O   O5        1.0  0.31208  0.93746  0.40156  1.0000
  O   O6        1.0  0.81207  0.56253  0.09842  1.0000
  O   O7        1.0  0.68793  0.06253  0.59843  1.0000
  O   O8        1.0  0.18794  0.43748  0.90157  1.0000
  O   O9        1.0  0.36973  0.76144  0.39707  1.0000
  O   O10       1.0  0.86973  0.73856  0.10292  1.0000
  O   O11       1.0  0.63027  0.23855  0.60293  1.0000
  O   O12       1.0  0.13027  0.26145  0.89708  1.0000
  O   O13       1.0  0.66906  0.93122  0.35943  1.0000
  O   O14       1.0  0.16904  0.56877  0.14057  1.0000
  O   O15       1.0  0.33097  0.06877  0.64057  1.0000
  O   O16       1.0  0.83097  0.43123  0.85943  1.0000
