data_image0
_chemical_formula_structural       Cu2H40C48N8O12
_chemical_formula_sum              "Cu2 H40 C48 N8 O12"
_cell_length_a       6.81787
_cell_length_b       10.6265
_cell_length_c       14.6369
_cell_angle_alpha    96.1028
_cell_angle_beta     90.0003
_cell_angle_gamma    89.9998

_space_group_name_H-M_alt    "P 1"
_space_group_IT_number       1

loop_
  _space_group_symop_operation_xyz
  'x, y, z'

loop_
  _atom_site_type_symbol
  _atom_site_label
  _atom_site_symmetry_multiplicity
  _atom_site_fract_x
  _atom_site_fract_y
  _atom_site_fract_z
  _atom_site_occupancy
  Cu  Cu1       1.0  0.44647  0.91115  0.09152  1.0000
  Cu  Cu2       1.0  0.94647  0.08885  0.90848  1.0000
  H   H1        1.0  0.41055  0.37398  0.73020  1.0000
  H   H2        1.0  0.91055  0.62602  0.26979  1.0000
  H   H3        1.0  0.36120  0.87551  0.25625  1.0000
  H   H4        1.0  0.86120  0.12449  0.74375  1.0000
  H   H5        1.0  0.55866  0.94793  0.93096  1.0000
  H   H6        1.0  0.05866  0.05207  0.06904  1.0000
  H   H7        1.0  0.29329  0.45199  0.44573  1.0000
  H   H8        1.0  0.79329  0.54801  0.55427  1.0000
  H   H9        1.0  0.29735  0.57926  0.15426  1.0000
  H   H10       1.0  0.79735  0.42074  0.84574  1.0000
  H   H11       1.0  0.27325  0.42585  0.03469  1.0000
  H   H12       1.0  0.77325  0.57415  0.96530  1.0000
  H   H13       1.0  0.31412  0.33690  0.87269  1.0000
  H   H14       1.0  0.81412  0.66310  0.12731  1.0000
  H   H15       1.0  0.54732  0.69588  0.80941  1.0000
  H   H16       1.0  0.04732  0.30412  0.19059  1.0000
  H   H17       1.0  0.56967  0.24963  0.03100  1.0000
  H   H18       1.0  0.06968  0.75037  0.96900  1.0000
  H   H19       1.0  0.54074  0.41029  0.15066  1.0000
  H   H20       1.0  0.04074  0.58971  0.84934  1.0000
  H   H21       1.0  0.43579  0.49723  0.30653  1.0000
  H   H22       1.0  0.93579  0.50277  0.69348  1.0000
  H   H23       1.0  0.28911  0.11940  0.36677  1.0000
  H   H24       1.0  0.78912  0.88060  0.63323  1.0000
  H   H25       1.0  0.86564  0.45994  0.38759  1.0000
  H   H26       1.0  0.36565  0.54006  0.61241  1.0000
  H   H27       1.0  0.86072  0.24668  0.30626  1.0000
  H   H28       1.0  0.36072  0.75332  0.69374  1.0000
  H   H29       1.0  0.70912  0.10669  0.56487  1.0000
  H   H30       1.0  0.20912  0.89331  0.43513  1.0000
  H   H31       1.0  0.70820  0.32841  0.63453  1.0000
  H   H32       1.0  0.20820  0.67159  0.36547  1.0000
  H   H33       1.0  0.65778  0.93337  0.49328  1.0000
  H   H34       1.0  0.15778  0.06663  0.50672  1.0000
  H   H35       1.0  0.70815  0.71714  0.41995  1.0000
  H   H36       1.0  0.20816  0.28286  0.58005  1.0000
  H   H37       1.0  0.96968  0.84749  0.19142  1.0000
  H   H38       1.0  0.46968  0.15251  0.80858  1.0000
  H   H39       1.0  0.94145  0.06904  0.25758  1.0000
  H   H40       1.0  0.44146  0.93096  0.74242  1.0000
  C   C1        1.0  0.34913  0.65016  0.11085  1.0000
  C   C2        1.0  0.84913  0.34984  0.88915  1.0000
  C   C3        1.0  0.37702  0.61184  0.01502  1.0000
  C   C4        1.0  0.87702  0.38816  0.98498  1.0000
  C   C5        1.0  0.33122  0.48482  0.98448  1.0000
  C   C6        1.0  0.83122  0.51518  0.01552  1.0000
  C   C7        1.0  0.35547  0.43438  0.89452  1.0000
  C   C8        1.0  0.85547  0.56562  0.10547  1.0000
  C   C9        1.0  0.43316  0.51175  0.83053  1.0000
  C   C10       1.0  0.93317  0.48825  0.16947  1.0000
  C   C11       1.0  0.48261  0.63794  0.85864  1.0000
  C   C12       1.0  0.98262  0.36206  0.14136  1.0000
  C   C13       1.0  0.45401  0.69124  0.94996  1.0000
  C   C14       1.0  0.95401  0.30876  0.05004  1.0000
  C   C15       1.0  0.52554  0.17656  0.07434  1.0000
  C   C16       1.0  0.02554  0.82344  0.92566  1.0000
  C   C17       1.0  0.47270  0.21624  0.16763  1.0000
  C   C18       1.0  0.97270  0.78376  0.83237  1.0000
  C   C19       1.0  0.48293  0.34701  0.19818  1.0000
  C   C20       1.0  0.98293  0.65299  0.80182  1.0000
  C   C21       1.0  0.42499  0.39613  0.28511  1.0000
  C   C22       1.0  0.92499  0.60387  0.71489  1.0000
  C   C23       1.0  0.35094  0.31325  0.34660  1.0000
  C   C24       1.0  0.85094  0.68676  0.65340  1.0000
  C   C25       1.0  0.34175  0.18326  0.31870  1.0000
  C   C26       1.0  0.84176  0.81674  0.68130  1.0000
  C   C27       1.0  0.40425  0.13200  0.23114  1.0000
  C   C28       1.0  0.90426  0.86800  0.76886  1.0000
  C   C29       1.0  0.82920  0.37973  0.42503  1.0000
  C   C30       1.0  0.32920  0.62027  0.57497  1.0000
  C   C31       1.0  0.82939  0.25821  0.37951  1.0000
  C   C32       1.0  0.32940  0.74179  0.62049  1.0000
  C   C33       1.0  0.78785  0.15467  0.42809  1.0000
  C   C34       1.0  0.28785  0.84533  0.57191  1.0000
  C   C35       1.0  0.74254  0.18148  0.52186  1.0000
  C   C36       1.0  0.24254  0.81852  0.47814  1.0000
  C   C37       1.0  0.74235  0.30608  0.56190  1.0000
  C   C38       1.0  0.24236  0.69392  0.43810  1.0000
  C   C39       1.0  0.79801  0.02327  0.38318  1.0000
  C   C40       1.0  0.29802  0.97673  0.61682  1.0000
  C   C41       1.0  0.72953  0.92009  0.42657  1.0000
  C   C42       1.0  0.22954  0.07991  0.57343  1.0000
  C   C43       1.0  0.75466  0.79742  0.38469  1.0000
  C   C44       1.0  0.25466  0.20258  0.61531  1.0000
  C   C45       1.0  0.90151  0.86975  0.25863  1.0000
  C   C46       1.0  0.40151  0.13025  0.74137  1.0000
  C   C47       1.0  0.88376  0.99502  0.29604  1.0000
  C   C48       1.0  0.38377  0.00498  0.70396  1.0000
  N   N1        1.0  0.38102  0.76350  0.15025  1.0000
  N   N2        1.0  0.88101  0.23650  0.84975  1.0000
  N   N3        1.0  0.52140  0.06015  0.03677  1.0000
  N   N4        1.0  0.02140  0.93985  0.96323  1.0000
  N   N5        1.0  0.84108  0.77165  0.30238  1.0000
  N   N6        1.0  0.34108  0.22835  0.69762  1.0000
  N   N7        1.0  0.78674  0.40397  0.51472  1.0000
  N   N8        1.0  0.28674  0.59603  0.48528  1.0000
  O   O1        1.0  0.46214  0.46563  0.74204  1.0000
  O   O2        1.0  0.96214  0.53437  0.25796  1.0000
  O   O3        1.0  0.50075  0.81167  0.97343  1.0000
  O   O4        1.0  0.00075  0.18833  0.02657  1.0000
  O   O5        1.0  0.34816  0.78054  0.24464  1.0000
  O   O6        1.0  0.84816  0.21946  0.75536  1.0000
  O   O7        1.0  0.39765  0.00765  0.21037  1.0000
  O   O8        1.0  0.89766  0.99235  0.78963  1.0000
  O   O9        1.0  0.57256  0.04260  0.94355  1.0000
  O   O10       1.0  0.07256  0.95740  0.05645  1.0000
  O   O11       1.0  0.29142  0.35367  0.43199  1.0000
  O   O12       1.0  0.79142  0.64633  0.56801  1.0000
