data_image0
_chemical_formula_structural       La3H6C12N9O15
_chemical_formula_sum              "La3 H6 C12 N9 O15"
_cell_length_a       8.78346
_cell_length_b       8.78352
_cell_length_c       10.1658
_cell_angle_alpha    90.0052
_cell_angle_beta     89.9948
_cell_angle_gamma    119.999

_space_group_name_H-M_alt    "P 1"
_space_group_IT_number       1

loop_
  _space_group_symop_operation_xyz
  'x, y, z'

loop_
  _atom_site_type_symbol
  _atom_site_label
  _atom_site_symmetry_multiplicity
  _atom_site_fract_x
  _atom_site_fract_y
  _atom_site_fract_z
  _atom_site_occupancy
  La  La1       1.0  0.77985  0.00000  0.16669  1.0000
  La  La2       1.0  0.00000  0.77985  0.83332  1.0000
  La  La3       1.0  0.22012  0.22012  0.50000  1.0000
  H   H1        1.0  0.91420  0.28045  0.37537  1.0000
  H   H2        1.0  0.71933  0.63352  0.04195  1.0000
  H   H3        1.0  0.36622  0.08575  0.70859  1.0000
  H   H4        1.0  0.63352  0.71932  0.95805  1.0000
  H   H5        1.0  0.08577  0.36622  0.29140  1.0000
  H   H6        1.0  0.28043  0.91418  0.62463  1.0000
  C   C1        1.0  0.52169  0.61256  0.33526  1.0000
  C   C2        1.0  0.38756  0.90928  0.00185  1.0000
  C   C3        1.0  0.09081  0.47824  0.66853  1.0000
  C   C4        1.0  0.90929  0.38756  0.99816  1.0000
  C   C5        1.0  0.47825  0.09080  0.33148  1.0000
  C   C6        1.0  0.61255  0.52170  0.66473  1.0000
  C   C7        1.0  0.66360  0.69962  0.43600  1.0000
  C   C8        1.0  0.30047  0.96412  0.10258  1.0000
  C   C9        1.0  0.03605  0.33643  0.76934  1.0000
  C   C10       1.0  0.96414  0.30048  0.89743  1.0000
  C   C11       1.0  0.33642  0.03604  0.23067  1.0000
  C   C12       1.0  0.69962  0.66361  0.56401  1.0000
  N   N1        1.0  0.80194  0.85785  0.40099  1.0000
  N   N2        1.0  0.14223  0.94422  0.06760  1.0000
  N   N3        1.0  0.05588  0.19804  0.73432  1.0000
  N   N4        1.0  0.94425  0.14224  0.93241  1.0000
  N   N5        1.0  0.19804  0.05586  0.26569  1.0000
  N   N6        1.0  0.85784  0.80196  0.59902  1.0000
  N   N7        1.0  0.91625  0.91627  0.50001  1.0000
  N   N8        1.0  0.08376  0.00002  0.16666  1.0000
  N   N9        1.0  0.00005  0.08377  0.83336  1.0000
  O   O1        1.0  0.54404  0.69641  0.22853  1.0000
  O   O2        1.0  0.30376  0.84780  0.89509  1.0000
  O   O3        1.0  0.15217  0.45579  0.56176  1.0000
  O   O4        1.0  0.84779  0.30375  0.10490  1.0000
  O   O5        1.0  0.45581  0.15220  0.43824  1.0000
  O   O6        1.0  0.69641  0.54403  0.77147  1.0000
  O   O7        1.0  0.99996  0.25574  0.33336  1.0000
  O   O8        1.0  0.74399  0.74399  0.00000  1.0000
  O   O9        1.0  0.25574  0.99996  0.66663  1.0000
  O   O10       1.0  0.38859  0.46244  0.35684  1.0000
  O   O11       1.0  0.53766  0.92629  0.02350  1.0000
  O   O12       1.0  0.07383  0.61140  0.69008  1.0000
  O   O13       1.0  0.92630  0.53767  0.97650  1.0000
  O   O14       1.0  0.61139  0.07382  0.30993  1.0000
  O   O15       1.0  0.46243  0.38860  0.64316  1.0000
