data_image0
_chemical_formula_structural       Sm3H6C12N9O15
_chemical_formula_sum              "Sm3 H6 C12 N9 O15"
_cell_length_a       8.55438
_cell_length_b       8.55438
_cell_length_c       9.84038
_cell_angle_alpha    89.9829
_cell_angle_beta     90.0174
_cell_angle_gamma    119.998

_space_group_name_H-M_alt    "P 1"
_space_group_IT_number       1

loop_
  _space_group_symop_operation_xyz
  'x, y, z'

loop_
  _atom_site_type_symbol
  _atom_site_label
  _atom_site_symmetry_multiplicity
  _atom_site_fract_x
  _atom_site_fract_y
  _atom_site_fract_z
  _atom_site_occupancy
  Sm  Sm1       1.0  0.78227  0.00006  0.66668  1.0000
  Sm  Sm2       1.0  0.00006  0.78226  0.33331  1.0000
  Sm  Sm3       1.0  0.21774  0.21774  1.00000  1.0000
  H   H1        1.0  0.09237  0.36192  0.79403  1.0000
  H   H2        1.0  0.63809  0.73049  0.46067  1.0000
  H   H3        1.0  0.26942  0.90749  0.12738  1.0000
  H   H4        1.0  0.73049  0.63809  0.53933  1.0000
  H   H5        1.0  0.90748  0.26942  0.87262  1.0000
  H   H6        1.0  0.36191  0.09237  0.20597  1.0000
  C   C1        1.0  0.65912  0.69539  0.93375  1.0000
  C   C2        1.0  0.30457  0.96385  0.60057  1.0000
  C   C3        1.0  0.03632  0.34075  0.26696  1.0000
  C   C4        1.0  0.96385  0.30456  0.39943  1.0000
  C   C5        1.0  0.34076  0.03632  0.73304  1.0000
  C   C6        1.0  0.69538  0.65912  0.06625  1.0000
  C   C7        1.0  0.51400  0.60802  0.82917  1.0000
  C   C8        1.0  0.39192  0.90609  0.49616  1.0000
  C   C9        1.0  0.09409  0.48594  0.16250  1.0000
  C   C10       1.0  0.90610  0.39193  0.50383  1.0000
  C   C11       1.0  0.48594  0.09409  0.83750  1.0000
  C   C12       1.0  0.60802  0.51401  0.17082  1.0000
  N   N1        1.0  0.80146  0.85734  0.89751  1.0000
  N   N2        1.0  0.14259  0.94417  0.56427  1.0000
  N   N3        1.0  0.05592  0.19840  0.23078  1.0000
  N   N4        1.0  0.94417  0.14258  0.43572  1.0000
  N   N5        1.0  0.19840  0.05592  0.76922  1.0000
  N   N6        1.0  0.85734  0.80146  0.10248  1.0000
  N   N7        1.0  0.91822  0.91822  1.00000  1.0000
  N   N8        1.0  0.08167  0.00003  0.66670  1.0000
  N   N9        1.0  0.00004  0.08167  0.33329  1.0000
  O   O1        1.0  0.99993  0.24688  0.83330  1.0000
  O   O2        1.0  0.75312  0.75312  0.50000  1.0000
  O   O3        1.0  0.24688  0.99993  0.16670  1.0000
  O   O4        1.0  0.37912  0.45174  0.84771  1.0000
  O   O5        1.0  0.54826  0.92762  0.51468  1.0000
  O   O6        1.0  0.07271  0.62083  0.18109  1.0000
  O   O7        1.0  0.92762  0.54826  0.48532  1.0000
  O   O8        1.0  0.62083  0.07271  0.81890  1.0000
  O   O9        1.0  0.45174  0.37912  0.15229  1.0000
  O   O10       1.0  0.53600  0.69893  0.72165  1.0000
  O   O11       1.0  0.30101  0.83704  0.38867  1.0000
  O   O12       1.0  0.16303  0.46407  0.05496  1.0000
  O   O13       1.0  0.83704  0.30101  0.61132  1.0000
  O   O14       1.0  0.46407  0.16304  0.94504  1.0000
  O   O15       1.0  0.69892  0.53599  0.27834  1.0000
