data_image0
_chemical_formula_structural       Nd3H6C12N9O15
_chemical_formula_sum              "Nd3 H6 C12 N9 O15"
_cell_length_a       8.64019
_cell_length_b       8.64014
_cell_length_c       9.9484
_cell_angle_alpha    90.0009
_cell_angle_beta     89.999
_cell_angle_gamma    120.003

_space_group_name_H-M_alt    "P 1"
_space_group_IT_number       1

loop_
  _space_group_symop_operation_xyz
  'x, y, z'

loop_
  _atom_site_type_symbol
  _atom_site_label
  _atom_site_symmetry_multiplicity
  _atom_site_fract_x
  _atom_site_fract_y
  _atom_site_fract_z
  _atom_site_occupancy
  Nd  Nd1       1.0  0.78217  0.99997  0.66663  1.0000
  Nd  Nd2       1.0  0.99997  0.78217  0.33337  1.0000
  Nd  Nd3       1.0  0.21779  0.21779  0.00000  1.0000
  H   H1        1.0  0.09052  0.36339  0.79354  1.0000
  H   H2        1.0  0.63659  0.72710  0.46025  1.0000
  H   H3        1.0  0.27277  0.90946  0.12700  1.0000
  H   H4        1.0  0.72708  0.63660  0.53975  1.0000
  H   H5        1.0  0.90947  0.27278  0.87300  1.0000
  H   H6        1.0  0.36339  0.09051  0.20645  1.0000
  C   C1        1.0  0.39061  0.90678  0.49776  1.0000
  C   C2        1.0  0.09326  0.48389  0.16442  1.0000
  C   C3        1.0  0.51614  0.60936  0.83110  1.0000
  C   C4        1.0  0.48388  0.09325  0.83558  1.0000
  C   C5        1.0  0.60936  0.51613  0.16891  1.0000
  C   C6        1.0  0.90678  0.39062  0.50224  1.0000
  C   C7        1.0  0.30365  0.96390  0.60113  1.0000
  C   C8        1.0  0.03617  0.33980  0.26779  1.0000
  C   C9        1.0  0.66021  0.69640  0.93448  1.0000
  C   C10       1.0  0.33978  0.03616  0.73221  1.0000
  C   C11       1.0  0.69640  0.66020  0.06552  1.0000
  C   C12       1.0  0.96390  0.30365  0.39887  1.0000
  N   N1        1.0  0.08311  0.00004  0.66668  1.0000
  N   N2        1.0  0.00004  0.08311  0.33332  1.0000
  N   N3        1.0  0.91692  0.91692  0.00000  1.0000
  N   N4        1.0  0.14312  0.94433  0.56538  1.0000
  N   N5        1.0  0.05576  0.19886  0.23203  1.0000
  N   N6        1.0  0.80116  0.85692  0.89872  1.0000
  N   N7        1.0  0.19885  0.05575  0.76797  1.0000
  N   N8        1.0  0.85692  0.80116  0.10128  1.0000
  N   N9        1.0  0.94433  0.14313  0.43462  1.0000
  O   O1        1.0  0.00001  0.24977  0.83323  1.0000
  O   O2        1.0  0.75017  0.75017  0.49999  1.0000
  O   O3        1.0  0.24978  0.00001  0.16676  1.0000
  O   O4        1.0  0.30178  0.83996  0.39070  1.0000
  O   O5        1.0  0.16009  0.46192  0.05735  1.0000
  O   O6        1.0  0.53811  0.69814  0.72401  1.0000
  O   O7        1.0  0.46192  0.16008  0.94265  1.0000
  O   O8        1.0  0.69815  0.53809  0.27599  1.0000
  O   O9        1.0  0.83995  0.30178  0.60930  1.0000
  O   O10       1.0  0.54476  0.92682  0.51685  1.0000
  O   O11       1.0  0.07313  0.61795  0.18353  1.0000
  O   O12       1.0  0.38206  0.45522  0.85023  1.0000
  O   O13       1.0  0.61794  0.07312  0.81646  1.0000
  O   O14       1.0  0.45521  0.38205  0.14977  1.0000
  O   O15       1.0  0.92683  0.54477  0.48316  1.0000
