data_image0
_chemical_formula_structural       Gd3H6C12N9O15
_chemical_formula_sum              "Gd3 H6 C12 N9 O15"
_cell_length_a       8.47897
_cell_length_b       8.47902
_cell_length_c       9.73348
_cell_angle_alpha    90.0045
_cell_angle_beta     89.9957
_cell_angle_gamma    119.998

_space_group_name_H-M_alt    "P 1"
_space_group_IT_number       1

loop_
  _space_group_symop_operation_xyz
  'x, y, z'

loop_
  _atom_site_type_symbol
  _atom_site_label
  _atom_site_symmetry_multiplicity
  _atom_site_fract_x
  _atom_site_fract_y
  _atom_site_fract_z
  _atom_site_occupancy
  Gd  Gd1       1.0  0.21842  1.00000  0.16665  1.0000
  Gd  Gd2       1.0  0.00000  0.21842  0.83336  1.0000
  Gd  Gd3       1.0  0.78156  0.78156  0.50000  1.0000
  H   H1        1.0  0.26724  0.36150  0.03886  1.0000
  H   H2        1.0  0.63849  0.90574  0.70552  1.0000
  H   H3        1.0  0.09429  0.73275  0.37216  1.0000
  H   H4        1.0  0.90569  0.63849  0.29446  1.0000
  H   H5        1.0  0.73280  0.09434  0.62782  1.0000
  H   H6        1.0  0.36150  0.26719  0.96112  1.0000
  C   C1        1.0  0.03665  0.69537  0.90020  1.0000
  C   C2        1.0  0.30462  0.34128  0.56690  1.0000
  C   C3        1.0  0.65874  0.96338  0.23359  1.0000
  C   C4        1.0  0.34128  0.30462  0.43311  1.0000
  C   C5        1.0  0.96335  0.65873  0.76642  1.0000
  C   C6        1.0  0.69538  0.03665  0.09981  1.0000
  C   C7        1.0  0.09568  0.60792  0.00552  1.0000
  C   C8        1.0  0.39212  0.48777  0.67223  1.0000
  C   C9        1.0  0.51224  0.90431  0.33890  1.0000
  C   C10       1.0  0.48776  0.39212  0.32777  1.0000
  C   C11       1.0  0.90431  0.51224  0.66111  1.0000
  C   C12       1.0  0.60793  0.09568  0.99449  1.0000
  N   N1        1.0  0.05666  0.85880  0.93680  1.0000
  N   N2        1.0  0.14121  0.19786  0.60351  1.0000
  N   N3        1.0  0.80214  0.94337  0.27020  1.0000
  N   N4        1.0  0.19788  0.14119  0.39651  1.0000
  N   N5        1.0  0.94333  0.80212  0.72981  1.0000
  N   N6        1.0  0.85883  0.05670  0.06322  1.0000
  N   N7        1.0  0.00001  0.92017  0.83329  1.0000
  N   N8        1.0  0.07985  0.07982  0.50001  1.0000
  N   N9        1.0  0.92021  0.00007  0.16672  1.0000
  O   O1        1.0  0.24520  0.24519  0.99999  1.0000
  O   O2        1.0  0.75480  0.00003  0.66666  1.0000
  O   O3        1.0  0.00001  0.75478  0.33331  1.0000
  O   O4        1.0  0.07253  0.44945  0.98781  1.0000
  O   O5        1.0  0.55054  0.62311  0.65450  1.0000
  O   O6        1.0  0.37688  0.92739  0.32117  1.0000
  O   O7        1.0  0.62310  0.55054  0.34550  1.0000
  O   O8        1.0  0.92738  0.37688  0.67882  1.0000
  O   O9        1.0  0.44945  0.07253  0.01218  1.0000
  O   O10       1.0  0.16750  0.70108  0.11322  1.0000
  O   O11       1.0  0.29894  0.46647  0.77993  1.0000
  O   O12       1.0  0.53353  0.83245  0.44658  1.0000
  O   O13       1.0  0.46645  0.29895  0.22007  1.0000
  O   O14       1.0  0.83247  0.53354  0.55341  1.0000
  O   O15       1.0  0.70106  0.16747  0.88678  1.0000
