data_image0
_chemical_formula_structural       Cd2H20C20S4N16
_chemical_formula_sum              "Cd2 H20 C20 S4 N16"
_cell_length_a       8.13929
_cell_length_b       9.66183
_cell_length_c       10.6923
_cell_angle_alpha    63.1385
_cell_angle_beta     85.7729
_cell_angle_gamma    80.5525

_space_group_name_H-M_alt    "P 1"
_space_group_IT_number       1

loop_
  _space_group_symop_operation_xyz
  'x, y, z'

loop_
  _atom_site_type_symbol
  _atom_site_label
  _atom_site_symmetry_multiplicity
  _atom_site_fract_x
  _atom_site_fract_y
  _atom_site_fract_z
  _atom_site_occupancy
  Cd  Cd1       1.0  0.50000  0.50000  0.50000  1.0000
  Cd  Cd2       1.0  0.00000  0.00000  0.50000  1.0000
  H   H1        1.0  0.45835  0.40107  0.12508  1.0000
  H   H2        1.0  0.04153  0.47374  0.12495  1.0000
  H   H3        1.0  0.54165  0.59893  0.87492  1.0000
  H   H4        1.0  0.95847  0.52626  0.87505  1.0000
  H   H5        1.0  0.48157  0.34507  0.30681  1.0000
  H   H6        1.0  0.01830  0.34802  0.30659  1.0000
  H   H7        1.0  0.51843  0.65493  0.69319  1.0000
  H   H8        1.0  0.98170  0.65198  0.69341  1.0000
  H   H9        1.0  0.73695  0.80668  0.89251  1.0000
  H   H10       1.0  0.76240  0.30060  0.89242  1.0000
  H   H11       1.0  0.26305  0.19332  0.10749  1.0000
  H   H12       1.0  0.23760  0.69941  0.10758  1.0000
  H   H13       1.0  0.86074  0.85232  0.07977  1.0000
  H   H14       1.0  0.63885  0.06775  0.07982  1.0000
  H   H15       1.0  0.13926  0.14768  0.92023  1.0000
  H   H16       1.0  0.36116  0.93225  0.92017  1.0000
  H   H17       1.0  0.76537  0.69817  0.32940  1.0000
  H   H18       1.0  0.73477  0.97223  0.32934  1.0000
  H   H19       1.0  0.23463  0.30183  0.67060  1.0000
  H   H20       1.0  0.26524  0.02776  0.67065  1.0000
  C   C1        1.0  0.90285  0.31351  0.57058  1.0000
  C   C2        1.0  0.59707  0.11628  0.57048  1.0000
  C   C3        1.0  0.09716  0.68650  0.42941  1.0000
  C   C4        1.0  0.40293  0.88372  0.42952  1.0000
  C   C5        1.0  0.58127  0.54088  0.17210  1.0000
  C   C6        1.0  0.91858  0.28688  0.17188  1.0000
  C   C7        1.0  0.41873  0.45912  0.82790  1.0000
  C   C8        1.0  0.08142  0.71312  0.82812  1.0000
  C   C9        1.0  0.71255  0.73749  0.00402  1.0000
  C   C10       1.0  0.78693  0.25833  0.00392  1.0000
  C   C11       1.0  0.28745  0.26250  0.99598  1.0000
  C   C12       1.0  0.21306  0.74168  0.99608  1.0000
  C   C13       1.0  0.77778  0.76584  0.10601  1.0000
  C   C14       1.0  0.72187  0.12801  0.10599  1.0000
  C   C15       1.0  0.22222  0.23415  0.89399  1.0000
  C   C16       1.0  0.27813  0.87200  0.89401  1.0000
  C   C17       1.0  0.72746  0.67989  0.24273  1.0000
  C   C18       1.0  0.77249  0.07721  0.24267  1.0000
  C   C19       1.0  0.27254  0.32011  0.75727  1.0000
  C   C20       1.0  0.22751  0.92279  0.75733  1.0000
  S   S1        1.0  0.80507  0.43779  0.62428  1.0000
  S   S2        1.0  0.69499  0.93836  0.62397  1.0000
  S   S3        1.0  0.19494  0.56223  0.37571  1.0000
  S   S4        1.0  0.30502  0.06164  0.37602  1.0000
  N   N1        1.0  0.97898  0.22513  0.53106  1.0000
  N   N2        1.0  0.52070  0.24409  0.53111  1.0000
  N   N3        1.0  0.02101  0.77488  0.46894  1.0000
  N   N4        1.0  0.47930  0.75590  0.46889  1.0000
  N   N5        1.0  0.62750  0.57055  0.27678  1.0000
  N   N6        1.0  0.87254  0.15254  0.27662  1.0000
  N   N7        1.0  0.37250  0.42945  0.72322  1.0000
  N   N8        1.0  0.12746  0.84746  0.72338  1.0000
  N   N9        1.0  0.61655  0.62713  0.03459  1.0000
  N   N10       1.0  0.88310  0.33811  0.03439  1.0000
  N   N11       1.0  0.38344  0.37286  0.96541  1.0000
  N   N12       1.0  0.11690  0.66189  0.96561  1.0000
  N   N13       1.0  0.49374  0.42294  0.20444  1.0000
  N   N14       1.0  0.00618  0.37248  0.20423  1.0000
  N   N15       1.0  0.50626  0.57706  0.79556  1.0000
  N   N16       1.0  0.99382  0.62752  0.79578  1.0000
