data_image0
_chemical_formula_structural       Cu4H6C8S2N4Cl2
_chemical_formula_sum              "Cu4 H6 C8 S2 N4 Cl2"
_cell_length_a       3.81103
_cell_length_b       7.94459
_cell_length_c       10.2543
_cell_angle_alpha    97.0235
_cell_angle_beta     91.3814
_cell_angle_gamma    96.3998

_space_group_name_H-M_alt    "P 1"
_space_group_IT_number       1

loop_
  _space_group_symop_operation_xyz
  'x, y, z'

loop_
  _atom_site_type_symbol
  _atom_site_label
  _atom_site_symmetry_multiplicity
  _atom_site_fract_x
  _atom_site_fract_y
  _atom_site_fract_z
  _atom_site_occupancy
  Cu  Cu1       1.0  0.15053  0.60761  0.88722  1.0000
  Cu  Cu2       1.0  0.84948  0.39240  0.11278  1.0000
  Cu  Cu3       1.0  0.58151  0.93252  0.88120  1.0000
  Cu  Cu4       1.0  0.41848  0.06748  0.11881  1.0000
  H   H1        1.0  0.73352  0.50777  0.39093  1.0000
  H   H2        1.0  0.26646  0.49223  0.60907  1.0000
  H   H3        1.0  0.43020  0.74892  0.51258  1.0000
  H   H4        1.0  0.56982  0.25108  0.48741  1.0000
  H   H5        1.0  0.28033  0.98349  0.37948  1.0000
  H   H6        1.0  0.71968  0.01651  0.62053  1.0000
  C   C1        1.0  0.62511  0.73499  0.14981  1.0000
  C   C2        1.0  0.37486  0.26502  0.85018  1.0000
  C   C3        1.0  0.65111  0.61291  0.34301  1.0000
  C   C4        1.0  0.34888  0.38709  0.65699  1.0000
  C   C5        1.0  0.48874  0.74511  0.40886  1.0000
  C   C6        1.0  0.51127  0.25490  0.59116  1.0000
  C   C7        1.0  0.40599  0.87357  0.33713  1.0000
  C   C8        1.0  0.59403  0.12642  0.66286  1.0000
  S   S1        1.0  0.69686  0.72068  0.98250  1.0000
  S   S2        1.0  0.30312  0.27932  0.01750  1.0000
  N   N1        1.0  0.47644  0.87052  0.20864  1.0000
  N   N2        1.0  0.52355  0.12948  0.79136  1.0000
  N   N3        1.0  0.71651  0.60618  0.21413  1.0000
  N   N4        1.0  0.28350  0.39381  0.78587  1.0000
  Cl  Cl1       1.0  0.00613  0.76716  0.70616  1.0000
  Cl  Cl2       1.0  0.99388  0.23283  0.29384  1.0000
