data_image0
_chemical_formula_structural       Dy4H20C36S2N8O26
_chemical_formula_sum              "Dy4 H20 C36 S2 N8 O26"
_cell_length_a       6.61322
_cell_length_b       9.54402
_cell_length_c       16.0425
_cell_angle_alpha    97.3101
_cell_angle_beta     90
_cell_angle_gamma    90.0001

_space_group_name_H-M_alt    "P 1"
_space_group_IT_number       1

loop_
  _space_group_symop_operation_xyz
  'x, y, z'

loop_
  _atom_site_type_symbol
  _atom_site_label
  _atom_site_symmetry_multiplicity
  _atom_site_fract_x
  _atom_site_fract_y
  _atom_site_fract_z
  _atom_site_occupancy
  Dy  Dy1       1.0  0.82982  0.17566  0.65027  1.0000
  Dy  Dy2       1.0  0.17018  0.17566  0.15027  1.0000
  Dy  Dy3       1.0  0.67602  0.99224  0.85077  1.0000
  Dy  Dy4       1.0  0.32397  0.99224  0.35077  1.0000
  H   H1        1.0  0.07318  0.99293  0.77939  1.0000
  H   H2        1.0  0.92681  0.99293  0.27939  1.0000
  H   H3        1.0  0.14092  0.93792  0.86327  1.0000
  H   H4        1.0  0.85907  0.93792  0.36327  1.0000
  H   H5        1.0  0.69821  0.37730  0.35462  1.0000
  H   H6        1.0  0.30180  0.37730  0.85462  1.0000
  H   H7        1.0  0.81137  0.78299  0.14895  1.0000
  H   H8        1.0  0.18863  0.78299  0.64895  1.0000
  H   H9        1.0  0.67577  0.68715  0.39097  1.0000
  H   H10       1.0  0.32424  0.68715  0.89097  1.0000
  H   H11       1.0  0.66672  0.56790  0.68592  1.0000
  H   H12       1.0  0.33328  0.56790  0.18592  1.0000
  H   H13       1.0  0.70655  0.18073  0.44551  1.0000
  H   H14       1.0  0.29345  0.18073  0.94551  1.0000
  H   H15       1.0  0.79583  0.60617  0.81736  1.0000
  H   H16       1.0  0.20417  0.60617  0.31736  1.0000
  H   H17       1.0  0.82443  0.47250  0.10936  1.0000
  H   H18       1.0  0.17557  0.47251  0.60936  1.0000
  H   H19       1.0  0.78319  0.98665  0.06344  1.0000
  H   H20       1.0  0.21680  0.98665  0.56344  1.0000
  C   C1        1.0  0.68922  0.91351  0.49462  1.0000
  C   C2        1.0  0.31078  0.91350  0.99462  1.0000
  C   C3        1.0  0.68320  0.76945  0.52238  1.0000
  C   C4        1.0  0.31681  0.76945  0.02238  1.0000
  C   C5        1.0  0.68075  0.66051  0.45489  1.0000
  C   C6        1.0  0.31925  0.66051  0.95489  1.0000
  C   C7        1.0  0.68651  0.52163  0.47154  1.0000
  C   C8        1.0  0.31349  0.52163  0.97154  1.0000
  C   C9        1.0  0.68743  0.48646  0.55476  1.0000
  C   C10       1.0  0.31257  0.48646  0.05476  1.0000
  C   C11       1.0  0.67633  0.59386  0.62211  1.0000
  C   C12       1.0  0.32368  0.59385  0.12211  1.0000
  C   C13       1.0  0.67929  0.73561  0.60735  1.0000
  C   C14       1.0  0.32071  0.73561  0.10735  1.0000
  C   C15       1.0  0.66929  0.83545  0.68761  1.0000
  C   C16       1.0  0.33071  0.83545  0.18761  1.0000
  C   C17       1.0  0.69829  0.29152  0.47038  1.0000
  C   C18       1.0  0.30172  0.29151  0.97038  1.0000
  C   C19       1.0  0.80898  0.33625  0.81236  1.0000
  C   C20       1.0  0.19102  0.33625  0.31236  1.0000
  C   C21       1.0  0.80321  0.43534  0.89302  1.0000
  C   C22       1.0  0.19679  0.43534  0.39302  1.0000
  C   C23       1.0  0.79956  0.57852  0.88097  1.0000
  C   C24       1.0  0.20044  0.57852  0.38097  1.0000
  C   C25       1.0  0.79938  0.68272  0.95010  1.0000
  C   C26       1.0  0.20062  0.68272  0.45010  1.0000
  C   C27       1.0  0.81066  0.64362  0.03218  1.0000
  C   C28       1.0  0.18934  0.64362  0.53218  1.0000
  C   C29       1.0  0.81773  0.50314  0.04628  1.0000
  C   C30       1.0  0.18227  0.50314  0.54628  1.0000
  C   C31       1.0  0.81073  0.39773  0.97691  1.0000
  C   C32       1.0  0.18927  0.39773  0.47691  1.0000
  C   C33       1.0  0.81270  0.25062  0.00196  1.0000
  C   C34       1.0  0.18729  0.25062  0.50196  1.0000
  C   C35       1.0  0.79285  0.87650  0.03682  1.0000
  C   C36       1.0  0.20714  0.87650  0.53682  1.0000
  S   S1        1.0  0.32798  0.17332  0.72745  1.0000
  S   S2        1.0  0.67201  0.17332  0.22745  1.0000
  N   N1        1.0  0.69187  0.39510  0.42006  1.0000
  N   N2        1.0  0.30814  0.39510  0.92006  1.0000
  N   N3        1.0  0.69637  0.34060  0.55197  1.0000
  N   N4        1.0  0.30364  0.34060  0.05197  1.0000
  N   N5        1.0  0.78746  0.82947  0.95517  1.0000
  N   N6        1.0  0.21253  0.82948  0.45517  1.0000
  N   N7        1.0  0.80838  0.76962  0.08517  1.0000
  N   N8        1.0  0.19162  0.76962  0.58516  1.0000
  O   O1        1.0  0.47801  0.15667  0.65837  1.0000
  O   O2        1.0  0.52199  0.15667  0.15837  1.0000
  O   O3        1.0  0.14141  0.08772  0.69986  1.0000
  O   O4        1.0  0.85858  0.08772  0.19986  1.0000
  O   O5        1.0  0.27342  0.32229  0.75094  1.0000
  O   O6        1.0  0.72658  0.32229  0.25094  1.0000
  O   O7        1.0  0.40846  0.11068  0.80160  1.0000
  O   O8        1.0  0.59154  0.11068  0.30160  1.0000
  O   O9        1.0  0.77606  0.01510  0.53867  1.0000
  O   O10       1.0  0.22395  0.01510  0.03867  1.0000
  O   O11       1.0  0.61825  0.92719  0.42143  1.0000
  O   O12       1.0  0.38175  0.92719  0.92143  1.0000
  O   O13       1.0  0.75731  0.95682  0.69834  1.0000
  O   O14       1.0  0.24268  0.95682  0.19834  1.0000
  O   O15       1.0  0.57914  0.79411  0.75061  1.0000
  O   O16       1.0  0.42086  0.79411  0.25061  1.0000
  O   O17       1.0  0.80895  0.38892  0.74323  1.0000
  O   O18       1.0  0.19105  0.38892  0.24323  1.0000
  O   O19       1.0  0.81781  0.20068  0.80879  1.0000
  O   O20       1.0  0.18218  0.20067  0.30879  1.0000
  O   O21       1.0  0.70704  0.15218  0.96279  1.0000
  O   O22       1.0  0.29296  0.15217  0.46279  1.0000
  O   O23       1.0  0.91618  0.23267  0.06604  1.0000
  O   O24       1.0  0.08382  0.23267  0.56604  1.0000
  O   O25       1.0  0.02397  0.94013  0.82521  1.0000
  O   O26       1.0  0.97603  0.94013  0.32521  1.0000
