data_image0
_chemical_formula_structural       Sm4H28C36S2N8O30
_chemical_formula_sum              "Sm4 H28 C36 S2 N8 O30"
_cell_length_a       9.48237
_cell_length_b       9.85175
_cell_length_c       14.2171
_cell_angle_alpha    91.3777
_cell_angle_beta     107.684
_cell_angle_gamma    118.183

_space_group_name_H-M_alt    "P 1"
_space_group_IT_number       1

loop_
  _space_group_symop_operation_xyz
  'x, y, z'

loop_
  _atom_site_type_symbol
  _atom_site_label
  _atom_site_symmetry_multiplicity
  _atom_site_fract_x
  _atom_site_fract_y
  _atom_site_fract_z
  _atom_site_occupancy
  Sm  Sm1       1.0  0.32242  0.63885  0.01056  1.0000
  Sm  Sm2       1.0  0.67758  0.36115  0.98944  1.0000
  Sm  Sm3       1.0  0.59829  0.92983  0.84152  1.0000
  Sm  Sm4       1.0  0.40170  0.07017  0.15848  1.0000
  H   H1        1.0  0.02226  0.50849  0.58105  1.0000
  H   H2        1.0  0.97774  0.49151  0.41895  1.0000
  H   H3        1.0  0.68203  0.94797  0.39020  1.0000
  H   H4        1.0  0.31797  0.05203  0.60980  1.0000
  H   H5        1.0  0.10564  0.08875  0.74031  1.0000
  H   H6        1.0  0.89436  0.91124  0.25969  1.0000
  H   H7        1.0  0.93977  0.74527  0.73770  1.0000
  H   H8        1.0  0.06023  0.25474  0.26230  1.0000
  H   H9        1.0  0.62472  0.62365  0.36151  1.0000
  H   H10       1.0  0.37528  0.37635  0.63849  1.0000
  H   H11       1.0  0.54182  0.18397  0.54847  1.0000
  H   H12       1.0  0.45818  0.81603  0.45153  1.0000
  H   H13       1.0  0.77290  0.23333  0.41233  1.0000
  H   H14       1.0  0.22710  0.76667  0.58767  1.0000
  H   H15       1.0  0.81450  0.80255  0.53483  1.0000
  H   H16       1.0  0.18550  0.19745  0.46517  1.0000
  H   H17       1.0  0.55865  0.72502  0.65361  1.0000
  H   H18       1.0  0.44135  0.27498  0.34639  1.0000
  H   H19       1.0  0.70206  0.90433  0.67027  1.0000
  H   H20       1.0  0.29794  0.09567  0.32973  1.0000
  H   H21       1.0  0.70916  0.72606  0.96372  1.0000
  H   H22       1.0  0.29084  0.27394  0.03628  1.0000
  H   H23       1.0  0.77972  0.72271  0.87944  1.0000
  H   H24       1.0  0.22028  0.27729  0.12056  1.0000
  H   H25       1.0  0.98254  0.20349  0.91133  1.0000
  H   H26       1.0  0.01746  0.79651  0.08867  1.0000
  H   H27       1.0  0.98275  0.04717  0.88481  1.0000
  H   H28       1.0  0.01725  0.95283  0.11519  1.0000
  C   C1        1.0  0.28168  0.62161  0.75624  1.0000
  C   C2        1.0  0.71832  0.37839  0.24376  1.0000
  C   C3        1.0  0.15860  0.45333  0.71086  1.0000
  C   C4        1.0  0.84140  0.54667  0.28914  1.0000
  C   C5        1.0  0.03629  0.41578  0.61477  1.0000
  C   C6        1.0  0.96371  0.58422  0.38523  1.0000
  C   C7        1.0  0.93928  0.25988  0.56522  1.0000
  C   C8        1.0  0.06072  0.74012  0.43478  1.0000
  C   C9        1.0  0.77409  0.03120  0.45988  1.0000
  C   C10       1.0  0.22591  0.96880  0.54012  1.0000
  C   C11       1.0  0.96209  0.14072  0.61000  1.0000
  C   C12       1.0  0.03791  0.85927  0.39000  1.0000
  C   C13       1.0  0.08463  0.17843  0.70585  1.0000
  C   C14       1.0  0.91537  0.82157  0.29415  1.0000
  C   C15       1.0  0.18149  0.33496  0.75674  1.0000
  C   C16       1.0  0.81851  0.66504  0.24326  1.0000
  C   C17       1.0  0.31803  0.37113  0.85801  1.0000
  C   C18       1.0  0.68197  0.62887  0.14199  1.0000
  C   C19       1.0  0.91023  0.53504  0.85776  1.0000
  C   C20       1.0  0.08977  0.46496  0.14224  1.0000
  C   C21       1.0  0.81541  0.49913  0.74609  1.0000
  C   C22       1.0  0.18459  0.50088  0.25391  1.0000
  C   C23       1.0  0.85174  0.62460  0.69610  1.0000
  C   C24       1.0  0.14826  0.37540  0.30390  1.0000
  C   C25       1.0  0.76828  0.58778  0.59182  1.0000
  C   C26       1.0  0.23172  0.41222  0.40818  1.0000
  C   C27       1.0  0.65407  0.58091  0.43039  1.0000
  C   C28       1.0  0.34593  0.41909  0.56961  1.0000
  C   C29       1.0  0.65758  0.43003  0.53744  1.0000
  C   C30       1.0  0.34242  0.56997  0.46256  1.0000
  C   C31       1.0  0.62562  0.30578  0.58821  1.0000
  C   C32       1.0  0.37438  0.69422  0.41179  1.0000
  C   C33       1.0  0.70094  0.34092  0.69348  1.0000
  C   C34       1.0  0.29906  0.65908  0.30652  1.0000
  C   C35       1.0  0.65650  0.20919  0.74817  1.0000
  C   C36       1.0  0.34351  0.79081  0.25183  1.0000
  S   S1        1.0  0.71687  0.02286  0.08489  1.0000
  S   S2        1.0  0.28313  0.97714  0.91511  1.0000
  N   N1        1.0  0.81825  0.18492  0.46975  1.0000
  N   N2        1.0  0.18175  0.81508  0.53025  1.0000
  N   N3        1.0  0.85445  0.99785  0.54219  1.0000
  N   N4        1.0  0.14555  0.00215  0.45781  1.0000
  N   N5        1.0  0.58860  0.43051  0.43617  1.0000
  N   N6        1.0  0.41140  0.56949  0.56383  1.0000
  N   N7        1.0  0.76393  0.68004  0.52102  1.0000
  N   N8        1.0  0.23607  0.31996  0.47898  1.0000
  O   O1        1.0  0.31077  0.72495  0.70200  1.0000
  O   O2        1.0  0.68923  0.27505  0.29800  1.0000
  O   O3        1.0  0.37310  0.66421  0.85127  1.0000
  O   O4        1.0  0.62690  0.33579  0.14873  1.0000
  O   O5        1.0  0.29127  0.39708  0.93822  1.0000
  O   O6        1.0  0.70874  0.60292  0.06178  1.0000
  O   O7        1.0  0.44738  0.36412  0.85761  1.0000
  O   O8        1.0  0.55262  0.63588  0.14239  1.0000
  O   O9        1.0  0.84670  0.56586  0.91711  1.0000
  O   O10       1.0  0.15330  0.43414  0.08289  1.0000
  O   O11       1.0  0.05035  0.53643  0.88565  1.0000
  O   O12       1.0  0.94964  0.46357  0.11435  1.0000
  O   O13       1.0  0.68918  0.23461  0.84400  1.0000
  O   O14       1.0  0.31082  0.76539  0.15600  1.0000
  O   O15       1.0  0.58467  0.06898  0.70019  1.0000
  O   O16       1.0  0.41533  0.93102  0.29981  1.0000
  O   O17       1.0  0.72649  0.13546  0.01392  1.0000
  O   O18       1.0  0.27351  0.86454  0.98609  1.0000
  O   O19       1.0  0.64169  0.04151  0.15773  1.0000
  O   O20       1.0  0.35831  0.95849  0.84227  1.0000
  O   O21       1.0  0.88519  0.03994  0.13552  1.0000
  O   O22       1.0  0.11481  0.96006  0.86448  1.0000
  O   O23       1.0  0.59482  0.86368  0.01518  1.0000
  O   O24       1.0  0.40518  0.13632  0.98482  1.0000
  O   O25       1.0  0.65467  0.82303  0.70762  1.0000
  O   O26       1.0  0.34534  0.17697  0.29238  1.0000
  O   O27       1.0  0.73678  0.77955  0.90868  1.0000
  O   O28       1.0  0.26322  0.22045  0.09132  1.0000
  O   O29       1.0  0.90854  0.09333  0.87756  1.0000
  O   O30       1.0  0.09146  0.90667  0.12244  1.0000
