data_image0
_chemical_formula_structural       Zn2H26C40N10O8
_chemical_formula_sum              "Zn2 H26 C40 N10 O8"
_cell_length_a       8.48162
_cell_length_b       10.0278
_cell_length_c       11.7298
_cell_angle_alpha    89.5797
_cell_angle_beta     85.5798
_cell_angle_gamma    68.8065

_space_group_name_H-M_alt    "P 1"
_space_group_IT_number       1

loop_
  _space_group_symop_operation_xyz
  'x, y, z'

loop_
  _atom_site_type_symbol
  _atom_site_label
  _atom_site_symmetry_multiplicity
  _atom_site_fract_x
  _atom_site_fract_y
  _atom_site_fract_z
  _atom_site_occupancy
  Zn  Zn1       1.0  0.45418  0.83827  0.40513  1.0000
  Zn  Zn2       1.0  0.54582  0.16173  0.59487  1.0000
  H   H1        1.0  0.38699  0.13245  0.13115  1.0000
  H   H2        1.0  0.61302  0.86755  0.86886  1.0000
  H   H3        1.0  0.39559  0.32117  0.99539  1.0000
  H   H4        1.0  0.60442  0.67882  0.00461  1.0000
  H   H5        1.0  0.39073  0.55602  0.07046  1.0000
  H   H6        1.0  0.60928  0.44397  0.92955  1.0000
  H   H7        1.0  0.38212  0.40535  0.41371  1.0000
  H   H8        1.0  0.61788  0.59465  0.58629  1.0000
  H   H9        1.0  0.33229  0.65203  0.56005  1.0000
  H   H10       1.0  0.66771  0.34797  0.43995  1.0000
  H   H11       1.0  0.15541  0.67250  0.74486  1.0000
  H   H12       1.0  0.84459  0.32750  0.25514  1.0000
  H   H13       1.0  0.96013  0.13061  0.70312  1.0000
  H   H14       1.0  0.03986  0.86940  0.29688  1.0000
  H   H15       1.0  0.15662  0.09201  0.52713  1.0000
  H   H16       1.0  0.84338  0.90799  0.47287  1.0000
  H   H17       1.0  0.07329  0.60889  0.07211  1.0000
  H   H18       1.0  0.92671  0.39111  0.92789  1.0000
  H   H19       1.0  0.04537  0.47944  0.25248  1.0000
  H   H20       1.0  0.95463  0.52056  0.74752  1.0000
  H   H21       1.0  0.78771  0.59204  0.38990  1.0000
  H   H22       1.0  0.21229  0.40796  0.61010  1.0000
  H   H23       1.0  0.59666  0.93951  0.18262  1.0000
  H   H24       1.0  0.40334  0.06049  0.81738  1.0000
  H   H25       1.0  0.75297  0.12549  0.85319  1.0000
  H   H26       1.0  0.24703  0.87452  0.14681  1.0000
  C   C1        1.0  0.37724  0.14436  0.36471  1.0000
  C   C2        1.0  0.62276  0.85563  0.63529  1.0000
  C   C3        1.0  0.37950  0.25791  0.28140  1.0000
  C   C4        1.0  0.62050  0.74209  0.71860  1.0000
  C   C5        1.0  0.38519  0.23449  0.16319  1.0000
  C   C6        1.0  0.61481  0.76550  0.83681  1.0000
  C   C7        1.0  0.39024  0.34078  0.08714  1.0000
  C   C8        1.0  0.60977  0.65921  0.91286  1.0000
  C   C9        1.0  0.38960  0.47096  0.12852  1.0000
  C   C10       1.0  0.61040  0.52903  0.87148  1.0000
  C   C11       1.0  0.38906  0.49382  0.24632  1.0000
  C   C12       1.0  0.61094  0.50618  0.75368  1.0000
  C   C13       1.0  0.38321  0.38747  0.32218  1.0000
  C   C14       1.0  0.61679  0.61254  0.67782  1.0000
  C   C15       1.0  0.39764  0.62981  0.29100  1.0000
  C   C16       1.0  0.60236  0.37019  0.70900  1.0000
  C   C17       1.0  0.24973  0.75590  0.59595  1.0000
  C   C18       1.0  0.75027  0.24410  0.40405  1.0000
  C   C19       1.0  0.14992  0.76748  0.69730  1.0000
  C   C20       1.0  0.85007  0.23253  0.30270  1.0000
  C   C21       1.0  0.04414  0.90332  0.74003  1.0000
  C   C22       1.0  0.95586  0.09668  0.25997  1.0000
  C   C23       1.0  0.04197  0.02250  0.67582  1.0000
  C   C24       1.0  0.95803  0.97750  0.32417  1.0000
  C   C25       1.0  0.14915  0.00170  0.57640  1.0000
  C   C26       1.0  0.85085  0.99831  0.42360  1.0000
  C   C27       1.0  0.94647  0.91326  0.84942  1.0000
  C   C28       1.0  0.05353  0.08674  0.15057  1.0000
  C   C29       1.0  0.85558  0.86477  0.01178  1.0000
  C   C30       1.0  0.14441  0.13523  0.98822  1.0000
  C   C31       1.0  0.83972  0.78576  0.11428  1.0000
  C   C32       1.0  0.16028  0.21424  0.88572  1.0000
  C   C33       1.0  0.96480  0.65327  0.13439  1.0000
  C   C34       1.0  0.03520  0.34673  0.86561  1.0000
  C   C35       1.0  0.94871  0.58176  0.23423  1.0000
  C   C36       1.0  0.05129  0.41824  0.76577  1.0000
  C   C37       1.0  0.80679  0.64339  0.31058  1.0000
  C   C38       1.0  0.19321  0.35661  0.68942  1.0000
  C   C39       1.0  0.69970  0.83876  0.19499  1.0000
  C   C40       1.0  0.30030  0.16124  0.80501  1.0000
  N   N1        1.0  0.25305  0.87121  0.53687  1.0000
  N   N2        1.0  0.74695  0.12878  0.46313  1.0000
  N   N3        1.0  0.97583  0.80702  0.92413  1.0000
  N   N4        1.0  0.02417  0.19298  0.07587  1.0000
  N   N5        1.0  0.81412  0.02929  0.89254  1.0000
  N   N6        1.0  0.18588  0.97071  0.10746  1.0000
  N   N7        1.0  0.75309  0.00079  0.99529  1.0000
  N   N8        1.0  0.24691  0.99921  0.00471  1.0000
  N   N9        1.0  0.68353  0.76896  0.29033  1.0000
  N   N10       1.0  0.31647  0.23104  0.70967  1.0000
  O   O1        1.0  0.37097  0.02850  0.32403  1.0000
  O   O2        1.0  0.62903  0.97150  0.67597  1.0000
  O   O3        1.0  0.37955  0.16868  0.47056  1.0000
  O   O4        1.0  0.62045  0.83131  0.52944  1.0000
  O   O5        1.0  0.46267  0.62553  0.38674  1.0000
  O   O6        1.0  0.53733  0.37448  0.61326  1.0000
  O   O7        1.0  0.34388  0.74337  0.23442  1.0000
  O   O8        1.0  0.65611  0.25664  0.76558  1.0000
