data_image0
_chemical_formula_structural       Zn4H46C56N10O22
_chemical_formula_sum              "Zn4 H46 C56 N10 O22"
_cell_length_a       8.02084
_cell_length_b       9.73028
_cell_length_c       19.277
_cell_angle_alpha    85.645
_cell_angle_beta     86.1234
_cell_angle_gamma    70.3075

_space_group_name_H-M_alt    "P 1"
_space_group_IT_number       1

loop_
  _space_group_symop_operation_xyz
  'x, y, z'

loop_
  _atom_site_type_symbol
  _atom_site_label
  _atom_site_symmetry_multiplicity
  _atom_site_fract_x
  _atom_site_fract_y
  _atom_site_fract_z
  _atom_site_occupancy
  Zn  Zn1       1.0  0.58613  0.76108  0.40109  1.0000
  Zn  Zn2       1.0  0.41386  0.23892  0.59891  1.0000
  Zn  Zn3       1.0  0.51251  0.10117  0.91262  1.0000
  Zn  Zn4       1.0  0.48748  0.89884  0.08738  1.0000
  H   H1        1.0  0.27244  0.18958  0.21527  1.0000
  H   H2        1.0  0.72755  0.81042  0.78473  1.0000
  H   H3        1.0  0.22349  0.45367  0.18498  1.0000
  H   H4        1.0  0.77651  0.54633  0.81502  1.0000
  H   H5        1.0  0.34661  0.59379  0.25862  1.0000
  H   H6        1.0  0.65339  0.40621  0.74138  1.0000
  H   H7        1.0  0.57136  0.20414  0.38946  1.0000
  H   H8        1.0  0.42863  0.79586  0.61054  1.0000
  H   H9        1.0  0.75104  0.94758  0.46460  1.0000
  H   H10       1.0  0.24895  0.05242  0.53540  1.0000
  H   H11       1.0  0.92992  0.93402  0.56854  1.0000
  H   H12       1.0  0.07008  0.06598  0.43146  1.0000
  H   H13       1.0  0.93002  0.49307  0.61247  1.0000
  H   H14       1.0  0.06998  0.50694  0.38753  1.0000
  H   H15       1.0  0.75530  0.52264  0.50595  1.0000
  H   H16       1.0  0.24470  0.47736  0.49405  1.0000
  H   H17       1.0  0.07843  0.05637  0.74011  1.0000
  H   H18       1.0  0.92156  0.94363  0.25989  1.0000
  H   H19       1.0  0.22931  0.18713  0.80769  1.0000
  H   H20       1.0  0.77069  0.81287  0.19231  1.0000
  H   H21       1.0  0.47559  0.80866  0.92824  1.0000
  H   H22       1.0  0.52441  0.19134  0.07176  1.0000
  H   H23       1.0  0.34811  0.66246  0.86163  1.0000
  H   H24       1.0  0.65188  0.33754  0.13837  1.0000
  H   H25       1.0  0.00035  0.62820  0.88892  1.0000
  H   H26       1.0  0.99966  0.37180  0.11107  1.0000
  H   H27       1.0  0.96179  0.89354  0.06062  1.0000
  H   H28       1.0  0.03821  0.10647  0.93938  1.0000
  H   H29       1.0  0.22370  0.70337  0.11198  1.0000
  H   H30       1.0  0.77630  0.29663  0.88802  1.0000
  H   H31       1.0  0.37294  0.47182  0.05143  1.0000
  H   H32       1.0  0.62707  0.52818  0.94857  1.0000
  H   H33       1.0  0.20218  0.54894  0.80140  1.0000
  H   H34       1.0  0.79782  0.45106  0.19860  1.0000
  H   H35       1.0  0.92822  0.72898  0.33004  1.0000
  H   H36       1.0  0.07178  0.27102  0.66996  1.0000
  H   H37       1.0  0.37155  0.70272  0.51568  1.0000
  H   H38       1.0  0.62845  0.29727  0.48432  1.0000
  H   H39       1.0  0.60218  0.13938  0.78069  1.0000
  H   H40       1.0  0.39782  0.86062  0.21931  1.0000
  H   H41       1.0  0.26013  0.77688  0.45071  1.0000
  H   H42       1.0  0.73986  0.22312  0.54929  1.0000
  H   H43       1.0  0.47928  0.28543  0.81786  1.0000
  H   H44       1.0  0.52073  0.71457  0.18214  1.0000
  H   H45       1.0  0.86441  0.60003  0.30913  1.0000
  H   H46       1.0  0.13559  0.39997  0.69087  1.0000
  C   C1        1.0  0.44921  0.02384  0.32357  1.0000
  C   C2        1.0  0.55077  0.97616  0.67643  1.0000
  C   C3        1.0  0.42411  0.18161  0.30446  1.0000
  C   C4        1.0  0.57588  0.81839  0.69554  1.0000
  C   C5        1.0  0.32635  0.25155  0.24680  1.0000
  C   C6        1.0  0.67364  0.74845  0.75320  1.0000
  C   C7        1.0  0.29930  0.39942  0.23007  1.0000
  C   C8        1.0  0.70070  0.60058  0.76992  1.0000
  C   C9        1.0  0.36773  0.47810  0.27091  1.0000
  C   C10       1.0  0.63228  0.52190  0.72909  1.0000
  C   C11       1.0  0.46571  0.40847  0.32913  1.0000
  C   C12       1.0  0.53429  0.59153  0.67087  1.0000
  C   C13       1.0  0.49485  0.26008  0.34503  1.0000
  C   C14       1.0  0.50515  0.73992  0.65497  1.0000
  C   C15       1.0  0.53535  0.49443  0.37388  1.0000
  C   C16       1.0  0.46465  0.50557  0.62612  1.0000
  C   C17       1.0  0.79806  0.84775  0.49789  1.0000
  C   C18       1.0  0.20195  0.15225  0.50211  1.0000
  C   C19       1.0  0.89623  0.84002  0.55551  1.0000
  C   C20       1.0  0.10377  0.15998  0.44449  1.0000
  C   C21       1.0  0.94534  0.71160  0.59884  1.0000
  C   C22       1.0  0.05466  0.28840  0.40116  1.0000
  C   C23       1.0  0.89696  0.59430  0.58030  1.0000
  C   C24       1.0  0.10303  0.40571  0.41970  1.0000
  C   C25       1.0  0.79954  0.60953  0.52186  1.0000
  C   C26       1.0  0.20046  0.39047  0.47815  1.0000
  C   C27       1.0  0.03389  0.70488  0.66322  1.0000
  C   C28       1.0  0.96611  0.29512  0.33678  1.0000
  C   C29       1.0  0.13535  0.76858  0.74946  1.0000
  C   C30       1.0  0.86465  0.23142  0.25054  1.0000
  C   C31       1.0  0.20244  0.84873  0.79489  1.0000
  C   C32       1.0  0.79755  0.15127  0.20511  1.0000
  C   C33       1.0  0.16638  0.99915  0.78127  1.0000
  C   C34       1.0  0.83361  0.00085  0.21873  1.0000
  C   C35       1.0  0.24915  0.07147  0.81894  1.0000
  C   C36       1.0  0.75084  0.92853  0.18106  1.0000
  C   C37       1.0  0.38782  0.85966  0.88591  1.0000
  C   C38       1.0  0.61218  0.14034  0.11409  1.0000
  C   C39       1.0  0.31334  0.77926  0.84932  1.0000
  C   C40       1.0  0.68665  0.22074  0.15068  1.0000
  C   C41       1.0  0.29547  0.40352  0.92561  1.0000
  C   C42       1.0  0.70453  0.59648  0.07439  1.0000
  C   C43       1.0  0.19819  0.53496  0.96582  1.0000
  C   C44       1.0  0.80181  0.46504  0.03418  1.0000
  C   C45       1.0  0.05072  0.64259  0.93788  1.0000
  C   C46       1.0  0.94928  0.35742  0.06212  1.0000
  C   C47       1.0  0.96366  0.77082  0.97209  1.0000
  C   C48       1.0  0.03634  0.22919  0.02791  1.0000
  C   C49       1.0  0.81033  0.88309  0.93753  1.0000
  C   C50       1.0  0.18968  0.11692  0.06246  1.0000
  C   C51       1.0  0.02654  0.79184  0.03506  1.0000
  C   C52       1.0  0.97346  0.20817  0.96494  1.0000
  C   C53       1.0  0.17330  0.68454  0.06372  1.0000
  C   C54       1.0  0.82670  0.31547  0.93628  1.0000
  C   C55       1.0  0.25782  0.55587  0.02974  1.0000
  C   C56       1.0  0.74218  0.44413  0.97026  1.0000
  N   N1        1.0  0.74969  0.73433  0.48142  1.0000
  N   N2        1.0  0.25031  0.26568  0.51858  1.0000
  N   N3        1.0  0.06084  0.82156  0.68867  1.0000
  N   N4        1.0  0.93916  0.17844  0.31134  1.0000
  N   N5        1.0  0.08879  0.58251  0.70523  1.0000
  N   N6        1.0  0.91121  0.41749  0.29477  1.0000
  N   N7        1.0  0.15223  0.62485  0.75949  1.0000
  N   N8        1.0  0.84778  0.37515  0.24051  1.0000
  N   N9        1.0  0.36012  0.00262  0.86988  1.0000
  N   N10       1.0  0.63988  0.99738  0.13012  1.0000
  O   O1        1.0  0.53827  0.97027  0.37863  1.0000
  O   O2        1.0  0.46170  0.02973  0.62137  1.0000
  O   O3        1.0  0.38354  0.95319  0.28837  1.0000
  O   O4        1.0  0.61644  0.04681  0.71163  1.0000
  O   O5        1.0  0.61299  0.43822  0.42912  1.0000
  O   O6        1.0  0.38701  0.56177  0.57088  1.0000
  O   O7        1.0  0.50883  0.62799  0.35111  1.0000
  O   O8        1.0  0.49117  0.37200  0.64889  1.0000
  O   O9        1.0  0.39022  0.28890  0.95979  1.0000
  O   O10       1.0  0.60978  0.71110  0.04021  1.0000
  O   O11       1.0  0.28324  0.41219  0.85954  1.0000
  O   O12       1.0  0.71677  0.58781  0.14046  1.0000
  O   O13       1.0  0.69762  0.98055  0.97599  1.0000
  O   O14       1.0  0.30238  0.01945  0.02400  1.0000
  O   O15       1.0  0.79487  0.88062  0.87358  1.0000
  O   O16       1.0  0.20516  0.11939  0.12642  1.0000
  O   O17       1.0  0.35234  0.78521  0.47869  1.0000
  O   O18       1.0  0.64766  0.21478  0.52131  1.0000
  O   O19       1.0  0.82347  0.70611  0.32042  1.0000
  O   O20       1.0  0.17653  0.29389  0.67959  1.0000
  O   O21       1.0  0.58832  0.19908  0.82237  1.0000
  O   O22       1.0  0.41169  0.80092  0.17763  1.0000
