data_image0
_chemical_formula_structural       Na2H44C24S4N2O18F12
_chemical_formula_sum              "Na2 H44 C24 S4 N2 O18 F12"
_cell_length_a       8.06724
_cell_length_b       8.94194
_cell_length_c       15.8534
_cell_angle_alpha    80.7232
_cell_angle_beta     88.8947
_cell_angle_gamma    68.6482

_space_group_name_H-M_alt    "P 1"
_space_group_IT_number       1

loop_
  _space_group_symop_operation_xyz
  'x, y, z'

loop_
  _atom_site_type_symbol
  _atom_site_label
  _atom_site_symmetry_multiplicity
  _atom_site_fract_x
  _atom_site_fract_y
  _atom_site_fract_z
  _atom_site_occupancy
  Na  Na1       1.0  0.29895  0.16401  0.74933  1.0000
  Na  Na2       1.0  0.70104  0.83599  0.25067  1.0000
  H   H1        1.0  0.17490  0.25985  0.47057  1.0000
  H   H2        1.0  0.82510  0.74015  0.52943  1.0000
  H   H3        1.0  0.35294  0.27658  0.53025  1.0000
  H   H4        1.0  0.64706  0.72342  0.46975  1.0000
  H   H5        1.0  0.12972  0.40632  0.54170  1.0000
  H   H6        1.0  0.87028  0.59368  0.45830  1.0000
  H   H7        1.0  0.06061  0.02721  0.64652  1.0000
  H   H8        1.0  0.93938  0.97279  0.35348  1.0000
  H   H9        1.0  0.98314  0.14894  0.54373  1.0000
  H   H10       1.0  0.01686  0.85106  0.45627  1.0000
  H   H11       1.0  0.89104  0.40132  0.61542  1.0000
  H   H12       1.0  0.10896  0.59868  0.38458  1.0000
  H   H13       1.0  0.77309  0.26906  0.64963  1.0000
  H   H14       1.0  0.22690  0.73095  0.35037  1.0000
  H   H15       1.0  0.74102  0.43224  0.77617  1.0000
  H   H16       1.0  0.25898  0.56776  0.22383  1.0000
  H   H17       1.0  0.91529  0.50451  0.74215  1.0000
  H   H18       1.0  0.08471  0.49549  0.25785  1.0000
  H   H19       1.0  0.89437  0.45772  0.90194  1.0000
  H   H20       1.0  0.10562  0.54228  0.09806  1.0000
  H   H21       1.0  0.93520  0.24749  0.89987  1.0000
  H   H22       1.0  0.06480  0.75252  0.10013  1.0000
  H   H23       1.0  0.21587  0.13022  0.96945  1.0000
  H   H24       1.0  0.78413  0.86979  0.03055  1.0000
  H   H25       1.0  0.18875  0.32494  0.99555  1.0000
  H   H26       1.0  0.81125  0.67507  0.00445  1.0000
  H   H27       1.0  0.45407  0.32663  0.91354  1.0000
  H   H28       1.0  0.54592  0.67337  0.08646  1.0000
  H   H29       1.0  0.50472  0.15779  0.99972  1.0000
  H   H30       1.0  0.49529  0.84221  0.00027  1.0000
  H   H31       1.0  0.76985  0.05233  0.90211  1.0000
  H   H32       1.0  0.23015  0.94767  0.09789  1.0000
  H   H33       1.0  0.66142  0.22193  0.82004  1.0000
  H   H34       1.0  0.33857  0.77807  0.17995  1.0000
  H   H35       1.0  0.86588  0.97707  0.76383  1.0000
  H   H36       1.0  0.13411  0.02292  0.23617  1.0000
  H   H37       1.0  0.73432  0.86305  0.80919  1.0000
  H   H38       1.0  0.26567  0.13695  0.19081  1.0000
  H   H39       1.0  0.67329  0.82571  0.67047  1.0000
  H   H40       1.0  0.32671  0.17428  0.32953  1.0000
  H   H41       1.0  0.78588  0.95154  0.61809  1.0000
  H   H42       1.0  0.21412  0.04846  0.38191  1.0000
  H   H43       1.0  0.55182  0.00266  0.59471  1.0000
  H   H44       1.0  0.44818  0.99733  0.40528  1.0000
  C   C1        1.0  0.21486  0.28292  0.53191  1.0000
  C   C2        1.0  0.78514  0.71708  0.46809  1.0000
  C   C3        1.0  0.03701  0.14683  0.60754  1.0000
  C   C4        1.0  0.96299  0.85317  0.39246  1.0000
  C   C5        1.0  0.90540  0.27939  0.64994  1.0000
  C   C6        1.0  0.09460  0.72061  0.35006  1.0000
  C   C7        1.0  0.88680  0.39918  0.77628  1.0000
  C   C8        1.0  0.11320  0.60082  0.22372  1.0000
  C   C9        1.0  0.96078  0.35545  0.86733  1.0000
  C   C10       1.0  0.03922  0.64455  0.13267  1.0000
  C   C11       1.0  0.23834  0.24475  0.94709  1.0000
  C   C12       1.0  0.76166  0.75525  0.05291  1.0000
  C   C13       1.0  0.43401  0.21178  0.93701  1.0000
  C   C14       1.0  0.56599  0.78822  0.06299  1.0000
  C   C15       1.0  0.67063  0.09763  0.84791  1.0000
  C   C16       1.0  0.32937  0.90237  0.15208  1.0000
  C   C17       1.0  0.73056  0.98612  0.78248  1.0000
  C   C18       1.0  0.26942  0.01388  0.21752  1.0000
  C   C19       1.0  0.65833  0.95236  0.64468  1.0000
  C   C20       1.0  0.34166  0.04763  0.35532  1.0000
  C   C21       1.0  0.22418  0.72035  0.91089  1.0000
  C   C22       1.0  0.77586  0.27965  0.08913  1.0000
  C   C23       1.0  0.37474  0.65811  0.60069  1.0000
  C   C24       1.0  0.62525  0.34189  0.39931  1.0000
  S   S1        1.0  0.37804  0.73348  0.82153  1.0000
  S   S2        1.0  0.62197  0.26653  0.17847  1.0000
  S   S3        1.0  0.26467  0.59316  0.69747  1.0000
  S   S4        1.0  0.73533  0.40683  0.30254  1.0000
  N   N1        1.0  0.39188  0.58491  0.77505  1.0000
  N   N2        1.0  0.60812  0.41509  0.22496  1.0000
  O   O1        1.0  0.20827  0.16106  0.60062  1.0000
  O   O2        1.0  0.79172  0.83894  0.39938  1.0000
  O   O3        1.0  0.97104  0.25964  0.73576  1.0000
  O   O4        1.0  0.02896  0.74036  0.26424  1.0000
  O   O5        1.0  0.14833  0.31957  0.86591  1.0000
  O   O6        1.0  0.85167  0.68044  0.13409  1.0000
  O   O7        1.0  0.49955  0.10267  0.87643  1.0000
  O   O8        1.0  0.50045  0.89734  0.12357  1.0000
  O   O9        1.0  0.60807  0.05201  0.70965  1.0000
  O   O10       1.0  0.39191  0.94797  0.29035  1.0000
  O   O11       1.0  0.28829  0.89447  0.77269  1.0000
  O   O12       1.0  0.71171  0.10552  0.22731  1.0000
  O   O13       1.0  0.54747  0.69672  0.86471  1.0000
  O   O14       1.0  0.45255  0.30328  0.13528  1.0000
  O   O15       1.0  0.08653  0.71468  0.69094  1.0000
  O   O16       1.0  0.91346  0.28532  0.30907  1.0000
  O   O17       1.0  0.28844  0.42814  0.68928  1.0000
  O   O18       1.0  0.71156  0.57186  0.31072  1.0000
  F   F1        1.0  0.17243  0.85995  0.94513  1.0000
  F   F2        1.0  0.82764  0.14005  0.05489  1.0000
  F   F3        1.0  0.07596  0.70266  0.88321  1.0000
  F   F4        1.0  0.92406  0.29735  0.11682  1.0000
  F   F5        1.0  0.30777  0.59384  0.97343  1.0000
  F   F6        1.0  0.69228  0.40615  0.02658  1.0000
  F   F7        1.0  0.35290  0.81688  0.59164  1.0000
  F   F8        1.0  0.64707  0.18312  0.40836  1.0000
  F   F9        1.0  0.55153  0.56856  0.60496  1.0000
  F   F10       1.0  0.44846  0.43144  0.39504  1.0000
  F   F11       1.0  0.30152  0.63455  0.52984  1.0000
  F   F12       1.0  0.69846  0.36544  0.47016  1.0000
