data_image0
_chemical_formula_structural       Cu4P4H16C4O16
_chemical_formula_sum              "Cu4 P4 H16 C4 O16"
_cell_length_a       7.44458
_cell_length_b       7.51046
_cell_length_c       8.00741
_cell_angle_alpha    89.9703
_cell_angle_beta     116.384
_cell_angle_gamma    90.044

_space_group_name_H-M_alt    "P 1"
_space_group_IT_number       1

loop_
  _space_group_symop_operation_xyz
  'x, y, z'

loop_
  _atom_site_type_symbol
  _atom_site_label
  _atom_site_symmetry_multiplicity
  _atom_site_fract_x
  _atom_site_fract_y
  _atom_site_fract_z
  _atom_site_occupancy
  Cu  Cu1       1.0  0.90183  0.81056  0.94212  1.0000
  Cu  Cu2       1.0  0.59788  0.31064  0.05759  1.0000
  Cu  Cu3       1.0  0.09760  0.18930  0.05717  1.0000
  Cu  Cu4       1.0  0.40275  0.68920  0.94309  1.0000
  P   P1        1.0  0.25298  0.55313  0.22116  1.0000
  P   P2        1.0  0.24671  0.05325  0.77904  1.0000
  P   P3        1.0  0.74680  0.44690  0.77880  1.0000
  P   P4        1.0  0.75354  0.94677  0.22099  1.0000
  H   H1        1.0  0.74239  0.06686  0.75103  1.0000
  H   H2        1.0  0.75786  0.56684  0.24892  1.0000
  H   H3        1.0  0.25696  0.93301  0.24790  1.0000
  H   H4        1.0  0.24274  0.43304  0.75214  1.0000
  H   H5        1.0  0.56895  0.93071  0.73541  1.0000
  H   H6        1.0  0.93078  0.43029  0.26455  1.0000
  H   H7        1.0  0.43061  0.06922  0.26416  1.0000
  H   H8        1.0  0.06961  0.56965  0.73592  1.0000
  H   H9        1.0  0.53590  0.69472  0.45944  1.0000
  H   H10       1.0  0.96392  0.19459  0.54070  1.0000
  H   H11       1.0  0.46319  0.30578  0.54112  1.0000
  H   H12       1.0  0.03701  0.80594  0.45880  1.0000
  H   H13       1.0  0.35884  0.62700  0.53939  1.0000
  H   H14       1.0  0.14118  0.12751  0.46080  1.0000
  H   H15       1.0  0.63986  0.37298  0.46045  1.0000
  H   H16       1.0  0.86009  0.87256  0.53934  1.0000
  C   C1        1.0  0.43865  0.58450  0.45918  1.0000
  C   C2        1.0  0.06126  0.08461  0.54086  1.0000
  C   C3        1.0  0.56058  0.41575  0.54103  1.0000
  C   C4        1.0  0.93956  0.91569  0.45896  1.0000
  O   O1        1.0  0.13541  0.73073  0.16860  1.0000
  O   O2        1.0  0.36377  0.23126  0.83149  1.0000
  O   O3        1.0  0.86429  0.26926  0.83081  1.0000
  O   O4        1.0  0.63657  0.76870  0.16912  1.0000
  O   O5        1.0  0.35680  0.50572  0.09700  1.0000
  O   O6        1.0  0.14265  0.00566  0.90299  1.0000
  O   O7        1.0  0.64356  0.49400  0.90349  1.0000
  O   O8        1.0  0.85697  0.99413  0.09645  1.0000
  O   O9        1.0  0.11470  0.39516  0.21495  1.0000
  O   O10       1.0  0.38518  0.89564  0.78547  1.0000
  O   O11       1.0  0.88512  0.60473  0.78487  1.0000
  O   O12       1.0  0.61503  0.10423  0.21471  1.0000
  O   O13       1.0  0.69675  0.94045  0.72086  1.0000
  O   O14       1.0  0.80293  0.44030  0.27899  1.0000
  O   O15       1.0  0.30259  0.05943  0.27827  1.0000
  O   O16       1.0  0.19765  0.55959  0.72187  1.0000
