data_image0
_chemical_formula_structural       Zn8P8H24C12O24
_chemical_formula_sum              "Zn8 P8 H24 C12 O24"
_cell_length_a       5.31986
_cell_length_b       8.36067
_cell_length_c       18.8937
_cell_angle_alpha    89.9994
_cell_angle_beta     89.9974
_cell_angle_gamma    89.9997

_space_group_name_H-M_alt    "P 1"
_space_group_IT_number       1

loop_
  _space_group_symop_operation_xyz
  'x, y, z'

loop_
  _atom_site_type_symbol
  _atom_site_label
  _atom_site_symmetry_multiplicity
  _atom_site_fract_x
  _atom_site_fract_y
  _atom_site_fract_z
  _atom_site_occupancy
  Zn  Zn1       1.0  0.56382  0.25621  0.05274  1.0000
  Zn  Zn2       1.0  0.06381  0.24382  0.94726  1.0000
  Zn  Zn3       1.0  0.93621  0.75619  0.44726  1.0000
  Zn  Zn4       1.0  0.43614  0.74376  0.55274  1.0000
  Zn  Zn5       1.0  0.43616  0.74379  0.94726  1.0000
  Zn  Zn6       1.0  0.93614  0.75619  0.05274  1.0000
  Zn  Zn7       1.0  0.06384  0.24382  0.55274  1.0000
  Zn  Zn8       1.0  0.56387  0.25620  0.44726  1.0000
  P   P1        1.0  0.06316  0.09904  0.10423  1.0000
  P   P2        1.0  0.56317  0.40097  0.89578  1.0000
  P   P3        1.0  0.43681  0.59902  0.39578  1.0000
  P   P4        1.0  0.93684  0.90093  0.60424  1.0000
  P   P5        1.0  0.93687  0.90091  0.89576  1.0000
  P   P6        1.0  0.43675  0.59904  0.10422  1.0000
  P   P7        1.0  0.56319  0.40095  0.60423  1.0000
  P   P8        1.0  0.06324  0.09907  0.39577  1.0000
  H   H1        1.0  0.08206  0.33690  0.17396  1.0000
  H   H2        1.0  0.58204  0.16310  0.82605  1.0000
  H   H3        1.0  0.41788  0.83693  0.32604  1.0000
  H   H4        1.0  0.91797  0.66310  0.67396  1.0000
  H   H5        1.0  0.91796  0.66312  0.82606  1.0000
  H   H6        1.0  0.41789  0.83691  0.17396  1.0000
  H   H7        1.0  0.58208  0.16306  0.67395  1.0000
  H   H8        1.0  0.08214  0.33692  0.32604  1.0000
  H   H9        1.0  0.80410  0.22712  0.18812  1.0000
  H   H10       1.0  0.30408  0.27287  0.81189  1.0000
  H   H11       1.0  0.69586  0.72716  0.31188  1.0000
  H   H12       1.0  0.19587  0.77287  0.68810  1.0000
  H   H13       1.0  0.19590  0.77288  0.81189  1.0000
  H   H14       1.0  0.69590  0.72712  0.18810  1.0000
  H   H15       1.0  0.30412  0.27288  0.68811  1.0000
  H   H16       1.0  0.80416  0.22714  0.31189  1.0000
  H   H17       1.0  0.32425  0.14680  0.24999  1.0000
  H   H18       1.0  0.82422  0.35317  0.75000  1.0000
  H   H19       1.0  0.17573  0.64680  0.25001  1.0000
  H   H20       1.0  0.67581  0.85318  0.75001  1.0000
  H   H21       1.0  0.06993  0.00991  0.25000  1.0000
  H   H22       1.0  0.56992  0.49009  0.75000  1.0000
  H   H23       1.0  0.43009  0.50991  0.25000  1.0000
  H   H24       1.0  0.93010  0.99008  0.75000  1.0000
  C   C1        1.0  0.00956  0.21557  0.18311  1.0000
  C   C2        1.0  0.50959  0.28441  0.81689  1.0000
  C   C3        1.0  0.49045  0.71556  0.31689  1.0000
  C   C4        1.0  0.99048  0.78444  0.68312  1.0000
  C   C5        1.0  0.99043  0.78442  0.81688  1.0000
  C   C6        1.0  0.49038  0.71559  0.18310  1.0000
  C   C7        1.0  0.50952  0.28444  0.68311  1.0000
  C   C8        1.0  0.00959  0.21557  0.31689  1.0000
  C   C9        1.0  0.11781  0.13794  0.25000  1.0000
  C   C10       1.0  0.61778  0.36206  0.75000  1.0000
  C   C11       1.0  0.38220  0.63793  0.25000  1.0000
  C   C12       1.0  0.88225  0.86206  0.75000  1.0000
  O   O1        1.0  0.94616  0.93478  0.11778  1.0000
  O   O2        1.0  0.44617  0.56526  0.88222  1.0000
  O   O3        1.0  0.55385  0.43478  0.38222  1.0000
  O   O4        1.0  0.05371  0.06522  0.61777  1.0000
  O   O5        1.0  0.05375  0.06522  0.88223  1.0000
  O   O6        1.0  0.55374  0.43473  0.11778  1.0000
  O   O7        1.0  0.44620  0.56523  0.61777  1.0000
  O   O8        1.0  0.94629  0.93476  0.38222  1.0000
  O   O9        1.0  0.91916  0.18895  0.04226  1.0000
  O   O10       1.0  0.41916  0.31108  0.95775  1.0000
  O   O11       1.0  0.58085  0.68896  0.45774  1.0000
  O   O12       1.0  0.08078  0.81108  0.54225  1.0000
  O   O13       1.0  0.08077  0.81108  0.95775  1.0000
  O   O14       1.0  0.58084  0.68892  0.04226  1.0000
  O   O15       1.0  0.41921  0.31105  0.54226  1.0000
  O   O16       1.0  0.91921  0.18893  0.45774  1.0000
  O   O17       1.0  0.34256  0.08743  0.08505  1.0000
  O   O18       1.0  0.84258  0.41256  0.91493  1.0000
  O   O19       1.0  0.15741  0.58744  0.41495  1.0000
  O   O20       1.0  0.65749  0.91255  0.58507  1.0000
  O   O21       1.0  0.65750  0.91258  0.91495  1.0000
  O   O22       1.0  0.15733  0.58747  0.08506  1.0000
  O   O23       1.0  0.84257  0.41254  0.58506  1.0000
  O   O24       1.0  0.34263  0.08746  0.41493  1.0000
