data_image0
_chemical_formula_structural       Zn4P4H16C4O16
_chemical_formula_sum              "Zn4 P4 H16 C4 O16"
_cell_length_a       4.83836
_cell_length_b       5.70477
_cell_length_c       15.4546
_cell_angle_alpha    90.0012
_cell_angle_beta     89.9997
_cell_angle_gamma    95.8483

_space_group_name_H-M_alt    "P 1"
_space_group_IT_number       1

loop_
  _space_group_symop_operation_xyz
  'x, y, z'

loop_
  _atom_site_type_symbol
  _atom_site_label
  _atom_site_symmetry_multiplicity
  _atom_site_fract_x
  _atom_site_fract_y
  _atom_site_fract_z
  _atom_site_occupancy
  Zn  Zn1       1.0  0.44055  0.94938  0.77081  1.0000
  Zn  Zn2       1.0  0.05944  0.55062  0.27081  1.0000
  Zn  Zn3       1.0  0.55946  0.05062  0.22919  1.0000
  Zn  Zn4       1.0  0.94055  0.44938  0.72919  1.0000
  P   P1        1.0  0.99262  0.96307  0.64217  1.0000
  P   P2        1.0  0.50739  0.53693  0.14218  1.0000
  P   P3        1.0  0.00738  0.03693  0.35782  1.0000
  P   P4        1.0  0.49262  0.46307  0.85782  1.0000
  H   H1        1.0  0.96661  0.86117  0.86093  1.0000
  H   H2        1.0  0.53341  0.63884  0.36093  1.0000
  H   H3        1.0  0.03339  0.13882  0.13907  1.0000
  H   H4        1.0  0.46659  0.36115  0.63907  1.0000
  H   H5        1.0  0.08092  0.13396  0.86696  1.0000
  H   H6        1.0  0.41909  0.36605  0.36697  1.0000
  H   H7        1.0  0.91909  0.86602  0.13304  1.0000
  H   H8        1.0  0.58092  0.63395  0.63303  1.0000
  H   H9        1.0  0.28719  0.91730  0.52261  1.0000
  H   H10       1.0  0.21280  0.58270  0.02262  1.0000
  H   H11       1.0  0.71282  0.08270  0.47739  1.0000
  H   H12       1.0  0.78718  0.41732  0.97739  1.0000
  H   H13       1.0  0.97358  0.72970  0.51474  1.0000
  H   H14       1.0  0.52640  0.77031  0.01475  1.0000
  H   H15       1.0  0.02640  0.27029  0.48526  1.0000
  H   H16       1.0  0.47360  0.22971  0.98525  1.0000
  C   C1        1.0  0.06051  0.91090  0.52960  1.0000
  C   C2        1.0  0.43948  0.58912  0.02960  1.0000
  C   C3        1.0  0.93949  0.08909  0.47039  1.0000
  C   C4        1.0  0.56050  0.41093  0.97038  1.0000
  O   O1        1.0  0.13058  0.77011  0.69487  1.0000
  O   O2        1.0  0.36941  0.72990  0.19488  1.0000
  O   O3        1.0  0.86941  0.22987  0.30513  1.0000
  O   O4        1.0  0.63058  0.27014  0.80513  1.0000
  O   O5        1.0  0.14372  0.20539  0.66856  1.0000
  O   O6        1.0  0.35627  0.29458  0.16856  1.0000
  O   O7        1.0  0.85628  0.79462  0.33144  1.0000
  O   O8        1.0  0.64371  0.70536  0.83144  1.0000
  O   O9        1.0  0.67782  0.94592  0.65632  1.0000
  O   O10       1.0  0.82219  0.55406  0.15633  1.0000
  O   O11       1.0  0.32217  0.05407  0.34368  1.0000
  O   O12       1.0  0.17784  0.44594  0.84368  1.0000
  O   O13       1.0  0.13616  0.97165  0.87043  1.0000
  O   O14       1.0  0.36385  0.52834  0.37043  1.0000
  O   O15       1.0  0.86384  0.02834  0.12957  1.0000
  O   O16       1.0  0.63616  0.47166  0.62957  1.0000
