data_image0
_chemical_formula_structural       CoH34C36N2O6
_chemical_formula_sum              "Co1 H34 C36 N2 O6"
_cell_length_a       6.08922
_cell_length_b       7.2931
_cell_length_c       17.3748
_cell_angle_alpha    97.1772
_cell_angle_beta     96.8465
_cell_angle_gamma    95.8039

_space_group_name_H-M_alt    "P 1"
_space_group_IT_number       1

loop_
  _space_group_symop_operation_xyz
  'x, y, z'

loop_
  _atom_site_type_symbol
  _atom_site_label
  _atom_site_symmetry_multiplicity
  _atom_site_fract_x
  _atom_site_fract_y
  _atom_site_fract_z
  _atom_site_occupancy
  Co  Co1       1.0  1.00000  0.00000  0.00000  1.0000
  H   H1        1.0  0.02885  0.34457  0.23002  1.0000
  H   H2        1.0  0.97117  0.65544  0.76997  1.0000
  H   H3        1.0  0.20891  0.54285  0.35298  1.0000
  H   H4        1.0  0.79110  0.45716  0.64701  1.0000
  H   H5        1.0  0.82007  0.30602  0.32752  1.0000
  H   H6        1.0  0.17993  0.69398  0.67247  1.0000
  H   H7        1.0  0.64026  0.11277  0.20315  1.0000
  H   H8        1.0  0.35973  0.88723  0.79685  1.0000
  H   H9        1.0  0.67627  0.66635  0.53756  1.0000
  H   H10       1.0  0.32376  0.33368  0.46244  1.0000
  H   H11       1.0  0.03284  0.70003  0.51475  1.0000
  H   H12       1.0  0.96714  0.29995  0.48525  1.0000
  H   H13       1.0  0.34059  0.91949  0.48877  1.0000
  H   H14       1.0  0.65942  0.08049  0.51125  1.0000
  H   H15       1.0  0.32716  0.04241  0.36040  1.0000
  H   H16       1.0  0.67289  0.95759  0.63962  1.0000
  H   H17       1.0  0.99481  0.94660  0.25987  1.0000
  H   H18       1.0  0.00525  0.05342  0.74014  1.0000
  H   H19       1.0  0.68309  0.72802  0.28633  1.0000
  H   H20       1.0  0.31696  0.27199  0.71367  1.0000
  H   H21       1.0  0.38060  0.11450  0.93161  1.0000
  H   H22       1.0  0.61938  0.88550  0.06839  1.0000
  H   H23       1.0  0.55189  0.40612  0.81507  1.0000
  H   H24       1.0  0.44808  0.59390  0.18493  1.0000
  H   H25       1.0  0.64579  0.25060  0.88109  1.0000
  H   H26       1.0  0.35420  0.74940  0.11890  1.0000
  H   H27       1.0  0.70606  0.49695  0.90779  1.0000
  H   H28       1.0  0.29392  0.50306  0.09220  1.0000
  H   H29       1.0  0.15089  0.55884  0.95707  1.0000
  H   H30       1.0  0.84910  0.44116  0.04293  1.0000
  H   H31       1.0  0.16844  0.55857  0.85564  1.0000
  H   H32       1.0  0.83151  0.44142  0.14436  1.0000
  H   H33       1.0  0.38921  0.67766  0.92568  1.0000
  H   H34       1.0  0.61074  0.32234  0.07431  1.0000
  C   C1        1.0  0.32284  0.21705  0.20874  1.0000
  C   C2        1.0  0.67716  0.78297  0.79127  1.0000
  C   C3        1.0  0.20154  0.33543  0.25231  1.0000
  C   C4        1.0  0.79845  0.66460  0.74769  1.0000
  C   C5        1.0  0.30229  0.44594  0.32109  1.0000
  C   C6        1.0  0.69769  0.55406  0.67890  1.0000
  C   C7        1.0  0.52812  0.43987  0.34801  1.0000
  C   C8        1.0  0.47187  0.56012  0.65198  1.0000
  C   C9        1.0  0.64631  0.31467  0.30592  1.0000
  C   C10       1.0  0.35369  0.68532  0.69408  1.0000
  C   C11       1.0  0.54572  0.20469  0.23709  1.0000
  C   C12       1.0  0.45428  0.79531  0.76290  1.0000
  C   C13       1.0  0.64661  0.56713  0.41716  1.0000
  C   C14       1.0  0.35343  0.43290  0.58284  1.0000
  C   C15       1.0  0.58622  0.56377  0.49023  1.0000
  C   C16       1.0  0.41374  0.43618  0.50976  1.0000
  C   C17       1.0  0.83339  0.69804  0.40268  1.0000
  C   C18       1.0  0.16664  0.30196  0.59731  1.0000
  C   C19       1.0  0.02118  0.75599  0.45929  1.0000
  C   C20       1.0  0.97880  0.24398  0.54072  1.0000
  C   C21       1.0  0.19609  0.87924  0.44428  1.0000
  C   C22       1.0  0.80391  0.12075  0.55573  1.0000
  C   C23       1.0  0.18873  0.94817  0.37261  1.0000
  C   C24       1.0  0.81131  0.05182  0.62740  1.0000
  C   C25       1.0  0.00279  0.89301  0.31591  1.0000
  C   C26       1.0  0.99724  0.10700  0.68411  1.0000
  C   C27       1.0  0.82809  0.76908  0.33063  1.0000
  C   C28       1.0  0.17193  0.23092  0.66937  1.0000
  C   C29       1.0  0.28590  0.23497  0.93681  1.0000
  C   C30       1.0  0.71409  0.76503  0.06319  1.0000
  C   C31       1.0  0.58140  0.38432  0.87674  1.0000
  C   C32       1.0  0.41857  0.61568  0.12325  1.0000
  C   C33       1.0  0.26459  0.55475  0.91288  1.0000
  C   C34       1.0  0.73538  0.44525  0.08712  1.0000
  C   C35       1.0  0.22513  0.11815  0.13009  1.0000
  C   C36       1.0  0.77488  0.88186  0.86991  1.0000
  N   N1        1.0  0.37529  0.38665  0.91149  1.0000
  N   N2        1.0  0.62470  0.61334  0.08851  1.0000
  O   O1        1.0  0.34505  0.03430  0.08582  1.0000
  O   O2        1.0  0.65496  0.96572  0.91418  1.0000
  O   O3        1.0  0.10375  0.22943  0.96594  1.0000
  O   O4        1.0  0.89623  0.77057  0.03406  1.0000
  O   O5        1.0  0.01720  0.12605  0.10623  1.0000
  O   O6        1.0  0.98277  0.87395  0.89377  1.0000
