data_image0
_chemical_formula_structural       Cu2H24C30S2N8O10
_chemical_formula_sum              "Cu2 H24 C30 S2 N8 O10"
_cell_length_a       8.56097
_cell_length_b       10.3773
_cell_length_c       10.8806
_cell_angle_alpha    84.0652
_cell_angle_beta     107.284
_cell_angle_gamma    110.35

_space_group_name_H-M_alt    "P 1"
_space_group_IT_number       1

loop_
  _space_group_symop_operation_xyz
  'x, y, z'

loop_
  _atom_site_type_symbol
  _atom_site_label
  _atom_site_symmetry_multiplicity
  _atom_site_fract_x
  _atom_site_fract_y
  _atom_site_fract_z
  _atom_site_occupancy
  Cu  Cu1       1.0  0.00000  0.50001  0.50000  1.0000
  Cu  Cu2       1.0  0.50001  0.00000  0.50000  1.0000
  H   H1        1.0  0.18746  0.82841  0.38862  1.0000
  H   H2        1.0  0.81253  0.17159  0.61139  1.0000
  H   H3        1.0  0.17514  0.95012  0.28372  1.0000
  H   H4        1.0  0.82484  0.04987  0.71628  1.0000
  H   H5        1.0  0.06188  0.55931  0.24791  1.0000
  H   H6        1.0  0.93815  0.44070  0.75209  1.0000
  H   H7        1.0  0.07755  0.08896  0.33517  1.0000
  H   H8        1.0  0.92243  0.91105  0.66482  1.0000
  H   H9        1.0  0.37049  0.91031  0.93613  1.0000
  H   H10       1.0  0.62950  0.08969  0.06387  1.0000
  H   H11       1.0  0.14110  0.45072  0.09123  1.0000
  H   H12       1.0  0.85893  0.54929  0.90878  1.0000
  H   H13       1.0  0.47549  0.87439  0.75472  1.0000
  H   H14       1.0  0.52451  0.12560  0.24529  1.0000
  H   H15       1.0  0.00498  0.21458  0.48126  1.0000
  H   H16       1.0  0.99501  0.78543  0.51872  1.0000
  H   H17       1.0  0.56147  0.59942  0.64041  1.0000
  H   H18       1.0  0.43852  0.40057  0.35959  1.0000
  H   H19       1.0  0.38225  0.50260  0.51356  1.0000
  H   H20       1.0  0.61776  0.49740  0.48644  1.0000
  H   H21       1.0  0.20998  0.23379  0.71010  1.0000
  H   H22       1.0  0.79002  0.76621  0.28990  1.0000
  H   H23       1.0  0.31834  0.18125  0.53861  1.0000
  H   H24       1.0  0.68165  0.81874  0.46139  1.0000
  C   C1        1.0  0.23874  0.10829  0.94920  1.0000
  C   C2        1.0  0.76125  0.89171  0.05080  1.0000
  C   C3        1.0  0.16193  0.18914  0.11279  1.0000
  C   C4        1.0  0.83807  0.81086  0.88722  1.0000
  C   C5        1.0  0.11526  0.25899  0.19934  1.0000
  C   C6        1.0  0.88474  0.74102  0.80066  1.0000
  C   C7        1.0  0.32590  0.49364  0.69239  1.0000
  C   C8        1.0  0.67410  0.50635  0.30759  1.0000
  C   C9        1.0  0.06796  0.45560  0.26238  1.0000
  C   C10       1.0  0.93205  0.54441  0.73761  1.0000
  C   C11       1.0  0.28906  0.07978  0.84066  1.0000
  C   C12       1.0  0.71094  0.92022  0.15933  1.0000
  C   C13       1.0  0.38014  0.70111  0.53786  1.0000
  C   C14       1.0  0.61987  0.29889  0.46213  1.0000
  C   C15       1.0  0.07526  0.19286  0.31102  1.0000
  C   C16       1.0  0.92473  0.80714  0.68897  1.0000
  C   C17       1.0  0.35906  0.97400  0.85023  1.0000
  C   C18       1.0  0.64094  0.02599  0.14978  1.0000
  C   C19       1.0  0.10961  0.39319  0.17537  1.0000
  C   C20       1.0  0.89042  0.60681  0.82463  1.0000
  C   C21       1.0  0.41693  0.95315  0.75011  1.0000
  C   C22       1.0  0.58306  0.04683  0.24990  1.0000
  C   C23       1.0  0.03603  0.26275  0.39360  1.0000
  C   C24       1.0  0.96397  0.73725  0.60639  1.0000
  C   C25       1.0  0.42219  0.57313  0.59430  1.0000
  C   C26       1.0  0.57782  0.42689  0.40568  1.0000
  C   C27       1.0  0.27080  0.15475  0.72569  1.0000
  C   C28       1.0  0.72919  0.84524  0.27430  1.0000
  C   C29       1.0  0.33001  0.12600  0.62950  1.0000
  C   C30       1.0  0.66999  0.87400  0.37050  1.0000
  S   S1        1.0  0.20883  0.25988  0.97165  1.0000
  S   S2        1.0  0.79118  0.74011  0.02836  1.0000
  N   N1        1.0  0.40594  0.02943  0.64194  1.0000
  N   N2        1.0  0.59405  0.97056  0.35807  1.0000
  N   N3        1.0  0.03416  0.39235  0.37077  1.0000
  N   N4        1.0  0.96585  0.60766  0.62923  1.0000
  N   N5        1.0  0.17341  0.06388  0.13567  1.0000
  N   N6        1.0  0.82659  0.93612  0.86433  1.0000
  N   N7        1.0  0.21698  0.01847  0.04386  1.0000
  N   N8        1.0  0.78301  0.98152  0.95614  1.0000
  O   O1        1.0  0.50312  0.81556  0.57350  1.0000
  O   O2        1.0  0.49689  0.18443  0.42651  1.0000
  O   O3        1.0  0.23306  0.68863  0.46029  1.0000
  O   O4        1.0  0.76696  0.31137  0.53972  1.0000
  O   O5        1.0  0.41225  0.47979  0.80408  1.0000
  O   O6        1.0  0.58774  0.52023  0.19591  1.0000
  O   O7        1.0  0.15854  0.43659  0.65046  1.0000
  O   O8        1.0  0.84146  0.56342  0.34953  1.0000
  O   O9        1.0  0.17832  0.92205  0.37363  1.0000
  O   O10       1.0  0.82165  0.07794  0.62637  1.0000
