data_image0
_chemical_formula_structural       NiH34C36N2O6
_chemical_formula_sum              "Ni1 H34 C36 N2 O6"
_cell_length_a       6.07927
_cell_length_b       7.35409
_cell_length_c       17.6546
_cell_angle_alpha    93.4836
_cell_angle_beta     99.6293
_cell_angle_gamma    96.8265

_space_group_name_H-M_alt    "P 1"
_space_group_IT_number       1

loop_
  _space_group_symop_operation_xyz
  'x, y, z'

loop_
  _atom_site_type_symbol
  _atom_site_label
  _atom_site_symmetry_multiplicity
  _atom_site_fract_x
  _atom_site_fract_y
  _atom_site_fract_z
  _atom_site_occupancy
  Ni  Ni1       1.0  0.50000  0.49999  1.00000  1.0000
  H   H1        1.0  0.70747  0.06887  0.36079  1.0000
  H   H2        1.0  0.29248  0.93109  0.63922  1.0000
  H   H3        1.0  0.27633  0.79874  0.32503  1.0000
  H   H4        1.0  0.72368  0.20128  0.67497  1.0000
  H   H5        1.0  0.05395  0.63116  0.20573  1.0000
  H   H6        1.0  0.94608  0.36883  0.79427  1.0000
  H   H7        1.0  0.48061  0.89195  0.24306  1.0000
  H   H8        1.0  0.51936  0.10797  0.75695  1.0000
  H   H9        1.0  0.53452  0.19998  0.51697  1.0000
  H   H10       1.0  0.46541  0.80004  0.48302  1.0000
  H   H11       1.0  0.84180  0.42346  0.49149  1.0000
  H   H12       1.0  0.15816  0.57657  0.50852  1.0000
  H   H13       1.0  0.82792  0.54429  0.36143  1.0000
  H   H14       1.0  0.17208  0.45570  0.63857  1.0000
  H   H15       1.0  0.49499  0.44040  0.25857  1.0000
  H   H16       1.0  0.50505  0.55956  0.74141  1.0000
  H   H17       1.0  0.18487  0.21638  0.28437  1.0000
  H   H18       1.0  0.81516  0.78358  0.71562  1.0000
  H   H19       1.0  0.18702  0.15981  0.53500  1.0000
  H   H20       1.0  0.81292  0.84022  0.46499  1.0000
  H   H21       1.0  0.81286  0.31132  0.12097  1.0000
  H   H22       1.0  0.18717  0.68867  0.87904  1.0000
  H   H23       1.0  0.88462  0.14059  0.18599  1.0000
  H   H24       1.0  0.11541  0.85941  0.81401  1.0000
  H   H25       1.0  0.72414  0.07290  0.09265  1.0000
  H   H26       1.0  0.27590  0.92711  0.90736  1.0000
  H   H27       1.0  0.27395  0.97914  0.05599  1.0000
  H   H28       1.0  0.72608  0.02086  0.94402  1.0000
  H   H29       1.0  0.01951  0.87303  0.08271  1.0000
  H   H30       1.0  0.98055  0.12698  0.91731  1.0000
  H   H31       1.0  0.24941  0.97078  0.15467  1.0000
  H   H32       1.0  0.75066  0.02927  0.84535  1.0000
  H   H33       1.0  0.09580  0.43245  0.07032  1.0000
  H   H34       1.0  0.90421  0.56755  0.92967  1.0000
  C   C1        1.0  0.78156  0.97024  0.32768  1.0000
  C   C2        1.0  0.21843  0.02974  0.67232  1.0000
  C   C3        1.0  0.10174  0.82082  0.30683  1.0000
  C   C4        1.0  0.89827  0.17921  0.69317  1.0000
  C   C5        1.0  0.97504  0.72378  0.24015  1.0000
  C   C6        1.0  0.02498  0.27623  0.75985  1.0000
  C   C7        1.0  0.74979  0.75044  0.21677  1.0000
  C   C8        1.0  0.25022  0.24954  0.78322  1.0000
  C   C9        1.0  0.65518  0.87253  0.26190  1.0000
  C   C10       1.0  0.34481  0.12743  0.73809  1.0000
  C   C11       1.0  0.60112  0.66102  0.14450  1.0000
  C   C12       1.0  0.39887  0.33897  0.85549  1.0000
  C   C13       1.0  0.52257  0.25462  0.46065  1.0000
  C   C14       1.0  0.47736  0.74540  0.53935  1.0000
  C   C15       1.0  0.69725  0.38028  0.44593  1.0000
  C   C16       1.0  0.30270  0.61974  0.55407  1.0000
  C   C17       1.0  0.68974  0.44777  0.37332  1.0000
  C   C18       1.0  0.31024  0.55224  0.62668  1.0000
  C   C19       1.0  0.50416  0.38785  0.31530  1.0000
  C   C20       1.0  0.49584  0.61213  0.68469  1.0000
  C   C21       1.0  0.32965  0.26130  0.32977  1.0000
  C   C22       1.0  0.67034  0.73869  0.67023  1.0000
  C   C23       1.0  0.33451  0.19256  0.40287  1.0000
  C   C24       1.0  0.66543  0.80744  0.59713  1.0000
  C   C25       1.0  0.14513  0.06355  0.41788  1.0000
  C   C26       1.0  0.85484  0.93648  0.58211  1.0000
  C   C27       1.0  0.00833  0.94745  0.35081  1.0000
  C   C28       1.0  0.99165  0.05258  0.64918  1.0000
  C   C29       1.0  0.08901  0.06084  0.48968  1.0000
  C   C30       1.0  0.91095  0.93922  0.51031  1.0000
  C   C31       1.0  0.86089  0.17291  0.12539  1.0000
  C   C32       1.0  0.13913  0.82709  0.87462  1.0000
  C   C33       1.0  0.15799  0.98614  0.09688  1.0000
  C   C34       1.0  0.84207  0.01387  0.90314  1.0000
  C   C35       1.0  0.17476  0.30601  0.06921  1.0000
  C   C36       1.0  0.82526  0.69398  0.93079  1.0000
  N   N1        1.0  0.06726  0.16080  0.09473  1.0000
  N   N2        1.0  0.93277  0.83920  0.90528  1.0000
  O   O1        1.0  0.36081  0.29943  0.04574  1.0000
  O   O2        1.0  0.63922  0.70056  0.95425  1.0000
  O   O3        1.0  0.39431  0.66925  0.13485  1.0000
  O   O4        1.0  0.60571  0.33074  0.86515  1.0000
  O   O5        1.0  0.70137  0.58196  0.09380  1.0000
  O   O6        1.0  0.29866  0.41803  0.90619  1.0000
