data_image0
_chemical_formula_structural       Cd2H24C32S2N8O10
_chemical_formula_sum              "Cd2 H24 C32 S2 N8 O10"
_cell_length_a       7.02482
_cell_length_b       7.78152
_cell_length_c       16.5562
_cell_angle_alpha    73.3467
_cell_angle_beta     83.5778
_cell_angle_gamma    83.7166

_space_group_name_H-M_alt    "P 1"
_space_group_IT_number       1

loop_
  _space_group_symop_operation_xyz
  'x, y, z'

loop_
  _atom_site_type_symbol
  _atom_site_label
  _atom_site_symmetry_multiplicity
  _atom_site_fract_x
  _atom_site_fract_y
  _atom_site_fract_z
  _atom_site_occupancy
  Cd  Cd1       1.0  0.66353  0.99035  0.59755  1.0000
  Cd  Cd2       1.0  0.33647  0.00965  0.40245  1.0000
  H   H1        1.0  0.84609  0.66624  0.65887  1.0000
  H   H2        1.0  0.15391  0.33377  0.34113  1.0000
  H   H3        1.0  0.00954  0.76858  0.59534  1.0000
  H   H4        1.0  0.99046  0.23142  0.40466  1.0000
  H   H5        1.0  0.72022  0.01808  0.78090  1.0000
  H   H6        1.0  0.27978  0.98194  0.21910  1.0000
  H   H7        1.0  0.54080  0.09905  0.90560  1.0000
  H   H8        1.0  0.45920  0.90095  0.09440  1.0000
  H   H9        1.0  0.02167  0.16092  0.77697  1.0000
  H   H10       1.0  0.97832  0.83908  0.22303  1.0000
  H   H11       1.0  0.22066  0.07023  0.66133  1.0000
  H   H12       1.0  0.77934  0.92978  0.33867  1.0000
  H   H13       1.0  0.97184  0.35028  0.18158  1.0000
  H   H14       1.0  0.02816  0.64971  0.81841  1.0000
  H   H15       1.0  0.69659  0.45606  0.26845  1.0000
  H   H16       1.0  0.30342  0.54392  0.73156  1.0000
  H   H17       1.0  0.30542  0.40604  0.10897  1.0000
  H   H18       1.0  0.69458  0.59396  0.89104  1.0000
  H   H19       1.0  0.55712  0.29304  0.01751  1.0000
  H   H20       1.0  0.44286  0.70695  0.98250  1.0000
  H   H21       1.0  0.46459  0.42214  0.59666  1.0000
  H   H22       1.0  0.53540  0.57788  0.40334  1.0000
  H   H23       1.0  0.09428  0.45010  0.58435  1.0000
  H   H24       1.0  0.90573  0.54989  0.41564  1.0000
  C   C1        1.0  0.56530  0.05061  0.78318  1.0000
  C   C2        1.0  0.43471  0.94941  0.21682  1.0000
  C   C3        1.0  0.46588  0.09751  0.85187  1.0000
  C   C4        1.0  0.53411  0.90249  0.14813  1.0000
  C   C5        1.0  0.26631  0.13870  0.85193  1.0000
  C   C6        1.0  0.73369  0.86129  0.14807  1.0000
  C   C7        1.0  0.17584  0.13012  0.78201  1.0000
  C   C8        1.0  0.82416  0.86988  0.21798  1.0000
  C   C9        1.0  0.28654  0.07955  0.71623  1.0000
  C   C10       1.0  0.71347  0.92045  0.28377  1.0000
  C   C11       1.0  0.16180  0.18523  0.92503  1.0000
  C   C12       1.0  0.83820  0.81477  0.07497  1.0000
  C   C13       1.0  0.94599  0.26545  0.03379  1.0000
  C   C14       1.0  0.05400  0.73455  0.96621  1.0000
  C   C15       1.0  0.78947  0.32166  0.08876  1.0000
  C   C16       1.0  0.21051  0.67833  0.91124  1.0000
  C   C17       1.0  0.82652  0.36492  0.16213  1.0000
  C   C18       1.0  0.17348  0.63507  0.83787  1.0000
  C   C19       1.0  0.67238  0.42452  0.21052  1.0000
  C   C20       1.0  0.32763  0.57547  0.78949  1.0000
  C   C21       1.0  0.45509  0.39726  0.12275  1.0000
  C   C22       1.0  0.54490  0.60273  0.87726  1.0000
  C   C23       1.0  0.59802  0.33391  0.07047  1.0000
  C   C24       1.0  0.40197  0.66607  0.92953  1.0000
  C   C25       1.0  0.54833  0.69822  0.54181  1.0000
  C   C26       1.0  0.45167  0.30179  0.45819  1.0000
  C   C27       1.0  0.49903  0.52109  0.53654  1.0000
  C   C28       1.0  0.50097  0.47892  0.46346  1.0000
  C   C29       1.0  0.90876  0.26677  0.55838  1.0000
  C   C30       1.0  0.09125  0.73322  0.44162  1.0000
  C   C31       1.0  0.00994  0.43399  0.53596  1.0000
  C   C32       1.0  0.99007  0.56600  0.46404  1.0000
  S   S1        1.0  0.91762  0.24679  0.93374  1.0000
  S   S2        1.0  0.08238  0.75320  0.06626  1.0000
  N   N1        1.0  0.47793  0.04124  0.71648  1.0000
  N   N2        1.0  0.52208  0.95878  0.28352  1.0000
  N   N3        1.0  0.24733  0.18319  0.99270  1.0000
  N   N4        1.0  0.75266  0.81681  0.00729  1.0000
  N   N5        1.0  0.12596  0.22747  0.05385  1.0000
  N   N6        1.0  0.87404  0.77253  0.94615  1.0000
  N   N7        1.0  0.48892  0.44529  0.19090  1.0000
  N   N8        1.0  0.51109  0.55471  0.80911  1.0000
  O   O1        1.0  0.86190  0.19713  0.63617  1.0000
  O   O2        1.0  0.13812  0.80286  0.36382  1.0000
  O   O3        1.0  0.86390  0.20178  0.50024  1.0000
  O   O4        1.0  0.13611  0.79823  0.49975  1.0000
  O   O5        1.0  0.55018  0.71426  0.61629  1.0000
  O   O6        1.0  0.44983  0.28577  0.38371  1.0000
  O   O7        1.0  0.59076  0.82404  0.47509  1.0000
  O   O8        1.0  0.40923  0.17598  0.52490  1.0000
  O   O9        1.0  0.92415  0.76836  0.64836  1.0000
  O   O10       1.0  0.07585  0.23164  0.35164  1.0000
