data_image0
_chemical_formula_structural       Cd2H28C34S2N8O8
_chemical_formula_sum              "Cd2 H28 C34 S2 N8 O8"
_cell_length_a       8.98555
_cell_length_b       9.60919
_cell_length_c       11.3512
_cell_angle_alpha    85.4367
_cell_angle_beta     80.6579
_cell_angle_gamma    68.9101

_space_group_name_H-M_alt    "P 1"
_space_group_IT_number       1

loop_
  _space_group_symop_operation_xyz
  'x, y, z'

loop_
  _atom_site_type_symbol
  _atom_site_label
  _atom_site_symmetry_multiplicity
  _atom_site_fract_x
  _atom_site_fract_y
  _atom_site_fract_z
  _atom_site_occupancy
  Cd  Cd1       1.0  0.10633  0.11170  0.89090  1.0000
  Cd  Cd2       1.0  0.89367  0.88830  0.10910  1.0000
  H   H1        1.0  0.89488  0.40027  0.04930  1.0000
  H   H2        1.0  0.10511  0.59974  0.95070  1.0000
  H   H3        1.0  0.91232  0.54298  0.21747  1.0000
  H   H4        1.0  0.08767  0.45702  0.78253  1.0000
  H   H5        1.0  0.37792  0.19973  0.24775  1.0000
  H   H6        1.0  0.62208  0.80028  0.75225  1.0000
  H   H7        1.0  0.34058  0.07397  0.07933  1.0000
  H   H8        1.0  0.65941  0.92604  0.92067  1.0000
  H   H9        1.0  0.40341  0.63147  0.61897  1.0000
  H   H10       1.0  0.59659  0.36852  0.38102  1.0000
  H   H11       1.0  0.36287  0.82554  0.76871  1.0000
  H   H12       1.0  0.63714  0.17447  0.23129  1.0000
  H   H13       1.0  0.89387  0.05272  0.70732  1.0000
  H   H14       1.0  0.10613  0.94728  0.29268  1.0000
  H   H15       1.0  0.91127  0.86929  0.55772  1.0000
  H   H16       1.0  0.08873  0.13070  0.44228  1.0000
  H   H17       1.0  0.48310  0.30585  0.65860  1.0000
  H   H18       1.0  0.51690  0.69415  0.34140  1.0000
  H   H19       1.0  0.62846  0.15861  0.73029  1.0000
  H   H20       1.0  0.37155  0.84138  0.26972  1.0000
  H   H21       1.0  0.56901  0.43029  0.79501  1.0000
  H   H22       1.0  0.43099  0.56971  0.20499  1.0000
  H   H23       1.0  0.37755  0.42979  0.86272  1.0000
  H   H24       1.0  0.62245  0.57021  0.13728  1.0000
  H   H25       1.0  0.54044  0.36382  0.01997  1.0000
  H   H26       1.0  0.45956  0.63619  0.98003  1.0000
  H   H27       1.0  0.53768  0.19006  0.98253  1.0000
  H   H28       1.0  0.46231  0.80995  0.01747  1.0000
  C   C1        1.0  0.99955  0.36028  0.09656  1.0000
  C   C2        1.0  0.00045  0.63972  0.90344  1.0000
  C   C3        1.0  0.01052  0.43919  0.19020  1.0000
  C   C4        1.0  0.98947  0.56082  0.80980  1.0000
  C   C5        1.0  0.14973  0.38409  0.24559  1.0000
  C   C6        1.0  0.85027  0.61590  0.75441  1.0000
  C   C7        1.0  0.26939  0.24928  0.20601  1.0000
  C   C8        1.0  0.73060  0.75073  0.79400  1.0000
  C   C9        1.0  0.24822  0.17788  0.11191  1.0000
  C   C10       1.0  0.75178  0.82212  0.88809  1.0000
  C   C11       1.0  0.17394  0.46161  0.34228  1.0000
  C   C12       1.0  0.82606  0.53838  0.65772  1.0000
  C   C13       1.0  0.17954  0.61931  0.49218  1.0000
  C   C14       1.0  0.82047  0.38069  0.50782  1.0000
  C   C15       1.0  0.15990  0.73364  0.57670  1.0000
  C   C16       1.0  0.84011  0.26636  0.42330  1.0000
  C   C17       1.0  0.28845  0.72237  0.63721  1.0000
  C   C18       1.0  0.71155  0.27763  0.36279  1.0000
  C   C19       1.0  0.26668  0.82983  0.71948  1.0000
  C   C20       1.0  0.73332  0.17017  0.28052  1.0000
  C   C21       1.0  0.00467  0.95763  0.68506  1.0000
  C   C22       1.0  0.99533  0.04236  0.31494  1.0000
  C   C23       1.0  0.01548  0.85528  0.60130  1.0000
  C   C24       1.0  0.98452  0.14472  0.39870  1.0000
  C   C25       1.0  0.38172  0.17540  0.78586  1.0000
  C   C26       1.0  0.61828  0.82460  0.21415  1.0000
  C   C27       1.0  0.50845  0.24637  0.74395  1.0000
  C   C28       1.0  0.49155  0.75363  0.25605  1.0000
  C   C29       1.0  0.50372  0.35756  0.83673  1.0000
  C   C30       1.0  0.49628  0.64244  0.16327  1.0000
  C   C31       1.0  0.57842  0.28221  0.94804  1.0000
  C   C32       1.0  0.42158  0.71779  0.05196  1.0000
  C   C33       1.0  0.76173  0.22553  0.92709  1.0000
  C   C34       1.0  0.23827  0.77447  0.07291  1.0000
  S   S1        1.0  0.04674  0.63535  0.39320  1.0000
  S   S2        1.0  0.95327  0.36465  0.60680  1.0000
  N   N1        1.0  0.11624  0.23307  0.05695  1.0000
  N   N2        1.0  0.88376  0.76694  0.94305  1.0000
  N   N3        1.0  0.30147  0.40380  0.39913  1.0000
  N   N4        1.0  0.69853  0.59620  0.60086  1.0000
  N   N5        1.0  0.30531  0.49255  0.48321  1.0000
  N   N6        1.0  0.69470  0.50745  0.51678  1.0000
  N   N7        1.0  0.12727  0.94554  0.74367  1.0000
  N   N8        1.0  0.87273  0.05446  0.25633  1.0000
  O   O1        1.0  0.23808  0.24904  0.76353  1.0000
  O   O2        1.0  0.76192  0.75096  0.23647  1.0000
  O   O3        1.0  0.41655  0.05335  0.84548  1.0000
  O   O4        1.0  0.58345  0.94665  0.15453  1.0000
  O   O5        1.0  0.83398  0.30379  0.86452  1.0000
  O   O6        1.0  0.16602  0.69622  0.13548  1.0000
  O   O7        1.0  0.84107  0.10011  0.97404  1.0000
  O   O8        1.0  0.15893  0.89989  0.02595  1.0000
