data_image0
_chemical_formula_structural       Sm4H48C44O32
_chemical_formula_sum              "Sm4 H48 C44 O32"
_cell_length_a       5.86619
_cell_length_b       13.3334
_cell_length_c       15.5966
_cell_angle_alpha    93.4664
_cell_angle_beta     90.0002
_cell_angle_gamma    89.9997

_space_group_name_H-M_alt    "P 1"
_space_group_IT_number       1

loop_
  _space_group_symop_operation_xyz
  'x, y, z'

loop_
  _atom_site_type_symbol
  _atom_site_label
  _atom_site_symmetry_multiplicity
  _atom_site_fract_x
  _atom_site_fract_y
  _atom_site_fract_z
  _atom_site_occupancy
  Sm  Sm1       1.0  0.06029  0.13283  0.58235  1.0000
  Sm  Sm2       1.0  0.56028  0.36718  0.91765  1.0000
  Sm  Sm3       1.0  0.93973  0.86718  0.41765  1.0000
  Sm  Sm4       1.0  0.43972  0.63282  0.08235  1.0000
  H   H1        1.0  0.30908  0.97216  0.84328  1.0000
  H   H2        1.0  0.80908  0.52783  0.65673  1.0000
  H   H3        1.0  0.69093  0.02784  0.15672  1.0000
  H   H4        1.0  0.19090  0.47217  0.34328  1.0000
  H   H5        1.0  0.55364  0.86342  0.93054  1.0000
  H   H6        1.0  0.05363  0.63657  0.56947  1.0000
  H   H7        1.0  0.44637  0.13657  0.06946  1.0000
  H   H8        1.0  0.94636  0.36343  0.43054  1.0000
  H   H9        1.0  0.90392  0.78463  0.86302  1.0000
  H   H10       1.0  0.40389  0.71537  0.63698  1.0000
  H   H11       1.0  0.09609  0.21537  0.13697  1.0000
  H   H12       1.0  0.59609  0.28464  0.36303  1.0000
  H   H13       1.0  0.98860  0.80562  0.71032  1.0000
  H   H14       1.0  0.48858  0.69438  0.78968  1.0000
  H   H15       1.0  0.01140  0.19439  0.28967  1.0000
  H   H16       1.0  0.51140  0.30561  0.21033  1.0000
  H   H17       1.0  0.61935  0.37774  0.59366  1.0000
  H   H18       1.0  0.11935  0.12226  0.90633  1.0000
  H   H19       1.0  0.38065  0.62227  0.40634  1.0000
  H   H20       1.0  0.88065  0.87772  0.09365  1.0000
  H   H21       1.0  0.42771  0.46123  0.64599  1.0000
  H   H22       1.0  0.92771  0.03877  0.85400  1.0000
  H   H23       1.0  0.57229  0.53878  0.35401  1.0000
  H   H24       1.0  0.07227  0.96122  0.14599  1.0000
  H   H25       1.0  0.23860  0.49436  0.50659  1.0000
  H   H26       1.0  0.73861  0.00564  0.99341  1.0000
  H   H27       1.0  0.76138  0.50565  0.49341  1.0000
  H   H28       1.0  0.26139  0.99435  0.00659  1.0000
  H   H29       1.0  0.41181  0.40376  0.45185  1.0000
  H   H30       1.0  0.91181  0.09624  0.04814  1.0000
  H   H31       1.0  0.58819  0.59625  0.54815  1.0000
  H   H32       1.0  0.08820  0.90375  0.95185  1.0000
  H   H33       1.0  0.59828  0.19081  0.49071  1.0000
  H   H34       1.0  0.09827  0.30919  0.00930  1.0000
  H   H35       1.0  0.40174  0.80920  0.50930  1.0000
  H   H36       1.0  0.90172  0.69080  0.99071  1.0000
  H   H37       1.0  0.70326  0.09072  0.45688  1.0000
  H   H38       1.0  0.20324  0.40928  0.04312  1.0000
  H   H39       1.0  0.29676  0.90929  0.54312  1.0000
  H   H40       1.0  0.79675  0.59071  0.95688  1.0000
  H   H41       1.0  0.80395  0.21368  0.74295  1.0000
  H   H42       1.0  0.30394  0.28632  0.75705  1.0000
  H   H43       1.0  0.19606  0.78632  0.25705  1.0000
  H   H44       1.0  0.69607  0.71368  0.24295  1.0000
  H   H45       1.0  0.61979  0.21638  0.66776  1.0000
  H   H46       1.0  0.11978  0.28362  0.83224  1.0000
  H   H47       1.0  0.38022  0.78363  0.33223  1.0000
  H   H48       1.0  0.88022  0.71637  0.16776  1.0000
  C   C1        1.0  0.69468  0.89828  0.68962  1.0000
  C   C2        1.0  0.19465  0.60172  0.81038  1.0000
  C   C3        1.0  0.30535  0.10173  0.31038  1.0000
  C   C4        1.0  0.80534  0.39827  0.18962  1.0000
  C   C5        1.0  0.50431  0.94694  0.72825  1.0000
  C   C6        1.0  0.00430  0.55306  0.77175  1.0000
  C   C7        1.0  0.49570  0.05307  0.27175  1.0000
  C   C8        1.0  0.99569  0.44693  0.22825  1.0000
  C   C9        1.0  0.45808  0.93448  0.81520  1.0000
  C   C10       1.0  0.95806  0.56553  0.68480  1.0000
  C   C11       1.0  0.54194  0.06553  0.18480  1.0000
  C   C12       1.0  0.04192  0.43448  0.31520  1.0000
  C   C13       1.0  0.59694  0.87519  0.86387  1.0000
  C   C14       1.0  0.09693  0.62481  0.63613  1.0000
  C   C15       1.0  0.40307  0.12481  0.13613  1.0000
  C   C16       1.0  0.90306  0.37519  0.36387  1.0000
  C   C17       1.0  0.79074  0.83034  0.82600  1.0000
  C   C18       1.0  0.29073  0.66965  0.67400  1.0000
  C   C19       1.0  0.20926  0.16965  0.17399  1.0000
  C   C20       1.0  0.70926  0.33035  0.32601  1.0000
  C   C21       1.0  0.83909  0.84192  0.73960  1.0000
  C   C22       1.0  0.33908  0.65808  0.76040  1.0000
  C   C23       1.0  0.16091  0.15809  0.26040  1.0000
  C   C24       1.0  0.66090  0.34191  0.23960  1.0000
  C   C25       1.0  0.75612  0.89982  0.59629  1.0000
  C   C26       1.0  0.25610  0.60018  0.90371  1.0000
  C   C27       1.0  0.24389  0.10019  0.40371  1.0000
  C   C28       1.0  0.74389  0.39981  0.09629  1.0000
  C   C29       1.0  0.34929  0.01078  0.67928  1.0000
  C   C30       1.0  0.84926  0.48922  0.82072  1.0000
  C   C31       1.0  0.65073  0.98923  0.32072  1.0000
  C   C32       1.0  0.15072  0.51077  0.17927  1.0000
  C   C33       1.0  0.28041  0.32382  0.60181  1.0000
  C   C34       1.0  0.78042  0.17618  0.89819  1.0000
  C   C35       1.0  0.71959  0.67619  0.39819  1.0000
  C   C36       1.0  0.21960  0.82381  0.10181  1.0000
  C   C37       1.0  0.44523  0.40783  0.58948  1.0000
  C   C38       1.0  0.94523  0.09217  0.91052  1.0000
  C   C39       1.0  0.55477  0.59218  0.41052  1.0000
  C   C40       1.0  0.05476  0.90782  0.08947  1.0000
  C   C41       1.0  0.40929  0.46022  0.50636  1.0000
  C   C42       1.0  0.90929  0.03978  0.99363  1.0000
  C   C43       1.0  0.59070  0.53979  0.49363  1.0000
  C   C44       1.0  0.09071  0.96021  0.00636  1.0000
  O   O1        1.0  0.37730  0.01353  0.59692  1.0000
  O   O2        1.0  0.87729  0.48647  0.90308  1.0000
  O   O3        1.0  0.62272  0.98647  0.40308  1.0000
  O   O4        1.0  0.12270  0.51353  0.09692  1.0000
  O   O5        1.0  0.19184  0.06169  0.71693  1.0000
  O   O6        1.0  0.69182  0.43831  0.78307  1.0000
  O   O7        1.0  0.80818  0.93832  0.28307  1.0000
  O   O8        1.0  0.30816  0.56169  0.21693  1.0000
  O   O9        1.0  0.88424  0.96889  0.56969  1.0000
  O   O10       1.0  0.38421  0.53111  0.93032  1.0000
  O   O11       1.0  0.11578  0.03111  0.43032  1.0000
  O   O12       1.0  0.61577  0.46888  0.06969  1.0000
  O   O13       1.0  0.70113  0.82533  0.54551  1.0000
  O   O14       1.0  0.20111  0.67467  0.95450  1.0000
  O   O15       1.0  0.29889  0.17467  0.45450  1.0000
  O   O16       1.0  0.79888  0.32532  0.04551  1.0000
  O   O17       1.0  0.74636  0.15654  0.48719  1.0000
  O   O18       1.0  0.24635  0.34346  0.01281  1.0000
  O   O19       1.0  0.25365  0.84347  0.51281  1.0000
  O   O20       1.0  0.75364  0.65653  0.98719  1.0000
  O   O21       1.0  0.77245  0.18911  0.68296  1.0000
  O   O22       1.0  0.27244  0.31089  0.81704  1.0000
  O   O23       1.0  0.22755  0.81089  0.31704  1.0000
  O   O24       1.0  0.72756  0.68910  0.18296  1.0000
  O   O25       1.0  0.34784  0.24936  0.64720  1.0000
  O   O26       1.0  0.84783  0.25064  0.85280  1.0000
  O   O27       1.0  0.65218  0.75065  0.35280  1.0000
  O   O28       1.0  0.15217  0.74935  0.14720  1.0000
  O   O29       1.0  0.08422  0.32035  0.56903  1.0000
  O   O30       1.0  0.58421  0.17965  0.93096  1.0000
  O   O31       1.0  0.91577  0.67965  0.43097  1.0000
  O   O32       1.0  0.41578  0.82035  0.06904  1.0000
