data_image0
_chemical_formula_structural       Pr6H42C56O40
_chemical_formula_sum              "Pr6 H42 C56 O40"
_cell_length_a       11.6018
_cell_length_b       13.1347
_cell_length_c       13.4243
_cell_angle_alpha    115.969
_cell_angle_beta     91.5082
_cell_angle_gamma    114.803

_space_group_name_H-M_alt    "P 1"
_space_group_IT_number       1

loop_
  _space_group_symop_operation_xyz
  'x, y, z'

loop_
  _atom_site_type_symbol
  _atom_site_label
  _atom_site_symmetry_multiplicity
  _atom_site_fract_x
  _atom_site_fract_y
  _atom_site_fract_z
  _atom_site_occupancy
  Pr  Pr1       1.0  0.64925  0.14999  0.48244  1.0000
  Pr  Pr2       1.0  0.35075  0.85001  0.51756  1.0000
  Pr  Pr3       1.0  0.99911  0.14634  0.39597  1.0000
  Pr  Pr4       1.0  0.00090  0.85366  0.60402  1.0000
  Pr  Pr5       1.0  0.44778  0.32490  0.50973  1.0000
  Pr  Pr6       1.0  0.55223  0.67509  0.49027  1.0000
  H   H1        1.0  0.25140  0.35424  0.66256  1.0000
  H   H2        1.0  0.74860  0.64576  0.33744  1.0000
  H   H3        1.0  0.47298  0.92518  0.07624  1.0000
  H   H4        1.0  0.52702  0.07481  0.92375  1.0000
  H   H5        1.0  0.31748  0.80797  0.88469  1.0000
  H   H6        1.0  0.68251  0.19203  0.11530  1.0000
  H   H7        1.0  0.12301  0.84023  0.86559  1.0000
  H   H8        1.0  0.87698  0.15977  0.13441  1.0000
  H   H9        1.0  0.08980  0.99486  0.03849  1.0000
  H   H10       1.0  0.91020  0.00514  0.96151  1.0000
  H   H11       1.0  0.82992  0.34616  0.91032  1.0000
  H   H12       1.0  0.17007  0.65384  0.08968  1.0000
  H   H13       1.0  0.97869  0.39594  0.08154  1.0000
  H   H14       1.0  0.02131  0.60406  0.91846  1.0000
  H   H15       1.0  0.15018  0.32563  0.05553  1.0000
  H   H16       1.0  0.84982  0.67439  0.94447  1.0000
  H   H17       1.0  0.17605  0.21261  0.86033  1.0000
  H   H18       1.0  0.82396  0.78740  0.13968  1.0000
  H   H19       1.0  0.68243  0.83159  0.02502  1.0000
  H   H20       1.0  0.31757  0.16841  0.97499  1.0000
  H   H21       1.0  0.49640  0.62070  0.88209  1.0000
  H   H22       1.0  0.50360  0.37930  0.11791  1.0000
  H   H23       1.0  0.31341  0.49782  0.94877  1.0000
  H   H24       1.0  0.68658  0.50218  0.05122  1.0000
  H   H25       1.0  0.32034  0.59516  0.15597  1.0000
  H   H26       1.0  0.67965  0.40485  0.84402  1.0000
  H   H27       1.0  0.74425  0.32785  0.31086  1.0000
  H   H28       1.0  0.25575  0.67215  0.68914  1.0000
  H   H29       1.0  0.89585  0.47355  0.38052  1.0000
  H   H30       1.0  0.10415  0.52645  0.61949  1.0000
  H   H31       1.0  0.84945  0.50066  0.57200  1.0000
  H   H32       1.0  0.15055  0.49933  0.42800  1.0000
  H   H33       1.0  0.22285  0.03871  0.42647  1.0000
  H   H34       1.0  0.77714  0.96129  0.57353  1.0000
  H   H35       1.0  0.18495  0.11297  0.53434  1.0000
  H   H36       1.0  0.81505  0.88703  0.46566  1.0000
  H   H37       1.0  0.39681  0.44905  0.74281  1.0000
  H   H38       1.0  0.60320  0.55094  0.25719  1.0000
  H   H39       1.0  0.63384  0.61430  0.70137  1.0000
  H   H40       1.0  0.36616  0.38570  0.29863  1.0000
  H   H41       1.0  0.67996  0.52387  0.71946  1.0000
  H   H42       1.0  0.32004  0.47613  0.28054  1.0000
  C   C1        1.0  0.46687  0.08579  0.27523  1.0000
  C   C2        1.0  0.53313  0.91420  0.72476  1.0000
  C   C3        1.0  0.37228  0.02806  0.16386  1.0000
  C   C4        1.0  0.62772  0.97193  0.83613  1.0000
  C   C5        1.0  0.38913  0.94042  0.06627  1.0000
  C   C6        1.0  0.61088  0.05958  0.93373  1.0000
  C   C7        1.0  0.30075  0.87384  0.95960  1.0000
  C   C8        1.0  0.69925  0.12616  0.04040  1.0000
  C   C9        1.0  0.19217  0.89228  0.94885  1.0000
  C   C10       1.0  0.80783  0.10772  0.05115  1.0000
  C   C11       1.0  0.17373  0.97866  0.04536  1.0000
  C   C12       1.0  0.82627  0.02133  0.95464  1.0000
  C   C13       1.0  0.26318  0.04828  0.15276  1.0000
  C   C14       1.0  0.73682  0.95171  0.84724  1.0000
  C   C15       1.0  0.23969  0.14634  0.24769  1.0000
  C   C16       1.0  0.76032  0.85366  0.75231  1.0000
  C   C17       1.0  0.04833  0.16435  0.66177  1.0000
  C   C18       1.0  0.95167  0.83565  0.33822  1.0000
  C   C19       1.0  0.02010  0.21814  0.77623  1.0000
  C   C20       1.0  0.97990  0.78186  0.22377  1.0000
  C   C21       1.0  0.92127  0.25504  0.79053  1.0000
  C   C22       1.0  0.07873  0.74496  0.20948  1.0000
  C   C23       1.0  0.90728  0.31886  0.90050  1.0000
  C   C24       1.0  0.09272  0.68114  0.09951  1.0000
  C   C25       1.0  0.99007  0.34571  0.99605  1.0000
  C   C26       1.0  0.00993  0.65429  0.00395  1.0000
  C   C27       1.0  0.08643  0.30699  0.98154  1.0000
  C   C28       1.0  0.91358  0.69302  0.01846  1.0000
  C   C29       1.0  0.10110  0.24296  0.87205  1.0000
  C   C30       1.0  0.89890  0.75705  0.12795  1.0000
  C   C31       1.0  0.82677  0.22035  0.68869  1.0000
  C   C32       1.0  0.17323  0.77965  0.31132  1.0000
  C   C33       1.0  0.72867  0.95402  0.24988  1.0000
  C   C34       1.0  0.27133  0.04598  0.75012  1.0000
  C   C35       1.0  0.49409  0.81730  0.32767  1.0000
  C   C36       1.0  0.50591  0.18270  0.67233  1.0000
  C   C37       1.0  0.50350  0.76689  0.20612  1.0000
  C   C38       1.0  0.49650  0.23311  0.79388  1.0000
  C   C39       1.0  0.60677  0.83315  0.16899  1.0000
  C   C40       1.0  0.39322  0.16685  0.83101  1.0000
  C   C41       1.0  0.60133  0.77846  0.05170  1.0000
  C   C42       1.0  0.39866  0.22154  0.94830  1.0000
  C   C43       1.0  0.49621  0.65977  0.97240  1.0000
  C   C44       1.0  0.50379  0.34023  0.02760  1.0000
  C   C45       1.0  0.39524  0.59229  0.00952  1.0000
  C   C46       1.0  0.60475  0.40771  0.99048  1.0000
  C   C47       1.0  0.39945  0.64574  0.12595  1.0000
  C   C48       1.0  0.60055  0.35427  0.87405  1.0000
  C   C49       1.0  0.89149  0.31649  0.39445  1.0000
  C   C50       1.0  0.10851  0.68351  0.60555  1.0000
  C   C51       1.0  0.82504  0.39254  0.38979  1.0000
  C   C52       1.0  0.17496  0.60747  0.61021  1.0000
  C   C53       1.0  0.76819  0.44118  0.49313  1.0000
  C   C54       1.0  0.23181  0.55882  0.50687  1.0000
  C   C55       1.0  0.72490  0.53228  0.48449  1.0000
  C   C56       1.0  0.27510  0.46772  0.51551  1.0000
  O   O1        1.0  0.42854  0.11573  0.36885  1.0000
  O   O2        1.0  0.57146  0.88427  0.63114  1.0000
  O   O3        1.0  0.21795  0.12071  0.46922  1.0000
  O   O4        1.0  0.78205  0.87929  0.53078  1.0000
  O   O5        1.0  0.58093  0.09751  0.27520  1.0000
  O   O6        1.0  0.41907  0.90248  0.72480  1.0000
  O   O7        1.0  0.33828  0.36202  0.68080  1.0000
  O   O8        1.0  0.66172  0.63798  0.31920  1.0000
  O   O9        1.0  0.60282  0.53232  0.70434  1.0000
  O   O10       1.0  0.39718  0.46767  0.29566  1.0000
  O   O11       1.0  0.33850  0.25856  0.31536  1.0000
  O   O12       1.0  0.66150  0.74144  0.68463  1.0000
  O   O13       1.0  0.12246  0.11684  0.25396  1.0000
  O   O14       1.0  0.87754  0.88316  0.74604  1.0000
  O   O15       1.0  0.05338  0.22042  0.60343  1.0000
  O   O16       1.0  0.94662  0.77958  0.39657  1.0000
  O   O17       1.0  0.07459  0.07149  0.62930  1.0000
  O   O18       1.0  0.92542  0.92852  0.37070  1.0000
  O   O19       1.0  0.78182  0.10760  0.60004  1.0000
  O   O20       1.0  0.21817  0.89240  0.39997  1.0000
  O   O21       1.0  0.79107  0.30056  0.69169  1.0000
  O   O22       1.0  0.20894  0.69945  0.30832  1.0000
  O   O23       1.0  0.73881  0.00749  0.35865  1.0000
  O   O24       1.0  0.26119  0.99251  0.64136  1.0000
  O   O25       1.0  0.82452  0.99757  0.21054  1.0000
  O   O26       1.0  0.17548  0.00243  0.78946  1.0000
  O   O27       1.0  0.48417  0.74934  0.37443  1.0000
  O   O28       1.0  0.51582  0.25065  0.62556  1.0000
  O   O29       1.0  0.48023  0.91772  0.37861  1.0000
  O   O30       1.0  0.51977  0.08228  0.62139  1.0000
  O   O31       1.0  0.87284  0.27447  0.46704  1.0000
  O   O32       1.0  0.12716  0.72553  0.53296  1.0000
  O   O33       1.0  0.96350  0.29350  0.32836  1.0000
  O   O34       1.0  0.03650  0.70650  0.67164  1.0000
  O   O35       1.0  0.66267  0.34302  0.49966  1.0000
  O   O36       1.0  0.33734  0.65698  0.50034  1.0000
  O   O37       1.0  0.60089  0.49335  0.46117  1.0000
  O   O38       1.0  0.39911  0.50665  0.53883  1.0000
  O   O39       1.0  0.80754  0.64150  0.49994  1.0000
  O   O40       1.0  0.19246  0.35850  0.50006  1.0000
