data_image0
_chemical_formula_structural       Pr2H24C22O16
_chemical_formula_sum              "Pr2 H24 C22 O16"
_cell_length_a       6.28547
_cell_length_b       8.87479
_cell_length_c       12.3797
_cell_angle_alpha    78.2488
_cell_angle_beta     79.1775
_cell_angle_gamma    71.2224

_space_group_name_H-M_alt    "P 1"
_space_group_IT_number       1

loop_
  _space_group_symop_operation_xyz
  'x, y, z'

loop_
  _atom_site_type_symbol
  _atom_site_label
  _atom_site_symmetry_multiplicity
  _atom_site_fract_x
  _atom_site_fract_y
  _atom_site_fract_z
  _atom_site_occupancy
  Pr  Pr1       1.0  0.92626  0.53689  0.22789  1.0000
  Pr  Pr2       1.0  0.70273  0.00222  0.03092  1.0000
  H   H1        1.0  0.96591  0.50856  0.81219  1.0000
  H   H2        1.0  0.80400  0.55455  0.63381  1.0000
  H   H3        1.0  0.39645  0.69125  0.62648  1.0000
  H   H4        1.0  0.13979  0.76800  0.80032  1.0000
  H   H5        1.0  0.29373  0.11663  0.46080  1.0000
  H   H6        1.0  0.11503  0.99505  0.64027  1.0000
  H   H7        1.0  0.85463  0.83810  0.64050  1.0000
  H   H8        1.0  0.75917  0.80760  0.45947  1.0000
  H   H9        1.0  0.18558  0.53499  0.57957  1.0000
  H   H10       1.0  0.11487  0.35371  0.60380  1.0000
  H   H11       1.0  0.57636  0.40952  0.50568  1.0000
  H   H12       1.0  0.52091  0.23248  0.49471  1.0000
  H   H13       1.0  0.71811  0.21251  0.65972  1.0000
  H   H14       1.0  0.47386  0.35061  0.71681  1.0000
  H   H15       1.0  0.24962  0.15576  0.73068  1.0000
  H   H16       1.0  0.49219  0.02386  0.66213  1.0000
  H   H17       1.0  0.41252  0.62760  0.32262  1.0000
  H   H18       1.0  0.46490  0.79362  0.26801  1.0000
  H   H19       1.0  0.52851  0.38579  0.29785  1.0000
  H   H20       1.0  0.73835  0.25199  0.23890  1.0000
  H   H21       1.0  0.35035  0.28082  0.10329  1.0000
  H   H22       1.0  0.47711  0.39276  0.02473  1.0000
  H   H23       1.0  0.10494  0.13157  0.93209  1.0000
  H   H24       1.0  0.91895  0.28036  0.97963  1.0000
  C   C1        1.0  0.74733  0.58951  0.00860  1.0000
  C   C2        1.0  0.64261  0.60932  0.90577  1.0000
  C   C3        1.0  0.78476  0.56395  0.80872  1.0000
  C   C4        1.0  0.69560  0.59146  0.70915  1.0000
  C   C5        1.0  0.46443  0.66684  0.70519  1.0000
  C   C6        1.0  0.32122  0.71013  0.80149  1.0000
  C   C7        1.0  0.40824  0.67882  0.90273  1.0000
  C   C8        1.0  0.23833  0.70894  0.00484  1.0000
  C   C9        1.0  0.23726  0.10239  0.25223  1.0000
  C   C10       1.0  0.12049  0.03561  0.36008  1.0000
  C   C11       1.0  0.17423  0.05074  0.46101  1.0000
  C   C12       1.0  0.07711  0.98061  0.56132  1.0000
  C   C13       1.0  0.92978  0.89169  0.56156  1.0000
  C   C14       1.0  0.87626  0.87480  0.46117  1.0000
  C   C15       1.0  0.96900  0.94832  0.36052  1.0000
  C   C16       1.0  0.88982  0.94768  0.25475  1.0000
  C   C17       1.0  0.12607  0.46718  0.43738  1.0000
  C   C18       1.0  0.22060  0.42130  0.54690  1.0000
  C   C19       1.0  0.47253  0.32979  0.54551  1.0000
  C   C20       1.0  0.53294  0.25688  0.66278  1.0000
  C   C21       1.0  0.43580  0.11668  0.71680  1.0000
  C   C22       1.0  0.52324  0.04216  0.82689  1.0000
  O   O1        1.0  0.53026  0.68403  0.30775  1.0000
  O   O2        1.0  0.69677  0.70905  0.06219  1.0000
  O   O3        1.0  0.69300  0.35341  0.27188  1.0000
  O   O4        1.0  0.88848  0.45576  0.04069  1.0000
  O   O5        1.0  0.46635  0.28318  0.03591  1.0000
  O   O6        1.0  0.25301  0.59607  0.08816  1.0000
  O   O7        1.0  0.93719  0.18479  0.94502  1.0000
  O   O8        1.0  0.08212  0.84076  0.99730  1.0000
  O   O9        1.0  0.19479  0.25457  0.22536  1.0000
  O   O10       1.0  0.38062  0.00066  0.19513  1.0000
  O   O11       1.0  0.83491  0.08081  0.18886  1.0000
  O   O12       1.0  0.87011  0.81971  0.23234  1.0000
  O   O13       1.0  0.25076  0.49670  0.34428  1.0000
  O   O14       1.0  0.91998  0.47884  0.43703  1.0000
  O   O15       1.0  0.73572  0.97723  0.82935  1.0000
  O   O16       1.0  0.38608  0.05279  0.91812  1.0000
