data_image0
_chemical_formula_structural       Cd2H28C40N8O8
_chemical_formula_sum              "Cd2 H28 C40 N8 O8"
_cell_length_a       9.09955
_cell_length_b       9.13401
_cell_length_c       14.8247
_cell_angle_alpha    96.6127
_cell_angle_beta     103.57
_cell_angle_gamma    107.383

_space_group_name_H-M_alt    "P 1"
_space_group_IT_number       1

loop_
  _space_group_symop_operation_xyz
  'x, y, z'

loop_
  _atom_site_type_symbol
  _atom_site_label
  _atom_site_symmetry_multiplicity
  _atom_site_fract_x
  _atom_site_fract_y
  _atom_site_fract_z
  _atom_site_occupancy
  Cd  Cd1       1.0  0.40052  0.92176  0.80618  1.0000
  Cd  Cd2       1.0  0.66083  0.75533  0.40721  1.0000
  H   H1        1.0  0.07551  0.84772  0.50695  1.0000
  H   H2        1.0  0.27482  0.83231  0.39138  1.0000
  H   H3        1.0  0.81468  0.80024  0.22393  1.0000
  H   H4        1.0  0.87780  0.70965  0.10268  1.0000
  H   H5        1.0  0.97666  0.72222  0.96025  1.0000
  H   H6        1.0  0.46361  0.91149  0.13671  1.0000
  H   H7        1.0  0.36996  0.90873  0.28016  1.0000
  H   H8        1.0  0.82486  0.85696  0.63135  1.0000
  H   H9        1.0  0.01313  0.72037  0.74445  1.0000
  H   H10       1.0  0.78115  0.42583  0.47242  1.0000
  H   H11       1.0  0.95443  0.30298  0.50604  1.0000
  H   H12       1.0  0.09529  0.12278  0.56223  1.0000
  H   H13       1.0  0.20580  0.35985  0.84982  1.0000
  H   H14       1.0  0.05881  0.53651  0.79645  1.0000
  H   H15       1.0  0.72901  0.84289  0.76153  1.0000
  H   H16       1.0  0.03298  0.98099  0.88690  1.0000
  H   H17       1.0  0.72539  0.22695  0.94630  1.0000
  H   H18       1.0  0.23561  0.20906  0.96072  1.0000
  H   H19       1.0  0.45280  0.38963  0.09853  1.0000
  H   H20       1.0  0.10405  0.47124  0.22984  1.0000
  H   H21       1.0  0.88322  0.28998  0.09372  1.0000
  H   H22       1.0  0.30570  0.83938  0.58075  1.0000
  H   H23       1.0  0.34154  0.59811  0.46486  1.0000
  H   H24       1.0  0.45732  0.54595  0.75165  1.0000
  H   H25       1.0  0.34888  0.38355  0.42139  1.0000
  H   H26       1.0  0.43631  0.16411  0.37069  1.0000
  H   H27       1.0  0.64619  0.15651  0.66085  1.0000
  H   H28       1.0  0.56678  0.38083  0.71403  1.0000
  C   C1        1.0  0.05183  0.83649  0.43081  1.0000
  C   C2        1.0  0.15199  0.83065  0.37533  1.0000
  C   C3        1.0  0.91257  0.81358  0.28565  1.0000
  C   C4        1.0  0.11719  0.81192  0.20061  1.0000
  C   C5        1.0  0.00616  0.75625  0.11062  1.0000
  C   C6        1.0  0.06126  0.76152  0.03078  1.0000
  C   C7        1.0  0.22609  0.81906  0.03956  1.0000
  C   C8        1.0  0.33549  0.86823  0.13004  1.0000
  C   C9        1.0  0.28213  0.86630  0.21058  1.0000
  C   C10       1.0  0.28374  0.83685  0.95379  1.0000
  C   C11       1.0  0.84270  0.74575  0.61644  1.0000
  C   C12       1.0  0.93466  0.67864  0.67271  1.0000
  C   C13       1.0  0.81892  0.52576  0.52982  1.0000
  C   C14       1.0  0.99615  0.43111  0.64756  1.0000
  C   C15       1.0  0.00637  0.31440  0.58166  1.0000
  C   C16       1.0  0.08622  0.21342  0.61301  1.0000
  C   C17       1.0  0.15993  0.22972  0.70963  1.0000
  C   C18       1.0  0.14761  0.34623  0.77476  1.0000
  C   C19       1.0  0.06488  0.44539  0.74460  1.0000
  C   C20       1.0  0.25246  0.12630  0.74320  1.0000
  C   C21       1.0  0.77405  0.94438  0.81860  1.0000
  C   C22       1.0  0.92541  0.01240  0.87990  1.0000
  C   C23       1.0  0.76590  0.14084  0.91256  1.0000
  C   C24       1.0  0.04540  0.23983  0.01827  1.0000
  C   C25       1.0  0.20557  0.26540  0.01958  1.0000
  C   C26       1.0  0.32744  0.36686  0.09658  1.0000
  C   C27       1.0  0.29193  0.44180  0.17251  1.0000
  C   C28       1.0  0.13102  0.41364  0.17035  1.0000
  C   C29       1.0  0.00789  0.31340  0.09379  1.0000
  C   C30       1.0  0.42395  0.54993  0.25504  1.0000
  C   C31       1.0  0.34029  0.74026  0.59775  1.0000
  C   C32       1.0  0.35697  0.62152  0.54043  1.0000
  C   C33       1.0  0.42309  0.59516  0.69030  1.0000
  C   C34       1.0  0.45242  0.39735  0.57124  1.0000
  C   C35       1.0  0.41307  0.33434  0.47451  1.0000
  C   C36       1.0  0.46254  0.21127  0.44585  1.0000
  C   C37       1.0  0.54829  0.14761  0.51247  1.0000
  C   C38       1.0  0.58174  0.20783  0.60912  1.0000
  C   C39       1.0  0.53598  0.33325  0.63864  1.0000
  C   C40       1.0  0.60170  0.01590  0.48088  1.0000
  N   N1        1.0  0.90346  0.82590  0.37394  1.0000
  N   N2        1.0  0.06220  0.81597  0.28277  1.0000
  N   N3        1.0  0.77024  0.64900  0.52786  1.0000
  N   N4        1.0  0.91934  0.53851  0.61719  1.0000
  N   N5        1.0  0.67611  0.02574  0.83936  1.0000
  N   N6        1.0  0.91892  0.13736  0.94009  1.0000
  N   N7        1.0  0.38080  0.72224  0.69065  1.0000
  N   N8        1.0  0.41088  0.52972  0.59991  1.0000
  O   O1        1.0  0.17904  0.80983  0.87355  1.0000
  O   O2        1.0  0.43432  0.88431  0.96310  1.0000
  O   O3        1.0  0.24241  0.00734  0.68457  1.0000
  O   O4        1.0  0.33804  0.16013  0.82959  1.0000
  O   O5        1.0  0.38899  0.59109  0.33099  1.0000
  O   O6        1.0  0.56629  0.59757  0.24788  1.0000
  O   O7        1.0  0.58073  0.97380  0.39160  1.0000
  O   O8        1.0  0.66194  0.94783  0.54190  1.0000
