data_image0
_chemical_formula_structural       Cd4H40C48N8O16
_chemical_formula_sum              "Cd4 H40 C48 N8 O16"
_cell_length_a       8.19353
_cell_length_b       10.2421
_cell_length_c       16.1455
_cell_angle_alpha    102.161
_cell_angle_beta     90.0175
_cell_angle_gamma    113.567

_space_group_name_H-M_alt    "P 1"
_space_group_IT_number       1

loop_
  _space_group_symop_operation_xyz
  'x, y, z'

loop_
  _atom_site_type_symbol
  _atom_site_label
  _atom_site_symmetry_multiplicity
  _atom_site_fract_x
  _atom_site_fract_y
  _atom_site_fract_z
  _atom_site_occupancy
  Cd  Cd1       1.0  0.65455  0.00012  0.24995  1.0000
  Cd  Cd2       1.0  0.34545  0.99988  0.75005  1.0000
  Cd  Cd3       1.0  0.15202  0.99987  0.24999  1.0000
  Cd  Cd4       1.0  0.84798  0.00013  0.75001  1.0000
  H   H1        1.0  0.25152  0.24917  0.87376  1.0000
  H   H2        1.0  0.00216  0.75068  0.62627  1.0000
  H   H3        1.0  0.74848  0.75083  0.12624  1.0000
  H   H4        1.0  0.99784  0.24932  0.37373  1.0000
  H   H5        1.0  0.65239  0.33495  0.70511  1.0000
  H   H6        1.0  0.31730  0.66471  0.79492  1.0000
  H   H7        1.0  0.34761  0.66505  0.29489  1.0000
  H   H8        1.0  0.68271  0.33530  0.20508  1.0000
  H   H9        1.0  0.67059  0.60193  0.79997  1.0000
  H   H10       1.0  0.06840  0.39780  0.70011  1.0000
  H   H11       1.0  0.32941  0.39807  0.20003  1.0000
  H   H12       1.0  0.93161  0.60220  0.29989  1.0000
  H   H13       1.0  0.64088  0.74815  0.90350  1.0000
  H   H14       1.0  0.89288  0.25171  0.59655  1.0000
  H   H15       1.0  0.35911  0.25185  0.09650  1.0000
  H   H16       1.0  0.10712  0.74828  0.40345  1.0000
  H   H17       1.0  0.58077  0.91830  0.01965  1.0000
  H   H18       1.0  0.66289  0.08146  0.48033  1.0000
  H   H19       1.0  0.41923  0.08170  0.98035  1.0000
  H   H20       1.0  0.33711  0.91853  0.51966  1.0000
  H   H21       1.0  0.11208  0.56531  0.06554  1.0000
  H   H22       1.0  0.54629  0.43422  0.43447  1.0000
  H   H23       1.0  0.88792  0.43469  0.93446  1.0000
  H   H24       1.0  0.45371  0.56578  0.56553  1.0000
  H   H25       1.0  0.16665  0.39143  0.94951  1.0000
  H   H26       1.0  0.77472  0.60826  0.55049  1.0000
  H   H27       1.0  0.83335  0.60857  0.05049  1.0000
  H   H28       1.0  0.22528  0.39174  0.44951  1.0000
  H   H29       1.0  0.03632  0.29791  0.08695  1.0000
  H   H30       1.0  0.73860  0.70193  0.41309  1.0000
  H   H31       1.0  0.96368  0.70209  0.91305  1.0000
  H   H32       1.0  0.26140  0.29807  0.58691  1.0000
  H   H33       1.0  0.80892  0.16482  0.07183  1.0000
  H   H34       1.0  0.64400  0.83484  0.42828  1.0000
  H   H35       1.0  0.19108  0.83518  0.92817  1.0000
  H   H36       1.0  0.35600  0.16516  0.57172  1.0000
  H   H37       1.0  0.97126  0.13114  0.00873  1.0000
  H   H38       1.0  0.84013  0.86867  0.49136  1.0000
  H   H39       1.0  0.02874  0.86886  0.99127  1.0000
  H   H40       1.0  0.15987  0.13133  0.50864  1.0000
  C   C1        1.0  0.36169  0.30858  0.84063  1.0000
  C   C2        1.0  0.05278  0.69119  0.65944  1.0000
  C   C3        1.0  0.63831  0.69142  0.15937  1.0000
  C   C4        1.0  0.94722  0.30881  0.34056  1.0000
  C   C5        1.0  0.57175  0.35787  0.75460  1.0000
  C   C6        1.0  0.21365  0.64182  0.74546  1.0000
  C   C7        1.0  0.42825  0.64213  0.24540  1.0000
  C   C8        1.0  0.78636  0.35818  0.25454  1.0000
  C   C9        1.0  0.58189  0.49009  0.80079  1.0000
  C   C10       1.0  0.09153  0.50963  0.69928  1.0000
  C   C11       1.0  0.41811  0.50991  0.19921  1.0000
  C   C12       1.0  0.90848  0.49037  0.30072  1.0000
  C   C13       1.0  0.41044  0.55756  0.92019  1.0000
  C   C14       1.0  0.85270  0.44220  0.57981  1.0000
  C   C15       1.0  0.58956  0.44244  0.07981  1.0000
  C   C16       1.0  0.14730  0.55780  0.42019  1.0000
  C   C17       1.0  0.52533  0.70638  0.93907  1.0000
  C   C18       1.0  0.81895  0.29339  0.56095  1.0000
  C   C19       1.0  0.47466  0.29362  0.06093  1.0000
  C   C20       1.0  0.18105  0.70661  0.43905  1.0000
  C   C21       1.0  0.49102  0.80277  0.00401  1.0000
  C   C22       1.0  0.68837  0.19695  0.49595  1.0000
  C   C23       1.0  0.50898  0.19723  0.99599  1.0000
  C   C24       1.0  0.31163  0.80305  0.50405  1.0000
  C   C25       1.0  0.34266  0.75282  0.05014  1.0000
  C   C26       1.0  0.58985  0.24686  0.44984  1.0000
  C   C27       1.0  0.65733  0.24718  0.94986  1.0000
  C   C28       1.0  0.41015  0.75314  0.55016  1.0000
  C   C29       1.0  0.22768  0.60380  0.02974  1.0000
  C   C30       1.0  0.62357  0.39582  0.47026  1.0000
  C   C31       1.0  0.77232  0.39620  0.97026  1.0000
  C   C32       1.0  0.37643  0.60418  0.52974  1.0000
  C   C33       1.0  0.25996  0.50616  0.96520  1.0000
  C   C34       1.0  0.75352  0.49356  0.53480  1.0000
  C   C35       1.0  0.74003  0.49384  0.03480  1.0000
  C   C36       1.0  0.24648  0.50644  0.46520  1.0000
  C   C37       1.0  0.30394  0.85598  0.11920  1.0000
  C   C38       1.0  0.44799  0.14375  0.38075  1.0000
  C   C39       1.0  0.69606  0.14402  0.88080  1.0000
  C   C40       1.0  0.55201  0.85625  0.61925  1.0000
  C   C41       1.0  0.99178  0.10705  0.13601  1.0000
  C   C42       1.0  0.88442  0.89291  0.36405  1.0000
  C   C43       1.0  0.00822  0.89295  0.86399  1.0000
  C   C44       1.0  0.11558  0.10709  0.63595  1.0000
  C   C45       1.0  0.94924  0.18082  0.07274  1.0000
  C   C46       1.0  0.76843  0.81899  0.42733  1.0000
  C   C47       1.0  0.05075  0.81918  0.92725  1.0000
  C   C48       1.0  0.23157  0.18101  0.57267  1.0000
  N   N1        1.0  0.43418  0.24607  0.78009  1.0000
  N   N2        1.0  0.18790  0.75366  0.71997  1.0000
  N   N3        1.0  0.56581  0.75393  0.21991  1.0000
  N   N4        1.0  0.81211  0.24634  0.28003  1.0000
  N   N5        1.0  0.44736  0.45729  0.85577  1.0000
  N   N6        1.0  0.98972  0.54247  0.64431  1.0000
  N   N7        1.0  0.55264  0.54272  0.14423  1.0000
  N   N8        1.0  0.01028  0.45753  0.35569  1.0000
  O   O1        1.0  0.14483  0.81393  0.14151  1.0000
  O   O2        1.0  0.33082  0.18580  0.35855  1.0000
  O   O3        1.0  0.85517  0.18607  0.85849  1.0000
  O   O4        1.0  0.66918  0.81420  0.64145  1.0000
  O   O5        1.0  0.42825  0.98133  0.15270  1.0000
  O   O6        1.0  0.44700  0.01844  0.34713  1.0000
  O   O7        1.0  0.57175  0.01867  0.84730  1.0000
  O   O8        1.0  0.55300  0.98156  0.65287  1.0000
  O   O9        1.0  0.87177  0.98913  0.14895  1.0000
  O   O10       1.0  0.88219  0.01088  0.35127  1.0000
  O   O11       1.0  0.12823  0.01087  0.85105  1.0000
  O   O12       1.0  0.11781  0.98912  0.64873  1.0000
  O   O13       1.0  0.15008  0.16376  0.17346  1.0000
  O   O14       1.0  0.98599  0.83626  0.32650  1.0000
  O   O15       1.0  0.84991  0.83623  0.82654  1.0000
  O   O16       1.0  0.01401  0.16374  0.67350  1.0000
