data_image0
_chemical_formula_structural       Co2H36C16S4O16
_chemical_formula_sum              "Co2 H36 C16 S4 O16"
_cell_length_a       7.69602
_cell_length_b       8.97555
_cell_length_c       10.5726
_cell_angle_alpha    90.0019
_cell_angle_beta     102.451
_cell_angle_gamma    89.9986

_space_group_name_H-M_alt    "P 1"
_space_group_IT_number       1

loop_
  _space_group_symop_operation_xyz
  'x, y, z'

loop_
  _atom_site_type_symbol
  _atom_site_label
  _atom_site_symmetry_multiplicity
  _atom_site_fract_x
  _atom_site_fract_y
  _atom_site_fract_z
  _atom_site_occupancy
  Co  Co1       1.0  0.00000  1.00000  0.00000  1.0000
  Co  Co2       1.0  0.50000  0.50000  0.50000  1.0000
  H   H1        1.0  0.85708  0.56159  0.88818  1.0000
  H   H2        1.0  0.64290  0.06159  0.61183  1.0000
  H   H3        1.0  0.14292  0.43841  0.11182  1.0000
  H   H4        1.0  0.35709  0.93841  0.38817  1.0000
  H   H5        1.0  0.51257  0.03874  0.82880  1.0000
  H   H6        1.0  0.98741  0.53877  0.67120  1.0000
  H   H7        1.0  0.48742  0.96126  0.17120  1.0000
  H   H8        1.0  0.01259  0.46123  0.32880  1.0000
  H   H9        1.0  0.43386  0.19750  0.72576  1.0000
  H   H10       1.0  0.06612  0.69753  0.77425  1.0000
  H   H11       1.0  0.56614  0.80250  0.27424  1.0000
  H   H12       1.0  0.93388  0.30247  0.22575  1.0000
  H   H13       1.0  0.29367  0.03732  0.72304  1.0000
  H   H14       1.0  0.20630  0.53734  0.77696  1.0000
  H   H15       1.0  0.70633  0.96268  0.27696  1.0000
  H   H16       1.0  0.79369  0.46267  0.22304  1.0000
  H   H17       1.0  0.45321  0.31408  0.09083  1.0000
  H   H18       1.0  0.04678  0.81409  0.40918  1.0000
  H   H19       1.0  0.54679  0.68592  0.90917  1.0000
  H   H20       1.0  0.95322  0.18591  0.59082  1.0000
  H   H21       1.0  0.52352  0.36579  0.94462  1.0000
  H   H22       1.0  0.97644  0.86579  0.55539  1.0000
  H   H23       1.0  0.47648  0.63421  0.05538  1.0000
  H   H24       1.0  0.02356  0.13421  0.44461  1.0000
  H   H25       1.0  0.60033  0.19243  0.02518  1.0000
  H   H26       1.0  0.89967  0.69243  0.47482  1.0000
  H   H27       1.0  0.39967  0.80757  0.97482  1.0000
  H   H28       1.0  0.10033  0.30758  0.52518  1.0000
  H   H29       1.0  0.14528  0.89506  0.21227  1.0000
  H   H30       1.0  0.35467  0.39506  0.28775  1.0000
  H   H31       1.0  0.85472  0.10494  0.78773  1.0000
  H   H32       1.0  0.64533  0.60494  0.71225  1.0000
  H   H33       1.0  0.17178  0.07428  0.23455  1.0000
  H   H34       1.0  0.32819  0.57427  0.26548  1.0000
  H   H35       1.0  0.82822  0.92572  0.76545  1.0000
  H   H36       1.0  0.67181  0.42573  0.73452  1.0000
  C   C1        1.0  0.93372  0.47801  0.95143  1.0000
  C   C2        1.0  0.56628  0.97801  0.54857  1.0000
  C   C3        1.0  0.06629  0.52199  0.04857  1.0000
  C   C4        1.0  0.43372  0.02199  0.45143  1.0000
  C   C5        1.0  0.89513  0.31820  0.92215  1.0000
  C   C6        1.0  0.60487  0.81820  0.57784  1.0000
  C   C7        1.0  0.10487  0.68180  0.07785  1.0000
  C   C8        1.0  0.39513  0.18179  0.42215  1.0000
  C   C9        1.0  0.39673  0.10601  0.78369  1.0000
  C   C10       1.0  0.10326  0.60602  0.71632  1.0000
  C   C11       1.0  0.60327  0.89400  0.21631  1.0000
  C   C12       1.0  0.89674  0.39398  0.28368  1.0000
  C   C13       1.0  0.49037  0.27270  0.00268  1.0000
  C   C14       1.0  0.00961  0.77270  0.49733  1.0000
  C   C15       1.0  0.50963  0.72730  0.99732  1.0000
  C   C16       1.0  0.99039  0.22730  0.50267  1.0000
  S   S1        1.0  0.29764  0.18194  0.90794  1.0000
  S   S2        1.0  0.20234  0.68195  0.59207  1.0000
  S   S3        1.0  0.70236  0.81806  0.09206  1.0000
  S   S4        1.0  0.79766  0.31805  0.40793  1.0000
  O   O1        1.0  0.95741  0.22490  0.01125  1.0000
  O   O2        1.0  0.54258  0.72490  0.48874  1.0000
  O   O3        1.0  0.04259  0.77509  0.98875  1.0000
  O   O4        1.0  0.45742  0.27510  0.51126  1.0000
  O   O5        1.0  0.08222  0.99375  0.20394  1.0000
  O   O6        1.0  0.41775  0.49375  0.29607  1.0000
  O   O7        1.0  0.91779  0.00624  0.79606  1.0000
  O   O8        1.0  0.58225  0.50626  0.70393  1.0000
  O   O9        1.0  0.80577  0.28498  0.80875  1.0000
  O   O10       1.0  0.69424  0.78498  0.69124  1.0000
  O   O11       1.0  0.19424  0.71502  0.19126  1.0000
  O   O12       1.0  0.30575  0.21502  0.30876  1.0000
  O   O13       1.0  0.26491  0.04697  0.98943  1.0000
  O   O14       1.0  0.23509  0.54698  0.51059  1.0000
  O   O15       1.0  0.73509  0.95303  0.01057  1.0000
  O   O16       1.0  0.76491  0.45302  0.48941  1.0000
