data_image0
_chemical_formula_structural       Zn2H40C24S4O20
_chemical_formula_sum              "Zn2 H40 C24 S4 O20"
_cell_length_a       5.26194
_cell_length_b       10.1898
_cell_length_c       16.0602
_cell_angle_alpha    99.3657
_cell_angle_beta     90.0007
_cell_angle_gamma    89.9999

_space_group_name_H-M_alt    "P 1"
_space_group_IT_number       1

loop_
  _space_group_symop_operation_xyz
  'x, y, z'

loop_
  _atom_site_type_symbol
  _atom_site_label
  _atom_site_symmetry_multiplicity
  _atom_site_fract_x
  _atom_site_fract_y
  _atom_site_fract_z
  _atom_site_occupancy
  Zn  Zn1       1.0  0.50001  0.50000  0.50000  1.0000
  Zn  Zn2       1.0  0.99999  0.00000  0.99999  1.0000
  H   H1        1.0  0.51776  0.02255  0.38432  1.0000
  H   H2        1.0  0.01775  0.47743  0.11569  1.0000
  H   H3        1.0  0.48225  0.97743  0.61569  1.0000
  H   H4        1.0  0.98224  0.52255  0.88432  1.0000
  H   H5        1.0  0.90395  0.76373  0.44227  1.0000
  H   H6        1.0  0.40401  0.73625  0.05774  1.0000
  H   H7        1.0  0.09602  0.23625  0.55774  1.0000
  H   H8        1.0  0.59604  0.26373  0.94227  1.0000
  H   H9        1.0  0.69843  0.26283  0.66084  1.0000
  H   H10       1.0  0.19839  0.23717  0.83916  1.0000
  H   H11       1.0  0.30162  0.73718  0.33916  1.0000
  H   H12       1.0  0.80157  0.76284  0.16084  1.0000
  H   H13       1.0  0.74618  0.37367  0.75924  1.0000
  H   H14       1.0  0.24618  0.12634  0.74076  1.0000
  H   H15       1.0  0.25383  0.62634  0.24075  1.0000
  H   H16       1.0  0.75382  0.87369  0.25925  1.0000
  H   H17       1.0  0.80303  0.43135  0.65934  1.0000
  H   H18       1.0  0.30303  0.06866  0.84066  1.0000
  H   H19       1.0  0.19698  0.56867  0.34065  1.0000
  H   H20       1.0  0.69696  0.93135  0.15934  1.0000
  H   H21       1.0  0.53645  0.63583  0.71508  1.0000
  H   H22       1.0  0.03651  0.86416  0.78492  1.0000
  H   H23       1.0  0.46349  0.36417  0.28493  1.0000
  H   H24       1.0  0.96350  0.13585  0.21507  1.0000
  H   H25       1.0  0.43361  0.57930  0.81111  1.0000
  H   H26       1.0  0.93365  0.92068  0.68889  1.0000
  H   H27       1.0  0.56636  0.42068  0.18889  1.0000
  H   H28       1.0  0.06636  0.07933  0.31110  1.0000
  H   H29       1.0  0.20271  0.62906  0.74046  1.0000
  H   H30       1.0  0.70277  0.87092  0.75954  1.0000
  H   H31       1.0  0.79724  0.37091  0.25955  1.0000
  H   H32       1.0  0.29724  0.12908  0.24045  1.0000
  H   H33       1.0  0.05867  0.38272  0.44650  1.0000
  H   H34       1.0  0.55865  0.11728  0.05349  1.0000
  H   H35       1.0  0.94135  0.61728  0.55349  1.0000
  H   H36       1.0  0.44133  0.88272  0.94651  1.0000
  H   H37       1.0  0.30812  0.30362  0.40962  1.0000
  H   H38       1.0  0.80812  0.19638  0.09037  1.0000
  H   H39       1.0  0.69189  0.69638  0.59037  1.0000
  H   H40       1.0  0.19188  0.80362  0.90962  1.0000
  C   C1        1.0  0.94733  0.86732  0.46676  1.0000
  C   C2        1.0  0.44742  0.63268  0.03324  1.0000
  C   C3        1.0  0.05258  0.13268  0.53325  1.0000
  C   C4        1.0  0.55268  0.36732  0.96675  1.0000
  C   C5        1.0  0.85227  0.10259  0.47605  1.0000
  C   C6        1.0  0.35236  0.39741  0.02396  1.0000
  C   C7        1.0  0.14767  0.89741  0.52396  1.0000
  C   C8        1.0  0.64773  0.60258  0.97605  1.0000
  C   C9        1.0  0.69308  0.21158  0.45266  1.0000
  C   C10       1.0  0.19307  0.28840  0.04736  1.0000
  C   C11       1.0  0.30694  0.78840  0.54736  1.0000
  C   C12       1.0  0.80691  0.71157  0.95265  1.0000
  C   C13       1.0  0.79819  0.96769  0.44270  1.0000
  C   C14       1.0  0.29824  0.53234  0.05732  1.0000
  C   C15       1.0  0.20177  0.03233  0.55733  1.0000
  C   C16       1.0  0.70180  0.46769  0.94269  1.0000
  C   C17       1.0  0.68947  0.36623  0.69279  1.0000
  C   C18       1.0  0.18946  0.13378  0.80721  1.0000
  C   C19       1.0  0.31056  0.63378  0.30720  1.0000
  C   C20       1.0  0.81052  0.86624  0.19280  1.0000
  C   C21       1.0  0.38943  0.58298  0.74474  1.0000
  C   C22       1.0  0.88949  0.91700  0.75526  1.0000
  C   C23       1.0  0.61052  0.41700  0.25527  1.0000
  C   C24       1.0  0.11051  0.08301  0.24473  1.0000
  S   S1        1.0  0.36354  0.41499  0.68950  1.0000
  S   S2        1.0  0.86355  0.08499  0.81048  1.0000
  S   S3        1.0  0.63647  0.58499  0.31048  1.0000
  S   S4        1.0  0.13644  0.91502  0.18951  1.0000
  O   O1        1.0  0.30252  0.42539  0.59783  1.0000
  O   O2        1.0  0.80251  0.07460  0.90216  1.0000
  O   O3        1.0  0.69749  0.57460  0.40216  1.0000
  O   O4        1.0  0.19748  0.92540  0.09783  1.0000
  O   O5        1.0  0.22351  0.39372  0.41851  1.0000
  O   O6        1.0  0.72350  0.10628  0.08148  1.0000
  O   O7        1.0  0.77651  0.60628  0.58149  1.0000
  O   O8        1.0  0.27650  0.89372  0.91851  1.0000
  O   O9        1.0  0.60177  0.93384  0.38817  1.0000
  O   O10       1.0  0.10179  0.56617  0.11185  1.0000
  O   O11       1.0  0.39821  0.06617  0.61185  1.0000
  O   O12       1.0  0.89823  0.43384  0.88816  1.0000
  O   O13       1.0  0.50199  0.17861  0.40369  1.0000
  O   O14       1.0  0.00200  0.32142  0.09632  1.0000
  O   O15       1.0  0.49801  0.82140  0.59631  1.0000
  O   O16       1.0  0.99799  0.67862  0.90369  1.0000
  O   O17       1.0  0.75079  0.33217  0.48181  1.0000
  O   O18       1.0  0.25085  0.16781  0.01817  1.0000
  O   O19       1.0  0.24917  0.66781  0.51817  1.0000
  O   O20       1.0  0.74922  0.83216  0.98181  1.0000
