data_image0
_chemical_formula_structural       Zn2H36C16S4O16
_chemical_formula_sum              "Zn2 H36 C16 S4 O16"
_cell_length_a       7.77097
_cell_length_b       8.98563
_cell_length_c       10.6026
_cell_angle_alpha    90
_cell_angle_beta     102.68
_cell_angle_gamma    90.0001

_space_group_name_H-M_alt    "P 1"
_space_group_IT_number       1

loop_
  _space_group_symop_operation_xyz
  'x, y, z'

loop_
  _atom_site_type_symbol
  _atom_site_label
  _atom_site_symmetry_multiplicity
  _atom_site_fract_x
  _atom_site_fract_y
  _atom_site_fract_z
  _atom_site_occupancy
  Zn  Zn1       1.0  1.00000  0.00000  1.00000  1.0000
  Zn  Zn2       1.0  0.50000  0.50000  0.50000  1.0000
  H   H1        1.0  0.85815  0.56167  0.88821  1.0000
  H   H2        1.0  0.64186  0.06167  0.61179  1.0000
  H   H3        1.0  0.14186  0.43833  0.11179  1.0000
  H   H4        1.0  0.35815  0.93833  0.38821  1.0000
  H   H5        1.0  0.39853  0.80638  0.97601  1.0000
  H   H6        1.0  0.10147  0.30638  0.52399  1.0000
  H   H7        1.0  0.60147  0.19362  0.02399  1.0000
  H   H8        1.0  0.89853  0.69362  0.47601  1.0000
  H   H9        1.0  0.47690  0.63365  0.05666  1.0000
  H   H10       1.0  0.02310  0.13365  0.44334  1.0000
  H   H11       1.0  0.52310  0.36635  0.94334  1.0000
  H   H12       1.0  0.97690  0.86635  0.55666  1.0000
  H   H13       1.0  0.54319  0.68503  0.90978  1.0000
  H   H14       1.0  0.95681  0.18502  0.59022  1.0000
  H   H15       1.0  0.45681  0.31497  0.09022  1.0000
  H   H16       1.0  0.04319  0.81497  0.40978  1.0000
  H   H17       1.0  0.70596  0.96212  0.27637  1.0000
  H   H18       1.0  0.79404  0.46212  0.22363  1.0000
  H   H19       1.0  0.29404  0.03788  0.72363  1.0000
  H   H20       1.0  0.20596  0.53788  0.77637  1.0000
  H   H21       1.0  0.56801  0.80153  0.27414  1.0000
  H   H22       1.0  0.93199  0.30153  0.22586  1.0000
  H   H23       1.0  0.43198  0.19847  0.72586  1.0000
  H   H24       1.0  0.06801  0.69847  0.77414  1.0000
  H   H25       1.0  0.48796  0.96023  0.17174  1.0000
  H   H26       1.0  0.01203  0.46023  0.32826  1.0000
  H   H27       1.0  0.51203  0.03977  0.82826  1.0000
  H   H28       1.0  0.98796  0.53977  0.67174  1.0000
  H   H29       1.0  0.17117  0.07421  0.23566  1.0000
  H   H30       1.0  0.32883  0.57421  0.26434  1.0000
  H   H31       1.0  0.82883  0.92579  0.76434  1.0000
  H   H32       1.0  0.67117  0.42579  0.73566  1.0000
  H   H33       1.0  0.14391  0.89606  0.21400  1.0000
  H   H34       1.0  0.35609  0.39606  0.28601  1.0000
  H   H35       1.0  0.85609  0.10394  0.78601  1.0000
  H   H36       1.0  0.64391  0.60394  0.71400  1.0000
  C   C1        1.0  0.93424  0.47828  0.95147  1.0000
  C   C2        1.0  0.56578  0.97828  0.54854  1.0000
  C   C3        1.0  0.06577  0.52172  0.04853  1.0000
  C   C4        1.0  0.43423  0.02172  0.45146  1.0000
  C   C5        1.0  0.89587  0.31836  0.92200  1.0000
  C   C6        1.0  0.60413  0.81836  0.57800  1.0000
  C   C7        1.0  0.10413  0.68164  0.07800  1.0000
  C   C8        1.0  0.39587  0.18165  0.42200  1.0000
  C   C9        1.0  0.50795  0.72654  0.99809  1.0000
  C   C10       1.0  0.99205  0.22654  0.50191  1.0000
  C   C11       1.0  0.49205  0.27346  0.00191  1.0000
  C   C12       1.0  0.00795  0.77346  0.49809  1.0000
  C   C13       1.0  0.60346  0.89327  0.21618  1.0000
  C   C14       1.0  0.89654  0.39327  0.28382  1.0000
  C   C15       1.0  0.39654  0.10673  0.78382  1.0000
  C   C16       1.0  0.10346  0.60673  0.71618  1.0000
  S   S1        1.0  0.69975  0.81828  0.09119  1.0000
  S   S2        1.0  0.80024  0.31828  0.40881  1.0000
  S   S3        1.0  0.30024  0.18172  0.90881  1.0000
  S   S4        1.0  0.19976  0.68172  0.59119  1.0000
  O   O1        1.0  0.80789  0.28534  0.80879  1.0000
  O   O2        1.0  0.69212  0.78534  0.69121  1.0000
  O   O3        1.0  0.19211  0.71466  0.19121  1.0000
  O   O4        1.0  0.30789  0.21466  0.30879  1.0000
  O   O5        1.0  0.08127  0.99430  0.20668  1.0000
  O   O6        1.0  0.41873  0.49430  0.29332  1.0000
  O   O7        1.0  0.91873  0.00570  0.79332  1.0000
  O   O8        1.0  0.58127  0.50570  0.70668  1.0000
  O   O9        1.0  0.95729  0.22551  0.01133  1.0000
  O   O10       1.0  0.54272  0.72552  0.48867  1.0000
  O   O11       1.0  0.04272  0.77449  0.98867  1.0000
  O   O12       1.0  0.45728  0.27448  0.51133  1.0000
  O   O13       1.0  0.73059  0.95235  0.00967  1.0000
  O   O14       1.0  0.76941  0.45236  0.49033  1.0000
  O   O15       1.0  0.26941  0.04764  0.99033  1.0000
  O   O16       1.0  0.23059  0.54765  0.50967  1.0000
