data_image0
_chemical_formula_structural       CoH20C24N8Cl2O4
_chemical_formula_sum              "Co1 H20 C24 N8 Cl2 O4"
_cell_length_a       8.27572
_cell_length_b       10.0037
_cell_length_c       9.93781
_cell_angle_alpha    56.6468
_cell_angle_beta     86.1015
_cell_angle_gamma    81.1663

_space_group_name_H-M_alt    "P 1"
_space_group_IT_number       1

loop_
  _space_group_symop_operation_xyz
  'x, y, z'

loop_
  _atom_site_type_symbol
  _atom_site_label
  _atom_site_symmetry_multiplicity
  _atom_site_fract_x
  _atom_site_fract_y
  _atom_site_fract_z
  _atom_site_occupancy
  Co  Co1       1.0  0.99999  0.50000  0.50000  1.0000
  H   H1        1.0  0.96476  0.85189  0.30568  1.0000
  H   H2        1.0  0.03526  0.14812  0.69432  1.0000
  H   H3        1.0  0.83545  0.50955  0.76945  1.0000
  H   H4        1.0  0.16453  0.49046  0.23054  1.0000
  H   H5        1.0  0.78540  0.33698  0.77735  1.0000
  H   H6        1.0  0.21459  0.66302  0.22266  1.0000
  H   H7        1.0  0.79875  0.44793  0.31024  1.0000
  H   H8        1.0  0.20125  0.55207  0.68976  1.0000
  H   H9        1.0  0.84882  0.07694  0.33989  1.0000
  H   H10       1.0  0.15119  0.92307  0.66011  1.0000
  H   H11       1.0  0.54599  0.32247  0.34984  1.0000
  H   H12       1.0  0.45403  0.67751  0.65017  1.0000
  H   H13       1.0  0.70177  0.01318  0.59468  1.0000
  H   H14       1.0  0.29824  0.98683  0.40532  1.0000
  H   H15       1.0  0.62717  0.59135  0.89814  1.0000
  H   H16       1.0  0.37283  0.40866  0.10185  1.0000
  H   H17       1.0  0.39965  0.16415  0.87863  1.0000
  H   H18       1.0  0.60034  0.83585  0.12137  1.0000
  H   H19       1.0  0.39260  0.22483  0.60954  1.0000
  H   H20       1.0  0.60740  0.77515  0.39046  1.0000
  C   C1        1.0  0.90652  0.82848  0.41669  1.0000
  C   C2        1.0  0.09349  0.17152  0.58331  1.0000
  C   C3        1.0  0.82767  0.63628  0.67281  1.0000
  C   C4        1.0  0.17233  0.36373  0.32718  1.0000
  C   C5        1.0  0.72113  0.34517  0.68114  1.0000
  C   C6        1.0  0.27886  0.65483  0.31887  1.0000
  C   C7        1.0  0.73376  0.39568  0.42336  1.0000
  C   C8        1.0  0.26624  0.60431  0.57666  1.0000
  C   C9        1.0  0.83840  0.95240  0.43657  1.0000
  C   C10       1.0  0.16161  0.04761  0.56343  1.0000
  C   C11       1.0  0.74950  0.75555  0.69741  1.0000
  C   C12       1.0  0.25050  0.24446  0.30259  1.0000
  C   C13       1.0  0.57201  0.28581  0.70773  1.0000
  C   C14       1.0  0.42799  0.71419  0.29227  1.0000
  C   C15       1.0  0.59150  0.32826  0.44637  1.0000
  C   C16       1.0  0.40851  0.67173  0.55364  1.0000
  C   C17       1.0  0.75690  0.91824  0.57712  1.0000
  C   C18       1.0  0.24312  0.08177  0.42287  1.0000
  C   C19       1.0  0.50668  0.27446  0.58896  1.0000
  C   C20       1.0  0.49331  0.72553  0.41104  1.0000
  C   C21       1.0  0.61800  0.79197  0.90655  1.0000
  C   C22       1.0  0.38200  0.20805  0.09344  1.0000
  C   C23       1.0  0.49106  0.29252  0.94663  1.0000
  C   C24       1.0  0.50893  0.70748  0.05337  1.0000
  N   N1        1.0  0.09990  0.32910  0.46602  1.0000
  N   N2        1.0  0.90010  0.67090  0.53398  1.0000
  N   N3        1.0  0.79743  0.40520  0.53930  1.0000
  N   N4        1.0  0.20257  0.59479  0.46071  1.0000
  N   N5        1.0  0.66330  0.70396  0.84032  1.0000
  N   N6        1.0  0.33670  0.29605  0.15968  1.0000
  N   N7        1.0  0.49000  0.23399  0.85233  1.0000
  N   N8        1.0  0.50999  0.76600  0.14767  1.0000
  Cl  Cl1       1.0  0.08387  0.30454  0.80840  1.0000
  Cl  Cl2       1.0  0.91613  0.69546  0.19159  1.0000
  O   O1        1.0  0.65188  0.92763  0.85629  1.0000
  O   O2        1.0  0.34813  0.07238  0.14372  1.0000
  O   O3        1.0  0.57161  0.39753  0.92517  1.0000
  O   O4        1.0  0.42837  0.60248  0.07480  1.0000
