data_image0
_chemical_formula_structural       Cu2H16C12N8Cl4
_chemical_formula_sum              "Cu2 H16 C12 N8 Cl4"
_cell_length_a       3.82767
_cell_length_b       8.84313
_cell_length_c       13.6657
_cell_angle_alpha    85.6385
_cell_angle_beta     86.1573
_cell_angle_gamma    78.0283

_space_group_name_H-M_alt    "P 1"
_space_group_IT_number       1

loop_
  _space_group_symop_operation_xyz
  'x, y, z'

loop_
  _atom_site_type_symbol
  _atom_site_label
  _atom_site_symmetry_multiplicity
  _atom_site_fract_x
  _atom_site_fract_y
  _atom_site_fract_z
  _atom_site_occupancy
  Cu  Cu1       1.0  0.48590  0.49829  0.24990  1.0000
  Cu  Cu2       1.0  0.51207  0.50205  0.74990  1.0000
  H   H1        1.0  0.04797  0.84933  0.23464  1.0000
  H   H2        1.0  0.95362  0.15166  0.76586  1.0000
  H   H3        1.0  0.69835  0.59565  0.43840  1.0000
  H   H4        1.0  0.30156  0.40265  0.56147  1.0000
  H   H5        1.0  0.47385  0.84731  0.52201  1.0000
  H   H6        1.0  0.52773  0.15036  0.47880  1.0000
  H   H7        1.0  0.03319  0.03750  0.38832  1.0000
  H   H8        1.0  0.96963  0.96194  0.61297  1.0000
  H   H9        1.0  0.80734  0.40248  0.05365  1.0000
  H   H10       1.0  0.18985  0.59855  0.94580  1.0000
  H   H11       1.0  0.38557  0.14437  0.27216  1.0000
  H   H12       1.0  0.61509  0.85559  0.72739  1.0000
  H   H13       1.0  0.57838  0.95527  0.11721  1.0000
  H   H14       1.0  0.42215  0.04517  0.88204  1.0000
  H   H15       1.0  0.84878  0.14735  0.97313  1.0000
  H   H16       1.0  0.14927  0.85390  0.02615  1.0000
  C   C1        1.0  0.18452  0.82580  0.30272  1.0000
  C   C2        1.0  0.81689  0.17441  0.69776  1.0000
  C   C3        1.0  0.39267  0.82695  0.45061  1.0000
  C   C4        1.0  0.60847  0.17152  0.55009  1.0000
  C   C5        1.0  0.17695  0.91914  0.38193  1.0000
  C   C6        1.0  0.82507  0.08026  0.61893  1.0000
  C   C7        1.0  0.50687  0.16859  0.20045  1.0000
  C   C8        1.0  0.49275  0.83173  0.79901  1.0000
  C   C9        1.0  0.60437  0.07461  0.12070  1.0000
  C   C10       1.0  0.39521  0.92594  0.87864  1.0000
  C   C11       1.0  0.74094  0.16767  0.04734  1.0000
  C   C12       1.0  0.25730  0.83328  0.95199  1.0000
  N   N1        1.0  0.39172  0.68615  0.32242  1.0000
  N   N2        1.0  0.60851  0.31371  0.67773  1.0000
  N   N3        1.0  0.51295  0.68843  0.41241  1.0000
  N   N4        1.0  0.48711  0.31031  0.58785  1.0000
  N   N5        1.0  0.57967  0.30964  0.17711  1.0000
  N   N6        1.0  0.41880  0.69092  0.82243  1.0000
  N   N7        1.0  0.72077  0.30635  0.08395  1.0000
  N   N8        1.0  0.27689  0.69458  0.91549  1.0000
  Cl  Cl1       1.0  0.11479  0.39050  0.36955  1.0000
  Cl  Cl2       1.0  0.88868  0.60915  0.63106  1.0000
  Cl  Cl3       1.0  0.83881  0.61823  0.13201  1.0000
  Cl  Cl4       1.0  0.15896  0.38270  0.86798  1.0000
