data_image0
_chemical_formula_structural       Ag4H16C24N4O8
_chemical_formula_sum              "Ag4 H16 C24 N4 O8"
_cell_length_a       3.7451
_cell_length_b       10.9508
_cell_length_c       14.1104
_cell_angle_alpha    89.9998
_cell_angle_beta     92.3648
_cell_angle_gamma    89.9998

_space_group_name_H-M_alt    "P 1"
_space_group_IT_number       1

loop_
  _space_group_symop_operation_xyz
  'x, y, z'

loop_
  _atom_site_type_symbol
  _atom_site_label
  _atom_site_symmetry_multiplicity
  _atom_site_fract_x
  _atom_site_fract_y
  _atom_site_fract_z
  _atom_site_occupancy
  Ag  Ag1       1.0  0.67441  0.99094  0.39792  1.0000
  Ag  Ag2       1.0  0.32556  0.49093  0.10208  1.0000
  Ag  Ag3       1.0  0.32551  0.00906  0.60209  1.0000
  Ag  Ag4       1.0  0.67447  0.50907  0.89791  1.0000
  H   H1        1.0  0.77912  0.46456  0.45877  1.0000
  H   H2        1.0  0.22086  0.96456  0.04123  1.0000
  H   H3        1.0  0.22087  0.53544  0.54123  1.0000
  H   H4        1.0  0.77913  0.03545  0.95877  1.0000
  H   H5        1.0  0.50882  0.56205  0.31542  1.0000
  H   H6        1.0  0.49115  0.06206  0.18458  1.0000
  H   H7        1.0  0.49117  0.43794  0.68458  1.0000
  H   H8        1.0  0.50881  0.93795  0.81542  1.0000
  H   H9        1.0  0.76608  0.26636  0.14608  1.0000
  H   H10       1.0  0.23393  0.76636  0.35392  1.0000
  H   H11       1.0  0.23393  0.73363  0.85392  1.0000
  H   H12       1.0  0.76607  0.23363  0.64608  1.0000
  H   H13       1.0  0.04436  0.15565  0.28525  1.0000
  H   H14       1.0  0.95566  0.65565  0.21475  1.0000
  H   H15       1.0  0.95563  0.84435  0.71475  1.0000
  H   H16       1.0  0.04435  0.34435  0.78524  1.0000
  C   C1        1.0  0.09450  0.23697  0.47059  1.0000
  C   C2        1.0  0.90551  0.73697  0.02942  1.0000
  C   C3        1.0  0.90552  0.76303  0.52942  1.0000
  C   C4        1.0  0.09452  0.26303  0.97058  1.0000
  C   C5        1.0  0.92875  0.30008  0.38425  1.0000
  C   C6        1.0  0.07125  0.80008  0.11575  1.0000
  C   C7        1.0  0.07125  0.69992  0.61575  1.0000
  C   C8        1.0  0.92877  0.19992  0.88424  1.0000
  C   C9        1.0  0.78096  0.41664  0.39141  1.0000
  C   C10       1.0  0.21904  0.91664  0.10859  1.0000
  C   C11       1.0  0.21904  0.58336  0.60859  1.0000
  C   C12       1.0  0.78097  0.08336  0.89141  1.0000
  C   C13       1.0  0.62892  0.47177  0.31076  1.0000
  C   C14       1.0  0.37106  0.97178  0.18923  1.0000
  C   C15       1.0  0.37108  0.52822  0.68923  1.0000
  C   C16       1.0  0.62892  0.02823  0.81077  1.0000
  C   C17       1.0  0.77236  0.30653  0.21673  1.0000
  C   C18       1.0  0.22765  0.80653  0.28327  1.0000
  C   C19       1.0  0.22765  0.69347  0.78327  1.0000
  C   C20       1.0  0.77235  0.19347  0.71673  1.0000
  C   C21       1.0  0.92428  0.24524  0.29461  1.0000
  C   C22       1.0  0.07573  0.74525  0.20539  1.0000
  C   C23       1.0  0.07572  0.75475  0.70539  1.0000
  C   C24       1.0  0.92429  0.25475  0.79461  1.0000
  N   N1        1.0  0.62204  0.41816  0.22455  1.0000
  N   N2        1.0  0.37797  0.91817  0.27545  1.0000
  N   N3        1.0  0.37798  0.58183  0.77545  1.0000
  N   N4        1.0  0.62203  0.08183  0.72455  1.0000
  O   O1        1.0  0.08020  0.11841  0.46956  1.0000
  O   O2        1.0  0.91977  0.61841  0.03044  1.0000
  O   O3        1.0  0.91973  0.88159  0.53045  1.0000
  O   O4        1.0  0.08028  0.38160  0.96954  1.0000
  O   O5        1.0  0.23719  0.29948  0.53547  1.0000
  O   O6        1.0  0.76279  0.79950  0.96453  1.0000
  O   O7        1.0  0.76287  0.70051  0.46452  1.0000
  O   O8        1.0  0.23716  0.20051  0.03548  1.0000
