data_image0
_chemical_formula_structural       Cu4H28C40N12O16
_chemical_formula_sum              "Cu4 H28 C40 N12 O16"
_cell_length_a       5.2787
_cell_length_b       11.8956
_cell_length_c       16.4199
_cell_angle_alpha    89.9996
_cell_angle_beta     89.9991
_cell_angle_gamma    89.9973

_space_group_name_H-M_alt    "P 1"
_space_group_IT_number       1

loop_
  _space_group_symop_operation_xyz
  'x, y, z'

loop_
  _atom_site_type_symbol
  _atom_site_label
  _atom_site_symmetry_multiplicity
  _atom_site_fract_x
  _atom_site_fract_y
  _atom_site_fract_z
  _atom_site_occupancy
  Cu  Cu1       1.0  0.29452  0.93459  0.45240  1.0000
  Cu  Cu2       1.0  0.20557  0.06538  0.95239  1.0000
  Cu  Cu3       1.0  0.79454  0.56542  0.54760  1.0000
  Cu  Cu4       1.0  0.70544  0.43457  0.04759  1.0000
  H   H1        1.0  0.38879  0.56365  0.32209  1.0000
  H   H2        1.0  0.11113  0.43635  0.82214  1.0000
  H   H3        1.0  0.88883  0.93637  0.67787  1.0000
  H   H4        1.0  0.61123  0.06365  0.17792  1.0000
  H   H5        1.0  0.76956  0.61938  0.23702  1.0000
  H   H6        1.0  0.73039  0.38063  0.73708  1.0000
  H   H7        1.0  0.26960  0.88064  0.76294  1.0000
  H   H8        1.0  0.23043  0.11937  0.26298  1.0000
  H   H9        1.0  0.92605  0.81915  0.24467  1.0000
  H   H10       1.0  0.57399  0.18085  0.74468  1.0000
  H   H11       1.0  0.42603  0.68086  0.75534  1.0000
  H   H12       1.0  0.07392  0.31913  0.25533  1.0000
  H   H13       1.0  0.45235  0.05912  0.60653  1.0000
  H   H14       1.0  0.04772  0.94088  0.10654  1.0000
  H   H15       1.0  0.95231  0.44089  0.39345  1.0000
  H   H16       1.0  0.54766  0.55909  0.89346  1.0000
  H   H17       1.0  0.19814  0.24810  0.66376  1.0000
  H   H18       1.0  0.30193  0.75190  0.16377  1.0000
  H   H19       1.0  0.69806  0.25194  0.33622  1.0000
  H   H20       1.0  0.80185  0.74808  0.83621  1.0000
  H   H21       1.0  0.77160  0.25688  0.56730  1.0000
  H   H22       1.0  0.72842  0.74310  0.06730  1.0000
  H   H23       1.0  0.27155  0.24317  0.43270  1.0000
  H   H24       1.0  0.22840  0.75685  0.93268  1.0000
  H   H25       1.0  0.80362  0.09032  0.46938  1.0000
  H   H26       1.0  0.69644  0.90965  0.96938  1.0000
  H   H27       1.0  0.30363  0.40972  0.53063  1.0000
  H   H28       1.0  0.19634  0.59029  0.03062  1.0000
  C   C1        1.0  0.12782  0.71340  0.42844  1.0000
  C   C2        1.0  0.37215  0.28659  0.92845  1.0000
  C   C3        1.0  0.62785  0.78661  0.57156  1.0000
  C   C4        1.0  0.87219  0.21338  0.07157  1.0000
  C   C5        1.0  0.34654  0.72993  0.37080  1.0000
  C   C6        1.0  0.15346  0.27008  0.87080  1.0000
  C   C7        1.0  0.84653  0.77008  0.62920  1.0000
  C   C8        1.0  0.65349  0.22992  0.12920  1.0000
  C   C9        1.0  0.46186  0.64916  0.32191  1.0000
  C   C10       1.0  0.03808  0.35086  0.82194  1.0000
  C   C11       1.0  0.96190  0.85087  0.67807  1.0000
  C   C12       1.0  0.53810  0.14914  0.17808  1.0000
  C   C13       1.0  0.67159  0.68065  0.27506  1.0000
  C   C14       1.0  0.82844  0.31937  0.77509  1.0000
  C   C15       1.0  0.17157  0.81938  0.72492  1.0000
  C   C16       1.0  0.32835  0.18065  0.22494  1.0000
  C   C17       1.0  0.76057  0.79129  0.27872  1.0000
  C   C18       1.0  0.73949  0.20871  0.77874  1.0000
  C   C19       1.0  0.26052  0.70872  0.72127  1.0000
  C   C20       1.0  0.23939  0.29127  0.22127  1.0000
  C   C21       1.0  0.63804  0.86719  0.32987  1.0000
  C   C22       1.0  0.86201  0.13281  0.82987  1.0000
  C   C23       1.0  0.13798  0.63281  0.67015  1.0000
  C   C24       1.0  0.36198  0.36717  0.17015  1.0000
  C   C25       1.0  0.72194  0.98506  0.34928  1.0000
  C   C26       1.0  0.77815  0.01494  0.84928  1.0000
  C   C27       1.0  0.22186  0.51495  0.65076  1.0000
  C   C28       1.0  0.27806  0.48503  0.15073  1.0000
  C   C29       1.0  0.27619  0.09693  0.58659  1.0000
  C   C30       1.0  0.22384  0.90308  0.08659  1.0000
  C   C31       1.0  0.77617  0.40309  0.41340  1.0000
  C   C32       1.0  0.72381  0.59692  0.91339  1.0000
  C   C33       1.0  0.14362  0.19064  0.61574  1.0000
  C   C34       1.0  0.35638  0.80937  0.11573  1.0000
  C   C35       1.0  0.64356  0.30939  0.38425  1.0000
  C   C36       1.0  0.85639  0.69062  0.88423  1.0000
  C   C37       1.0  0.92813  0.19790  0.56714  1.0000
  C   C38       1.0  0.57189  0.80209  0.06713  1.0000
  C   C39       1.0  0.42808  0.30215  0.43285  1.0000
  C   C40       1.0  0.07188  0.69787  0.93283  1.0000
  N   N1        1.0  0.15013  0.05023  0.52368  1.0000
  N   N2        1.0  0.34994  0.94978  0.02368  1.0000
  N   N3        1.0  0.65015  0.44978  0.47631  1.0000
  N   N4        1.0  0.84984  0.55022  0.97631  1.0000
  N   N5        1.0  0.43548  0.83509  0.37268  1.0000
  N   N6        1.0  0.06457  0.16493  0.87269  1.0000
  N   N7        1.0  0.93545  0.66492  0.62732  1.0000
  N   N8        1.0  0.56451  0.33509  0.12733  1.0000
  N   N9        1.0  0.93923  0.11301  0.51270  1.0000
  N   N10       1.0  0.56080  0.88699  0.01269  1.0000
  N   N11       1.0  0.43922  0.38703  0.48730  1.0000
  N   N12       1.0  0.06075  0.61298  0.98729  1.0000
  O   O1        1.0  0.58331  0.03539  0.40428  1.0000
  O   O2        1.0  0.91673  0.96460  0.90429  1.0000
  O   O3        1.0  0.08333  0.46461  0.59573  1.0000
  O   O4        1.0  0.41670  0.53540  0.09573  1.0000
  O   O5        1.0  0.03946  0.61681  0.43835  1.0000
  O   O6        1.0  0.46056  0.38317  0.93836  1.0000
  O   O7        1.0  0.53943  0.88318  0.56164  1.0000
  O   O8        1.0  0.96057  0.11680  0.06166  1.0000
  O   O9        1.0  0.04713  0.80360  0.46368  1.0000
  O   O10       1.0  0.45293  0.19640  0.96369  1.0000
  O   O11       1.0  0.54709  0.69643  0.53631  1.0000
  O   O12       1.0  0.95290  0.30358  0.03632  1.0000
  O   O13       1.0  0.91345  0.02643  0.31700  1.0000
  O   O14       1.0  0.58670  0.97354  0.81700  1.0000
  O   O15       1.0  0.41326  0.47352  0.68306  1.0000
  O   O16       1.0  0.08654  0.52642  0.18299  1.0000
