data_image0
_chemical_formula_structural       K2CuH47C35N7O9
_chemical_formula_sum              "K2 Cu1 H47 C35 N7 O9"
_cell_length_a       7.30969
_cell_length_b       12.2677
_cell_length_c       12.3902
_cell_angle_alpha    106.297
_cell_angle_beta     106.9
_cell_angle_gamma    100.426

_space_group_name_H-M_alt    "P 1"
_space_group_IT_number       1

loop_
  _space_group_symop_operation_xyz
  'x, y, z'

loop_
  _atom_site_type_symbol
  _atom_site_label
  _atom_site_symmetry_multiplicity
  _atom_site_fract_x
  _atom_site_fract_y
  _atom_site_fract_z
  _atom_site_occupancy
  K   K1        1.0  0.33349  0.88260  0.20982  1.0000
  K   K2        1.0  0.82086  0.84716  0.17959  1.0000
  Cu  Cu1       1.0  0.98950  0.99407  0.00456  1.0000
  H   H1        1.0  0.26972  0.08724  0.40313  1.0000
  H   H2        1.0  0.47100  0.28592  0.55764  1.0000
  H   H3        1.0  0.50307  0.46510  0.49867  1.0000
  H   H4        1.0  0.32545  0.43955  0.28206  1.0000
  H   H5        1.0  0.86797  0.33193  0.93833  1.0000
  H   H6        1.0  0.64327  0.30520  0.73422  1.0000
  H   H7        1.0  0.51936  0.10443  0.56949  1.0000
  H   H8        1.0  0.63296  0.93834  0.61225  1.0000
  H   H9        1.0  0.84949  0.64803  0.59986  1.0000
  H   H10       1.0  0.87215  0.45732  0.63010  1.0000
  H   H11       1.0  0.95732  0.45257  0.84026  1.0000
  H   H12       1.0  0.00699  0.63309  0.01052  1.0000
  H   H13       1.0  0.35321  0.89435  0.88933  1.0000
  H   H14       1.0  0.65762  0.24512  0.04953  1.0000
  H   H15       1.0  0.48564  0.21859  0.12341  1.0000
  H   H16       1.0  0.68949  0.15441  0.14028  1.0000
  H   H17       1.0  0.43927  0.14109  0.83217  1.0000
  H   H18       1.0  0.25157  0.00667  0.79542  1.0000
  H   H19       1.0  0.23809  0.14271  0.88767  1.0000
  H   H20       1.0  0.35058  0.51257  0.10658  1.0000
  H   H21       1.0  0.35522  0.59374  0.81346  1.0000
  H   H22       1.0  0.46730  0.71336  0.95515  1.0000
  H   H23       1.0  0.61441  0.62491  0.89962  1.0000
  H   H24       1.0  0.51837  0.39951  0.90153  1.0000
  H   H25       1.0  0.31516  0.36909  0.95319  1.0000
  H   H26       1.0  0.27177  0.39078  0.81245  1.0000
  H   H27       1.0  0.98668  0.49038  0.17271  1.0000
  H   H28       1.0  0.85904  0.68230  0.44451  1.0000
  H   H29       1.0  0.70214  0.67171  0.29909  1.0000
  H   H30       1.0  0.63031  0.56710  0.36502  1.0000
  H   H31       1.0  0.99197  0.48590  0.43764  1.0000
  H   H32       1.0  0.75107  0.39183  0.33593  1.0000
  H   H33       1.0  0.96284  0.39486  0.29008  1.0000
  H   H34       1.0  0.12682  0.88374  0.54330  1.0000
  H   H35       1.0  0.56608  0.74530  0.49923  1.0000
  H   H36       1.0  0.35398  0.61689  0.42688  1.0000
  H   H37       1.0  0.37639  0.72898  0.36138  1.0000
  H   H38       1.0  0.46216  0.79336  0.69363  1.0000
  H   H39       1.0  0.20517  0.79267  0.66162  1.0000
  H   H40       1.0  0.26604  0.65807  0.61073  1.0000
  H   H41       1.0  0.90507  0.97264  0.53318  1.0000
  H   H42       1.0  0.74896  0.13364  0.33628  1.0000
  H   H43       1.0  0.75934  0.24814  0.46599  1.0000
  H   H44       1.0  0.97164  0.25477  0.42009  1.0000
  H   H45       1.0  0.19069  0.25798  0.61376  1.0000
  H   H46       1.0  0.00343  0.24167  0.67999  1.0000
  H   H47       1.0  0.13459  0.13298  0.65742  1.0000
  C   C1        1.0  0.19118  0.14988  0.25483  1.0000
  C   C2        1.0  0.28710  0.16621  0.37841  1.0000
  C   C3        1.0  0.39712  0.27711  0.46419  1.0000
  C   C4        1.0  0.41533  0.37801  0.43137  1.0000
  C   C5        1.0  0.31863  0.36378  0.31184  1.0000
  C   C6        1.0  0.20430  0.25286  0.22170  1.0000
  C   C7        1.0  0.10238  0.25673  0.09981  1.0000
  C   C8        1.0  0.87667  0.15085  0.89345  1.0000
  C   C9        1.0  0.81441  0.24574  0.86696  1.0000
  C   C10       1.0  0.68744  0.22953  0.75143  1.0000
  C   C11       1.0  0.61902  0.11848  0.65990  1.0000
  C   C12       1.0  0.68198  0.02415  0.68363  1.0000
  C   C13       1.0  0.81071  0.03810  0.79864  1.0000
  C   C14       1.0  0.89310  0.85286  0.75042  1.0000
  C   C15       1.0  0.91674  0.74766  0.78489  1.0000
  C   C16       1.0  0.88610  0.64271  0.68955  1.0000
  C   C17       1.0  0.89921  0.53684  0.70652  1.0000
  C   C18       1.0  0.94535  0.53418  0.82373  1.0000
  C   C19       1.0  0.97614  0.63531  0.91971  1.0000
  C   C20       1.0  0.96314  0.74442  0.90398  1.0000
  C   C21       1.0  0.45130  0.96553  0.97592  1.0000
  C   C22       1.0  0.57977  0.17959  0.07801  1.0000
  C   C23       1.0  0.34079  0.09256  0.86584  1.0000
  C   C24       1.0  0.40195  0.58452  0.07549  1.0000
  C   C25       1.0  0.46675  0.62404  0.90526  1.0000
  C   C26       1.0  0.37847  0.41883  0.90512  1.0000
  C   C27       1.0  0.91452  0.55755  0.20728  1.0000
  C   C28       1.0  0.75690  0.62076  0.35454  1.0000
  C   C29       1.0  0.89176  0.44845  0.34225  1.0000
  C   C30       1.0  0.20026  0.84765  0.48051  1.0000
  C   C31       1.0  0.40472  0.71272  0.44627  1.0000
  C   C32       1.0  0.30913  0.75349  0.62666  1.0000
  C   C33       1.0  0.84212  0.01098  0.46498  1.0000
  C   C34       1.0  0.84635  0.19560  0.42649  1.0000
  C   C35       1.0  0.07073  0.19430  0.61968  1.0000
  N   N1        1.0  0.99221  0.15362  0.00713  1.0000
  N   N2        1.0  0.86858  0.94540  0.83069  1.0000
  N   N3        1.0  0.45895  0.07461  0.97272  1.0000
  N   N4        1.0  0.41274  0.54445  0.96565  1.0000
  N   N5        1.0  0.85409  0.54207  0.29653  1.0000
  N   N6        1.0  0.29662  0.77197  0.51405  1.0000
  N   N7        1.0  0.92224  0.12848  0.50003  1.0000
  O   O1        1.0  0.09867  0.03977  0.17916  1.0000
  O   O2        1.0  0.99785  0.83626  0.00230  1.0000
  O   O3        1.0  0.12253  0.35737  0.08876  1.0000
  O   O4        1.0  0.89369  0.85093  0.64757  1.0000
  O   O5        1.0  0.54193  0.94273  0.06546  1.0000
  O   O6        1.0  0.44232  0.69154  0.13774  1.0000
  O   O7        1.0  0.89275  0.63772  0.16581  1.0000
  O   O8        1.0  0.18881  0.87495  0.38953  1.0000
  O   O9        1.0  0.70733  0.94829  0.36590  1.0000
