data_image0
_chemical_formula_structural       La2H24C36N6O12
_chemical_formula_sum              "La2 H24 C36 N6 O12"
_cell_length_a       7.78671
_cell_length_b       11.0065
_cell_length_c       11.3871
_cell_angle_alpha    118.03
_cell_angle_beta     90
_cell_angle_gamma    90

_space_group_name_H-M_alt    "P 1"
_space_group_IT_number       1

loop_
  _space_group_symop_operation_xyz
  'x, y, z'

loop_
  _atom_site_type_symbol
  _atom_site_label
  _atom_site_symmetry_multiplicity
  _atom_site_fract_x
  _atom_site_fract_y
  _atom_site_fract_z
  _atom_site_occupancy
  La  La1       1.0  0.34040  0.48480  0.52956  1.0000
  La  La2       1.0  0.84040  0.51520  0.47044  1.0000
  H   H1        1.0  0.08104  0.39495  0.73065  1.0000
  H   H2        1.0  0.58104  0.60505  0.26935  1.0000
  H   H3        1.0  0.64224  0.34619  0.90231  1.0000
  H   H4        1.0  0.14224  0.65381  0.09768  1.0000
  H   H5        1.0  0.08703  0.33313  0.91478  1.0000
  H   H6        1.0  0.58702  0.66686  0.08523  1.0000
  H   H7        1.0  0.37312  0.30844  0.00560  1.0000
  H   H8        1.0  0.87311  0.69156  0.99440  1.0000
  H   H9        1.0  0.62896  0.19580  0.42186  1.0000
  H   H10       1.0  0.12897  0.80420  0.57814  1.0000
  H   H11       1.0  0.64462  0.94792  0.35350  1.0000
  H   H12       1.0  0.14462  0.05208  0.64650  1.0000
  H   H13       1.0  0.08802  0.94121  0.35062  1.0000
  H   H14       1.0  0.58803  0.05879  0.64938  1.0000
  H   H15       1.0  0.36771  0.81348  0.32039  1.0000
  H   H16       1.0  0.86772  0.18652  0.67962  1.0000
  H   H17       1.0  0.09251  0.90078  0.02850  1.0000
  H   H18       1.0  0.59251  0.09922  0.97150  1.0000
  H   H19       1.0  0.63037  0.69920  0.79183  1.0000
  H   H20       1.0  0.13037  0.30080  0.20817  1.0000
  H   H21       1.0  0.64827  0.88921  0.02149  1.0000
  H   H22       1.0  0.14827  0.11079  0.97851  1.0000
  H   H23       1.0  0.37426  0.99989  0.14368  1.0000
  H   H24       1.0  0.87427  0.00011  0.85632  1.0000
  C   C1        1.0  0.50051  0.38925  0.76483  1.0000
  C   C2        1.0  0.00051  0.61075  0.23517  1.0000
  C   C3        1.0  0.20316  0.38218  0.77072  1.0000
  C   C4        1.0  0.70316  0.61782  0.22928  1.0000
  C   C5        1.0  0.51466  0.35478  0.86782  1.0000
  C   C6        1.0  0.01466  0.64522  0.13218  1.0000
  C   C7        1.0  0.20725  0.34777  0.87411  1.0000
  C   C8        1.0  0.70725  0.65222  0.12590  1.0000
  C   C9        1.0  0.36557  0.33394  0.92396  1.0000
  C   C10       1.0  0.86557  0.66606  0.07604  1.0000
  C   C11       1.0  0.66012  0.41497  0.70364  1.0000
  C   C12       1.0  0.16012  0.58503  0.29636  1.0000
  C   C13       1.0  0.51092  0.13694  0.40594  1.0000
  C   C14       1.0  0.01093  0.86306  0.59406  1.0000
  C   C15       1.0  0.21404  0.13284  0.40346  1.0000
  C   C16       1.0  0.71405  0.86716  0.59653  1.0000
  C   C17       1.0  0.51916  0.99656  0.36763  1.0000
  C   C18       1.0  0.01917  0.00344  0.63237  1.0000
  C   C19       1.0  0.21171  0.99248  0.36578  1.0000
  C   C20       1.0  0.71172  0.00752  0.63422  1.0000
  C   C21       1.0  0.36694  0.92295  0.34882  1.0000
  C   C22       1.0  0.86695  0.07705  0.65118  1.0000
  C   C23       1.0  0.04815  0.21075  0.42128  1.0000
  C   C24       1.0  0.54816  0.78925  0.57872  1.0000
  C   C25       1.0  0.05050  0.69870  0.77578  1.0000
  C   C26       1.0  0.55050  0.30130  0.22422  1.0000
  C   C27       1.0  0.21668  0.75294  0.85030  1.0000
  C   C28       1.0  0.71668  0.24706  0.14970  1.0000
  C   C29       1.0  0.21531  0.85977  0.98070  1.0000
  C   C30       1.0  0.71531  0.14023  0.01930  1.0000
  C   C31       1.0  0.51307  0.74548  0.84676  1.0000
  C   C32       1.0  0.01307  0.25452  0.15325  1.0000
  C   C33       1.0  0.52273  0.85297  0.97653  1.0000
  C   C34       1.0  0.02273  0.14703  0.02347  1.0000
  C   C35       1.0  0.37120  0.91262  0.04431  1.0000
  C   C36       1.0  0.87120  0.08738  0.95569  1.0000
  N   N1        1.0  0.34696  0.40275  0.71724  1.0000
  N   N2        1.0  0.84697  0.59725  0.28276  1.0000
  N   N3        1.0  0.36151  0.20475  0.42484  1.0000
  N   N4        1.0  0.86152  0.79525  0.57516  1.0000
  N   N5        1.0  0.36326  0.69676  0.78378  1.0000
  N   N6        1.0  0.86326  0.30324  0.21622  1.0000
  O   O1        1.0  0.63264  0.44997  0.61045  1.0000
  O   O2        1.0  0.13264  0.55003  0.38956  1.0000
  O   O3        1.0  0.80366  0.40250  0.74417  1.0000
  O   O4        1.0  0.30366  0.59751  0.25583  1.0000
  O   O5        1.0  0.06674  0.34268  0.46331  1.0000
  O   O6        1.0  0.56675  0.65732  0.53669  1.0000
  O   O7        1.0  0.06804  0.60436  0.65282  1.0000
  O   O8        1.0  0.56804  0.39564  0.34718  1.0000
  O   O9        1.0  0.91087  0.74579  0.83170  1.0000
  O   O10       1.0  0.41087  0.25421  0.16830  1.0000
  O   O11       1.0  0.90873  0.14906  0.39557  1.0000
  O   O12       1.0  0.40873  0.85094  0.60443  1.0000
