data_image0
_chemical_formula_structural       Mn2H24C48N16O4
_chemical_formula_sum              "Mn2 H24 C48 N16 O4"
_cell_length_a       11.0496
_cell_length_b       11.0515
_cell_length_c       11.3933
_cell_angle_alpha    108.197
_cell_angle_beta     110.739
_cell_angle_gamma    108.252

_space_group_name_H-M_alt    "P 1"
_space_group_IT_number       1

loop_
  _space_group_symop_operation_xyz
  'x, y, z'

loop_
  _atom_site_type_symbol
  _atom_site_label
  _atom_site_symmetry_multiplicity
  _atom_site_fract_x
  _atom_site_fract_y
  _atom_site_fract_z
  _atom_site_occupancy
  Mn  Mn1       1.0  0.50000  0.50000  0.00000  1.0000
  Mn  Mn2       1.0  1.00000  0.50000  0.49999  1.0000
  H   H1        1.0  0.51041  0.15174  0.36773  1.0000
  H   H2        1.0  0.28411  0.14283  0.13231  1.0000
  H   H3        1.0  0.48959  0.84827  0.63228  1.0000
  H   H4        1.0  0.71589  0.85717  0.86769  1.0000
  H   H5        1.0  0.37479  0.14987  0.49806  1.0000
  H   H6        1.0  0.15191  0.87685  0.00196  1.0000
  H   H7        1.0  0.62521  0.85013  0.50194  1.0000
  H   H8        1.0  0.84809  0.12315  0.99803  1.0000
  H   H9        1.0  0.18229  0.68290  0.30794  1.0000
  H   H10       1.0  0.87502  0.87443  0.19206  1.0000
  H   H11       1.0  0.81771  0.31711  0.69207  1.0000
  H   H12       1.0  0.12498  0.12557  0.80794  1.0000
  H   H13       1.0  0.31723  0.68489  0.17728  1.0000
  H   H14       1.0  0.00768  0.14004  0.32274  1.0000
  H   H15       1.0  0.68277  0.31511  0.82273  1.0000
  H   H16       1.0  0.99232  0.85996  0.67726  1.0000
  H   H17       1.0  0.57751  0.52669  0.25810  1.0000
  H   H18       1.0  0.76852  0.31934  0.24189  1.0000
  H   H19       1.0  0.42250  0.47330  0.74190  1.0000
  H   H20       1.0  0.23148  0.68065  0.75811  1.0000
  H   H21       1.0  0.70406  0.66250  0.27123  1.0000
  H   H22       1.0  0.89120  0.43276  0.22876  1.0000
  H   H23       1.0  0.29594  0.33750  0.72876  1.0000
  H   H24       1.0  0.10880  0.56724  0.77123  1.0000
  C   C1        1.0  0.42477  0.91867  0.26293  1.0000
  C   C2        1.0  0.15585  0.16199  0.23715  1.0000
  C   C3        1.0  0.57523  0.08133  0.73707  1.0000
  C   C4        1.0  0.84416  0.83801  0.76285  1.0000
  C   C5        1.0  0.43865  0.04898  0.35481  1.0000
  C   C6        1.0  0.19426  0.08398  0.14524  1.0000
  C   C7        1.0  0.56135  0.95102  0.64519  1.0000
  C   C8        1.0  0.80574  0.91602  0.85477  1.0000
  C   C9        1.0  0.36236  0.04796  0.42804  1.0000
  C   C10       1.0  0.12002  0.93443  0.07199  1.0000
  C   C11       1.0  0.63764  0.95204  0.57196  1.0000
  C   C12       1.0  0.87999  0.06557  0.92802  1.0000
  C   C13       1.0  0.26948  0.91655  0.41428  1.0000
  C   C14       1.0  0.00234  0.85531  0.08571  1.0000
  C   C15       1.0  0.73051  0.08345  0.58572  1.0000
  C   C16       1.0  0.99766  0.14469  0.91429  1.0000
  C   C17       1.0  0.25588  0.78587  0.32273  1.0000
  C   C18       1.0  0.96320  0.93322  0.17725  1.0000
  C   C19       1.0  0.74412  0.21413  0.67727  1.0000
  C   C20       1.0  0.03680  0.06678  0.82275  1.0000
  C   C21       1.0  0.33145  0.78694  0.24910  1.0000
  C   C22       1.0  0.03792  0.08244  0.25093  1.0000
  C   C23       1.0  0.66855  0.21306  0.75091  1.0000
  C   C24       1.0  0.96208  0.91756  0.74906  1.0000
  C   C25       1.0  0.50368  0.91893  0.18502  1.0000
  C   C26       1.0  0.23404  0.31882  0.31505  1.0000
  C   C27       1.0  0.49632  0.08108  0.81499  1.0000
  C   C28       1.0  0.76597  0.68118  0.68495  1.0000
  C   C29       1.0  0.50775  0.79428  0.11430  1.0000
  C   C30       1.0  0.18006  0.39355  0.38574  1.0000
  C   C31       1.0  0.49226  0.20573  0.88570  1.0000
  C   C32       1.0  0.81994  0.60645  0.61426  1.0000
  C   C33       1.0  0.57811  0.04310  0.17836  1.0000
  C   C34       1.0  0.36485  0.39993  0.32168  1.0000
  C   C35       1.0  0.42189  0.95690  0.82165  1.0000
  C   C36       1.0  0.63515  0.60007  0.67832  1.0000
  C   C37       1.0  0.19052  0.91475  0.49246  1.0000
  C   C38       1.0  0.92234  0.69817  0.00758  1.0000
  C   C39       1.0  0.80948  0.08525  0.50754  1.0000
  C   C40       1.0  0.07766  0.30183  0.99241  1.0000
  C   C41       1.0  0.18409  0.04001  0.56248  1.0000
  C   C42       1.0  0.97758  0.62171  0.93757  1.0000
  C   C43       1.0  0.81590  0.95999  0.43752  1.0000
  C   C44       1.0  0.02242  0.37828  0.06243  1.0000
  C   C45       1.0  0.12724  0.79165  0.50284  1.0000
  C   C46       1.0  0.78886  0.62447  0.99719  1.0000
  C   C47       1.0  0.87276  0.20835  0.49716  1.0000
  C   C48       1.0  0.21115  0.37553  0.00281  1.0000
  N   N1        1.0  0.50764  0.68391  0.06313  1.0000
  N   N2        1.0  0.12083  0.44456  0.43689  1.0000
  N   N3        1.0  0.49236  0.31609  0.93687  1.0000
  N   N4        1.0  0.87917  0.55544  0.56310  1.0000
  N   N5        1.0  0.63767  0.14698  0.17166  1.0000
  N   N6        1.0  0.47544  0.46614  0.32837  1.0000
  N   N7        1.0  0.36233  0.85302  0.82834  1.0000
  N   N8        1.0  0.52457  0.53386  0.67163  1.0000
  N   N9        1.0  0.18460  0.14932  0.61833  1.0000
  N   N10       1.0  0.03105  0.56637  0.88173  1.0000
  N   N11       1.0  0.81540  0.85068  0.38167  1.0000
  N   N12       1.0  0.96895  0.43362  0.11827  1.0000
  N   N13       1.0  0.08444  0.68342  0.50950  1.0000
  N   N14       1.0  0.67394  0.57498  0.99052  1.0000
  N   N15       1.0  0.91556  0.31657  0.49050  1.0000
  N   N16       1.0  0.32606  0.42503  0.00949  1.0000
  O   O1        1.0  0.63495  0.55601  0.21130  1.0000
  O   O2        1.0  0.84464  0.42358  0.28867  1.0000
  O   O3        1.0  0.36505  0.44399  0.78869  1.0000
  O   O4        1.0  0.15536  0.57642  0.71132  1.0000
