data_image0
_chemical_formula_structural       K2H20C22S2N2O10
_chemical_formula_sum              "K2 H20 C22 S2 N2 O10"
_cell_length_a       7.82309
_cell_length_b       8.08166
_cell_length_c       11.2544
_cell_angle_alpha    96.7972
_cell_angle_beta     105.239
_cell_angle_gamma    114.663

_space_group_name_H-M_alt    "P 1"
_space_group_IT_number       1

loop_
  _space_group_symop_operation_xyz
  'x, y, z'

loop_
  _atom_site_type_symbol
  _atom_site_label
  _atom_site_symmetry_multiplicity
  _atom_site_fract_x
  _atom_site_fract_y
  _atom_site_fract_z
  _atom_site_occupancy
  K   K1        1.0  0.47447  0.24678  0.50614  1.0000
  K   K2        1.0  0.52553  0.75323  0.49386  1.0000
  H   H1        1.0  0.25832  0.52923  0.10756  1.0000
  H   H2        1.0  0.74168  0.47076  0.89244  1.0000
  H   H3        1.0  0.54564  0.84508  0.17982  1.0000
  H   H4        1.0  0.45435  0.15492  0.82018  1.0000
  H   H5        1.0  0.70012  0.98875  0.02620  1.0000
  H   H6        1.0  0.29988  0.01125  0.97380  1.0000
  H   H7        1.0  0.56911  0.80384  0.79898  1.0000
  H   H8        1.0  0.43089  0.19616  0.20102  1.0000
  H   H9        1.0  0.85103  0.22163  0.25972  1.0000
  H   H10       1.0  0.14897  0.77837  0.74028  1.0000
  H   H11       1.0  0.89017  0.01775  0.25992  1.0000
  H   H12       1.0  0.10982  0.98225  0.74008  1.0000
  H   H13       1.0  0.07740  0.23027  0.24409  1.0000
  H   H14       1.0  0.92260  0.76972  0.75591  1.0000
  H   H15       1.0  0.12666  0.21719  0.03246  1.0000
  H   H16       1.0  0.87334  0.78280  0.96754  1.0000
  H   H17       1.0  0.88886  0.07150  0.91045  1.0000
  H   H18       1.0  0.11114  0.92849  0.08955  1.0000
  H   H19       1.0  0.93327  0.28757  0.00694  1.0000
  H   H20       1.0  0.06673  0.71243  0.99306  1.0000
  C   C1        1.0  0.24513  0.48758  0.91046  1.0000
  C   C2        1.0  0.75487  0.51241  0.08955  1.0000
  C   C3        1.0  0.32540  0.58756  0.03924  1.0000
  C   C4        1.0  0.67459  0.41244  0.96075  1.0000
  C   C5        1.0  0.48929  0.76638  0.08039  1.0000
  C   C6        1.0  0.51071  0.23362  0.91961  1.0000
  C   C7        1.0  0.57637  0.84627  0.99421  1.0000
  C   C8        1.0  0.42363  0.15373  0.00580  1.0000
  C   C9        1.0  0.50192  0.74481  0.86748  1.0000
  C   C10       1.0  0.49809  0.25519  0.13253  1.0000
  C   C11       1.0  0.33620  0.56414  0.82328  1.0000
  C   C12       1.0  0.66381  0.43586  0.17672  1.0000
  C   C13       1.0  0.26756  0.45687  0.68838  1.0000
  C   C14       1.0  0.73244  0.54313  0.31162  1.0000
  C   C15       1.0  0.06651  0.30540  0.63236  1.0000
  C   C16       1.0  0.93349  0.69461  0.36764  1.0000
  C   C17       1.0  0.95528  0.21559  0.49773  1.0000
  C   C18       1.0  0.04472  0.78440  0.50226  1.0000
  C   C19       1.0  0.96298  0.17227  0.28759  1.0000
  C   C20       1.0  0.03702  0.82773  0.71241  1.0000
  C   C21       1.0  0.00114  0.21692  0.96052  1.0000
  C   C22       1.0  0.99886  0.78308  0.03947  1.0000
  S   S1        1.0  0.91020  0.25234  0.72251  1.0000
  S   S2        1.0  0.08980  0.74767  0.27749  1.0000
  N   N1        1.0  0.07797  0.30841  0.86822  1.0000
  N   N2        1.0  0.92203  0.69158  0.13178  1.0000
  O   O1        1.0  0.38855  0.50633  0.62808  1.0000
  O   O2        1.0  0.61146  0.49367  0.37192  1.0000
  O   O3        1.0  0.76897  0.12248  0.45098  1.0000
  O   O4        1.0  0.23103  0.87753  0.54902  1.0000
  O   O5        1.0  0.07148  0.24301  0.42343  1.0000
  O   O6        1.0  0.92852  0.75699  0.57657  1.0000
  O   O7        1.0  0.77749  0.05166  0.69587  1.0000
  O   O8        1.0  0.22251  0.94834  0.30412  1.0000
  O   O9        1.0  0.81199  0.37167  0.71948  1.0000
  O   O10       1.0  0.18802  0.62834  0.28053  1.0000
