data_image0
_chemical_formula_structural       Zn6P6H54C54O24
_chemical_formula_sum              "Zn6 P6 H54 C54 O24"
_cell_length_a       7.96189
_cell_length_b       15.3863
_cell_length_c       15.3855
_cell_angle_alpha    117.074
_cell_angle_beta     99.9453
_cell_angle_gamma    99.9326

_space_group_name_H-M_alt    "P 1"
_space_group_IT_number       1

loop_
  _space_group_symop_operation_xyz
  'x, y, z'

loop_
  _atom_site_type_symbol
  _atom_site_label
  _atom_site_symmetry_multiplicity
  _atom_site_fract_x
  _atom_site_fract_y
  _atom_site_fract_z
  _atom_site_occupancy
  Zn  Zn1       1.0  0.18691  0.15032  0.60325  1.0000
  Zn  Zn2       1.0  0.03673  0.45288  0.84965  1.0000
  Zn  Zn3       1.0  0.58409  0.39682  0.54721  1.0000
  Zn  Zn4       1.0  0.81310  0.84968  0.39675  1.0000
  Zn  Zn5       1.0  0.96327  0.54711  0.15035  1.0000
  Zn  Zn6       1.0  0.41590  0.60318  0.45279  1.0000
  P   P1        1.0  0.77790  0.34604  0.94694  1.0000
  P   P2        1.0  0.43220  0.60106  0.65398  1.0000
  P   P3        1.0  0.83068  0.05316  0.39916  1.0000
  P   P4        1.0  0.22209  0.65396  0.05306  1.0000
  P   P5        1.0  0.56780  0.39894  0.34603  1.0000
  P   P6        1.0  0.16933  0.94684  0.60084  1.0000
  H   H1        1.0  0.67556  0.18937  0.00181  1.0000
  H   H2        1.0  0.48710  0.81265  0.81027  1.0000
  H   H3        1.0  0.67392  0.99794  0.18770  1.0000
  H   H4        1.0  0.32444  0.81063  0.99819  1.0000
  H   H5        1.0  0.51291  0.18736  0.18973  1.0000
  H   H6        1.0  0.32608  0.00206  0.81229  1.0000
  H   H7        1.0  0.67281  0.00708  0.92128  1.0000
  H   H8        1.0  0.66637  0.91450  0.99269  1.0000
  H   H9        1.0  0.75091  0.07836  0.08568  1.0000
  H   H10       1.0  0.32719  0.99292  0.07872  1.0000
  H   H11       1.0  0.33364  0.08551  0.00731  1.0000
  H   H12       1.0  0.24909  0.92164  0.91431  1.0000
  H   H13       1.0  0.77597  0.92943  0.76730  1.0000
  H   H14       1.0  0.84640  0.83814  0.07072  1.0000
  H   H15       1.0  0.00730  0.23270  0.16188  1.0000
  H   H16       1.0  0.22406  0.07058  0.23270  1.0000
  H   H17       1.0  0.15361  0.16187  0.92929  1.0000
  H   H18       1.0  0.99270  0.76731  0.83812  1.0000
  H   H19       1.0  0.87673  0.03367  0.69016  1.0000
  H   H20       1.0  0.84266  0.65671  0.96677  1.0000
  H   H21       1.0  0.18521  0.31027  0.34327  1.0000
  H   H22       1.0  0.12328  0.96633  0.30984  1.0000
  H   H23       1.0  0.15734  0.34330  0.03324  1.0000
  H   H24       1.0  0.81478  0.68973  0.65673  1.0000
  H   H25       1.0  0.87304  0.21378  0.76719  1.0000
  H   H26       1.0  0.65931  0.55359  0.78653  1.0000
  H   H27       1.0  0.10541  0.23334  0.44663  1.0000
  H   H28       1.0  0.12697  0.78622  0.23281  1.0000
  H   H29       1.0  0.34069  0.44642  0.21348  1.0000
  H   H30       1.0  0.89459  0.76667  0.55337  1.0000
  H   H31       1.0  0.48469  0.31832  0.96913  1.0000
  H   H32       1.0  0.16646  0.65061  0.68177  1.0000
  H   H33       1.0  0.51530  0.03120  0.34912  1.0000
  H   H34       1.0  0.51530  0.68168  0.03087  1.0000
  H   H35       1.0  0.83353  0.34938  0.31823  1.0000
  H   H36       1.0  0.48470  0.96880  0.65088  1.0000
  H   H37       1.0  0.56362  0.43511  0.97304  1.0000
  H   H38       1.0  0.12885  0.53794  0.56487  1.0000
  H   H39       1.0  0.58998  0.02700  0.46189  1.0000
  H   H40       1.0  0.43637  0.56489  0.02696  1.0000
  H   H41       1.0  0.87115  0.46205  0.43513  1.0000
  H   H42       1.0  0.41004  0.97300  0.53811  1.0000
  H   H43       1.0  0.53281  0.33023  0.77967  1.0000
  H   H44       1.0  0.20284  0.44900  0.66921  1.0000
  H   H45       1.0  0.75316  0.22036  0.55062  1.0000
  H   H46       1.0  0.46718  0.66977  0.22033  1.0000
  H   H47       1.0  0.79715  0.55100  0.33079  1.0000
  H   H48       1.0  0.24685  0.77964  0.44938  1.0000
  H   H49       1.0  0.41897  0.22179  0.78066  1.0000
  H   H50       1.0  0.19790  0.55828  0.77798  1.0000
  H   H51       1.0  0.63826  0.21960  0.44129  1.0000
  H   H52       1.0  0.58104  0.77821  0.21933  1.0000
  H   H53       1.0  0.80209  0.44172  0.22202  1.0000
  H   H54       1.0  0.36175  0.78040  0.55871  1.0000
  C   C1        1.0  0.77451  0.21349  0.88957  1.0000
  C   C2        1.0  0.56150  0.67628  0.78652  1.0000
  C   C3        1.0  0.88479  0.11058  0.32400  1.0000
  C   C4        1.0  0.22549  0.78650  0.11042  1.0000
  C   C5        1.0  0.43850  0.32372  0.21348  1.0000
  C   C6        1.0  0.11521  0.88942  0.67599  1.0000
  C   C7        1.0  0.71788  0.15488  0.93289  1.0000
  C   C8        1.0  0.56364  0.77824  0.84497  1.0000
  C   C9        1.0  0.78483  0.06701  0.22203  1.0000
  C   C10       1.0  0.28212  0.84512  0.06711  1.0000
  C   C11       1.0  0.43635  0.22176  0.15504  1.0000
  C   C12       1.0  0.21517  0.93298  0.77796  1.0000
  C   C13       1.0  0.71711  0.05293  0.88809  1.0000
  C   C14       1.0  0.66464  0.83542  0.94696  1.0000
  C   C15       1.0  0.82847  0.11172  0.16474  1.0000
  C   C16       1.0  0.28289  0.94707  0.11191  1.0000
  C   C17       1.0  0.33536  0.16458  0.05304  1.0000
  C   C18       1.0  0.17154  0.88828  0.83525  1.0000
  C   C19       1.0  0.77464  0.00881  0.80102  1.0000
  C   C20       1.0  0.76585  0.79246  0.99130  1.0000
  C   C21       1.0  0.97259  0.19899  0.20759  1.0000
  C   C22       1.0  0.22538  0.99119  0.19898  1.0000
  C   C23       1.0  0.23414  0.20754  0.00870  1.0000
  C   C24       1.0  0.02741  0.80101  0.79240  1.0000
  C   C25       1.0  0.83067  0.06688  0.75764  1.0000
  C   C26       1.0  0.76367  0.69098  0.93341  1.0000
  C   C27       1.0  0.07205  0.24263  0.30908  1.0000
  C   C28       1.0  0.16933  0.93312  0.24237  1.0000
  C   C29       1.0  0.23632  0.30903  0.06660  1.0000
  C   C30       1.0  0.92795  0.75737  0.69091  1.0000
  C   C31       1.0  0.82945  0.16861  0.80126  1.0000
  C   C32       1.0  0.66100  0.63285  0.83159  1.0000
  C   C33       1.0  0.02767  0.19907  0.36737  1.0000
  C   C34       1.0  0.17056  0.83139  0.19874  1.0000
  C   C35       1.0  0.33900  0.36716  0.16842  1.0000
  C   C36       1.0  0.97232  0.80093  0.63262  1.0000
  C   C37       1.0  0.55154  0.35324  0.93123  1.0000
  C   C38       1.0  0.19864  0.57787  0.64675  1.0000
  C   C39       1.0  0.61999  0.06895  0.42199  1.0000
  C   C40       1.0  0.44846  0.64675  0.06877  1.0000
  C   C41       1.0  0.80136  0.42212  0.35325  1.0000
  C   C42       1.0  0.38002  0.93105  0.57801  1.0000
  C   C43       1.0  0.44999  0.30534  0.81934  1.0000
  C   C44       1.0  0.14510  0.51362  0.69442  1.0000
  C   C45       1.0  0.63057  0.18083  0.48611  1.0000
  C   C46       1.0  0.55001  0.69466  0.18066  1.0000
  C   C47       1.0  0.85490  0.48637  0.30558  1.0000
  C   C48       1.0  0.36944  0.81917  0.51389  1.0000
  C   C49       1.0  0.27909  0.33230  0.79918  1.0000
  C   C50       1.0  0.94718  0.46669  0.66756  1.0000
  C   C51       1.0  0.47995  0.20102  0.53331  1.0000
  C   C52       1.0  0.72091  0.66770  0.20082  1.0000
  C   C53       1.0  0.05281  0.53331  0.33244  1.0000
  C   C54       1.0  0.52007  0.79898  0.46670  1.0000
  O   O1        1.0  0.87533  0.39783  0.06098  1.0000
  O   O2        1.0  0.47727  0.66335  0.60215  1.0000
  O   O3        1.0  0.81390  0.93912  0.33690  1.0000
  O   O4        1.0  0.12465  0.60216  0.93902  1.0000
  O   O5        1.0  0.52272  0.33665  0.39786  1.0000
  O   O6        1.0  0.18609  0.06087  0.66310  1.0000
  O   O7        1.0  0.85405  0.38969  0.88639  1.0000
  O   O8        1.0  0.46501  0.49695  0.61027  1.0000
  O   O9        1.0  0.96729  0.11358  0.50340  1.0000
  O   O10       1.0  0.14595  0.61031  0.11361  1.0000
  O   O11       1.0  0.53499  0.50305  0.38975  1.0000
  O   O12       1.0  0.03272  0.88642  0.49659  1.0000
  O   O13       1.0  0.25352  0.40933  0.87044  1.0000
  O   O14       1.0  0.84455  0.46087  0.59045  1.0000
  O   O15       1.0  0.38300  0.12971  0.53902  1.0000
  O   O16       1.0  0.74648  0.59067  0.12956  1.0000
  O   O17       1.0  0.15544  0.53913  0.40955  1.0000
  O   O18       1.0  0.61703  0.87028  0.46099  1.0000
  O   O19       1.0  0.16731  0.27955  0.71069  1.0000
  O   O20       1.0  0.88801  0.43107  0.72035  1.0000
  O   O21       1.0  0.45688  0.28954  0.56919  1.0000
  O   O22       1.0  0.83269  0.72045  0.28931  1.0000
  O   O23       1.0  0.11198  0.56892  0.27965  1.0000
  O   O24       1.0  0.54312  0.71046  0.43081  1.0000
