data_image0
_chemical_formula_structural       Ag2H22C52S2N6O6F6
_chemical_formula_sum              "Ag2 H22 C52 S2 N6 O6 F6"
_cell_length_a       9.8347
_cell_length_b       13.3823
_cell_length_c       13.5265
_cell_angle_alpha    109.081
_cell_angle_beta     93.3946
_cell_angle_gamma    93.5019

_space_group_name_H-M_alt    "P 1"
_space_group_IT_number       1

loop_
  _space_group_symop_operation_xyz
  'x, y, z'

loop_
  _atom_site_type_symbol
  _atom_site_label
  _atom_site_symmetry_multiplicity
  _atom_site_fract_x
  _atom_site_fract_y
  _atom_site_fract_z
  _atom_site_occupancy
  Ag  Ag1       1.0  0.29815  0.42673  0.66164  1.0000
  Ag  Ag2       1.0  0.70185  0.57327  0.33835  1.0000
  H   H1        1.0  0.61060  0.44055  0.99058  1.0000
  H   H2        1.0  0.38940  0.55945  0.00941  1.0000
  H   H3        1.0  0.81234  0.49184  0.12290  1.0000
  H   H4        1.0  0.18766  0.50816  0.87709  1.0000
  H   H5        1.0  0.97357  0.71062  0.97544  1.0000
  H   H6        1.0  0.02642  0.28938  0.02456  1.0000
  H   H7        1.0  0.77541  0.66002  0.84379  1.0000
  H   H8        1.0  0.22458  0.33997  0.15620  1.0000
  H   H9        1.0  0.49755  0.69086  0.50857  1.0000
  H   H10       1.0  0.50245  0.30914  0.49144  1.0000
  H   H11       1.0  0.88141  0.19907  0.42146  1.0000
  H   H12       1.0  0.11859  0.80092  0.57853  1.0000
  H   H13       1.0  0.68897  0.05789  0.35786  1.0000
  H   H14       1.0  0.31103  0.94211  0.64214  1.0000
  H   H15       1.0  0.79347  0.94481  0.61522  1.0000
  H   H16       1.0  0.20653  0.05519  0.38478  1.0000
  H   H17       1.0  0.98739  0.08481  0.67820  1.0000
  H   H18       1.0  0.01261  0.91519  0.32180  1.0000
  H   H19       1.0  0.32522  0.79998  0.26493  1.0000
  H   H20       1.0  0.67479  0.20002  0.73507  1.0000
  H   H21       1.0  0.12985  0.52655  0.31901  1.0000
  H   H22       1.0  0.87016  0.47345  0.68098  1.0000
  C   C1        1.0  0.31519  0.60048  0.41814  1.0000
  C   C2        1.0  0.68481  0.39952  0.58185  1.0000
  C   C3        1.0  0.67765  0.54979  0.91144  1.0000
  C   C4        1.0  0.32235  0.45021  0.08855  1.0000
  C   C5        1.0  0.68902  0.50116  0.98936  1.0000
  C   C6        1.0  0.31098  0.49884  0.01063  1.0000
  C   C7        1.0  0.80087  0.52954  0.06290  1.0000
  C   C8        1.0  0.19913  0.47046  0.93710  1.0000
  C   C9        1.0  0.90348  0.60699  0.05968  1.0000
  C   C10       1.0  0.09652  0.39301  0.94032  1.0000
  C   C11       1.0  0.89257  0.65363  0.98017  1.0000
  C   C12       1.0  0.10742  0.34637  0.01983  1.0000
  C   C13       1.0  0.78067  0.62550  0.90638  1.0000
  C   C14       1.0  0.21932  0.37450  0.09362  1.0000
  C   C15       1.0  0.56234  0.51963  0.83696  1.0000
  C   C16       1.0  0.43767  0.48036  0.16303  1.0000
  C   C17       1.0  0.01674  0.63367  0.13534  1.0000
  C   C18       1.0  0.98325  0.36634  0.86465  1.0000
  C   C19       1.0  0.11156  0.65076  0.20256  1.0000
  C   C20       1.0  0.88845  0.34925  0.79745  1.0000
  C   C21       1.0  0.41952  0.68327  0.44553  1.0000
  C   C22       1.0  0.58047  0.31674  0.55447  1.0000
  C   C23       1.0  0.94684  0.14868  0.55246  1.0000
  C   C24       1.0  0.05316  0.85133  0.44755  1.0000
  C   C25       1.0  0.86278  0.14185  0.46211  1.0000
  C   C26       1.0  0.13722  0.85815  0.53790  1.0000
  C   C27       1.0  0.75476  0.06378  0.42759  1.0000
  C   C28       1.0  0.24524  0.93622  0.57242  1.0000
  C   C29       1.0  0.72871  0.99172  0.48209  1.0000
  C   C30       1.0  0.27128  0.00828  0.51791  1.0000
  C   C31       1.0  0.81327  0.00063  0.57342  1.0000
  C   C32       1.0  0.18672  0.99937  0.42659  1.0000
  C   C33       1.0  0.92143  0.07827  0.60842  1.0000
  C   C34       1.0  0.07857  0.92174  0.39158  1.0000
  C   C35       1.0  0.05907  0.22681  0.58754  1.0000
  C   C36       1.0  0.94093  0.77318  0.41246  1.0000
  C   C37       1.0  0.62031  0.91091  0.44675  1.0000
  C   C38       1.0  0.37967  0.08910  0.55326  1.0000
  C   C39       1.0  0.52846  0.83962  0.41850  1.0000
  C   C40       1.0  0.47154  0.16039  0.58151  1.0000
  C   C41       1.0  0.42334  0.75589  0.39016  1.0000
  C   C42       1.0  0.57665  0.24411  0.60985  1.0000
  C   C43       1.0  0.32237  0.74411  0.30811  1.0000
  C   C44       1.0  0.67762  0.25590  0.69190  1.0000
  C   C45       1.0  0.21609  0.66240  0.28286  1.0000
  C   C46       1.0  0.78391  0.33760  0.71714  1.0000
  C   C47       1.0  0.21215  0.58990  0.33853  1.0000
  C   C48       1.0  0.78784  0.41011  0.66147  1.0000
  C   C49       1.0  0.31775  0.52387  0.47014  1.0000
  C   C50       1.0  0.68225  0.47612  0.52985  1.0000
  C   C51       1.0  0.21704  0.75069  0.81306  1.0000
  C   C52       1.0  0.78296  0.24929  0.18695  1.0000
  S   S1        1.0  0.09184  0.65224  0.71323  1.0000
  S   S2        1.0  0.90816  0.34776  0.28677  1.0000
  N   N1        1.0  0.46542  0.49333  0.77760  1.0000
  N   N2        1.0  0.53459  0.50667  0.22239  1.0000
  N   N3        1.0  0.15258  0.28978  0.61721  1.0000
  N   N4        1.0  0.84742  0.71022  0.38278  1.0000
  N   N5        1.0  0.32601  0.45933  0.51032  1.0000
  N   N6        1.0  0.67398  0.54068  0.48967  1.0000
  O   O1        1.0  0.11595  0.55212  0.73185  1.0000
  O   O2        1.0  0.88405  0.44787  0.26814  1.0000
  O   O3        1.0  0.95977  0.69084  0.74177  1.0000
  O   O4        1.0  0.04023  0.30916  0.25823  1.0000
  O   O5        1.0  0.13590  0.65900  0.61454  1.0000
  O   O6        1.0  0.86412  0.34101  0.38547  1.0000
  F   F1        1.0  0.20896  0.84999  0.80728  1.0000
  F   F2        1.0  0.79104  0.15000  0.19274  1.0000
  F   F3        1.0  0.19353  0.75547  0.91291  1.0000
  F   F4        1.0  0.80647  0.24450  0.08709  1.0000
  F   F5        1.0  0.34788  0.72519  0.79801  1.0000
  F   F6        1.0  0.65213  0.27480  0.20201  1.0000
