data_image0
_chemical_formula_structural       Ag2H16C32S2N4O8F6
_chemical_formula_sum              "Ag2 H16 C32 S2 N4 O8 F6"
_cell_length_a       8.65084
_cell_length_b       10.3176
_cell_length_c       10.8441
_cell_angle_alpha    82.0241
_cell_angle_beta     69.2635
_cell_angle_gamma    67.5149

_space_group_name_H-M_alt    "P 1"
_space_group_IT_number       1

loop_
  _space_group_symop_operation_xyz
  'x, y, z'

loop_
  _atom_site_type_symbol
  _atom_site_label
  _atom_site_symmetry_multiplicity
  _atom_site_fract_x
  _atom_site_fract_y
  _atom_site_fract_z
  _atom_site_occupancy
  Ag  Ag1       1.0  0.46964  0.32568  0.52949  1.0000
  Ag  Ag2       1.0  0.53035  0.67432  0.47051  1.0000
  H   H1        1.0  0.34151  0.19601  0.24935  1.0000
  H   H2        1.0  0.65849  0.80399  0.75065  1.0000
  H   H3        1.0  0.30753  0.26723  0.03156  1.0000
  H   H4        1.0  0.69247  0.73277  0.96845  1.0000
  H   H5        1.0  0.86373  0.02093  0.84454  1.0000
  H   H6        1.0  0.13627  0.97907  0.15546  1.0000
  H   H7        1.0  0.89359  0.94981  0.06352  1.0000
  H   H8        1.0  0.10641  0.05019  0.93648  1.0000
  H   H9        1.0  0.78041  0.77548  0.19192  1.0000
  H   H10       1.0  0.21959  0.22452  0.80808  1.0000
  H   H11       1.0  0.00851  0.56349  0.24385  1.0000
  H   H12       1.0  0.99148  0.43651  0.75616  1.0000
  H   H13       1.0  0.04762  0.80418  0.52024  1.0000
  H   H14       1.0  0.95238  0.19583  0.47976  1.0000
  H   H15       1.0  0.80582  0.01362  0.47532  1.0000
  H   H16       1.0  0.19417  0.98638  0.52468  1.0000
  C   C1        1.0  0.63501  0.03569  0.30628  1.0000
  C   C2        1.0  0.36499  0.96431  0.69372  1.0000
  C   C3        1.0  0.61934  0.06787  0.17150  1.0000
  C   C4        1.0  0.38067  0.93213  0.82850  1.0000
  C   C5        1.0  0.45508  0.15761  0.16060  1.0000
  C   C6        1.0  0.54492  0.84239  0.83940  1.0000
  C   C7        1.0  0.43617  0.19863  0.03774  1.0000
  C   C8        1.0  0.56383  0.80138  0.96226  1.0000
  C   C9        1.0  0.58485  0.15155  0.92331  1.0000
  C   C10       1.0  0.41515  0.84845  0.07669  1.0000
  C   C11       1.0  0.74989  0.06074  0.93275  1.0000
  C   C12       1.0  0.25011  0.93926  0.06724  1.0000
  C   C13       1.0  0.76536  0.01901  0.05666  1.0000
  C   C14       1.0  0.23464  0.98098  0.94334  1.0000
  C   C15       1.0  0.56880  0.19556  0.79675  1.0000
  C   C16       1.0  0.43121  0.80444  0.20325  1.0000
  C   C17       1.0  0.78024  0.90888  0.32928  1.0000
  C   C18       1.0  0.21976  0.09112  0.67072  1.0000
  C   C19       1.0  0.83789  0.78229  0.26403  1.0000
  C   C20       1.0  0.16211  0.21771  0.73596  1.0000
  C   C21       1.0  0.96762  0.66318  0.29122  1.0000
  C   C22       1.0  0.03237  0.33681  0.70878  1.0000
  C   C23       1.0  0.04415  0.67237  0.38256  1.0000
  C   C24       1.0  0.95585  0.32763  0.61744  1.0000
  C   C25       1.0  0.98709  0.79899  0.44948  1.0000
  C   C26       1.0  0.01291  0.20102  0.55053  1.0000
  C   C27       1.0  0.85370  0.91517  0.42400  1.0000
  C   C28       1.0  0.14630  0.08483  0.57600  1.0000
  C   C29       1.0  0.17896  0.55089  0.40757  1.0000
  C   C30       1.0  0.82104  0.44911  0.59243  1.0000
  C   C31       1.0  0.78823  0.39971  0.11157  1.0000
  C   C32       1.0  0.21178  0.60028  0.88843  1.0000
  S   S1        1.0  0.87065  0.31297  0.25032  1.0000
  S   S2        1.0  0.12935  0.68703  0.74968  1.0000
  N   N1        1.0  0.55406  0.23247  0.69345  1.0000
  N   N2        1.0  0.44594  0.76754  0.30655  1.0000
  N   N3        1.0  0.28821  0.45007  0.42802  1.0000
  N   N4        1.0  0.71178  0.54994  0.57198  1.0000
  O   O1        1.0  0.52610  0.11428  0.39907  1.0000
  O   O2        1.0  0.47390  0.88572  0.60092  1.0000
  O   O3        1.0  0.72371  0.38601  0.36573  1.0000
  O   O4        1.0  0.27628  0.61399  0.63427  1.0000
  O   O5        1.0  0.03121  0.34288  0.22241  1.0000
  O   O6        1.0  0.96878  0.65712  0.77759  1.0000
  O   O7        1.0  0.89694  0.16612  0.24089  1.0000
  O   O8        1.0  0.10306  0.83387  0.75912  1.0000
  F   F1        1.0  0.78385  0.53435  0.09636  1.0000
  F   F2        1.0  0.21619  0.46563  0.90362  1.0000
  F   F3        1.0  0.89714  0.33105  0.99654  1.0000
  F   F4        1.0  0.10285  0.66892  0.00346  1.0000
  F   F5        1.0  0.62289  0.40334  0.13153  1.0000
  F   F6        1.0  0.37711  0.59667  0.86847  1.0000
