data_image0
_chemical_formula_structural       Cu2H20C8Cl4O8
_chemical_formula_sum              "Cu2 H20 C8 Cl4 O8"
_cell_length_a       7.11904
_cell_length_b       8.18852
_cell_length_c       8.48549
_cell_angle_alpha    75.7969
_cell_angle_beta     65.1956
_cell_angle_gamma    64.2559

_space_group_name_H-M_alt    "P 1"
_space_group_IT_number       1

loop_
  _space_group_symop_operation_xyz
  'x, y, z'

loop_
  _atom_site_type_symbol
  _atom_site_label
  _atom_site_symmetry_multiplicity
  _atom_site_fract_x
  _atom_site_fract_y
  _atom_site_fract_z
  _atom_site_occupancy
  Cu  Cu1       1.0  0.67029  0.24994  0.75001  1.0000
  Cu  Cu2       1.0  0.32971  0.75006  0.24998  1.0000
  H   H1        1.0  0.93867  0.83112  0.07282  1.0000
  H   H2        1.0  0.15742  0.33101  0.57259  1.0000
  H   H3        1.0  0.06133  0.16889  0.92718  1.0000
  H   H4        1.0  0.84258  0.66900  0.42741  1.0000
  H   H5        1.0  0.20813  0.82150  0.76132  1.0000
  H   H6        1.0  0.20858  0.32169  0.26120  1.0000
  H   H7        1.0  0.79188  0.17850  0.23868  1.0000
  H   H8        1.0  0.79142  0.67831  0.73880  1.0000
  H   H9        1.0  0.94144  0.83271  0.78371  1.0000
  H   H10       1.0  0.44185  0.33287  0.28333  1.0000
  H   H11       1.0  0.05856  0.16728  0.21629  1.0000
  H   H12       1.0  0.55816  0.66713  0.71668  1.0000
  H   H13       1.0  0.60524  0.03129  0.11770  1.0000
  H   H14       1.0  0.24603  0.53113  0.61756  1.0000
  H   H15       1.0  0.39476  0.96871  0.88230  1.0000
  H   H16       1.0  0.75397  0.46887  0.38244  1.0000
  H   H17       1.0  0.10117  0.04608  0.56793  1.0000
  H   H18       1.0  0.28464  0.54631  0.06780  1.0000
  H   H19       1.0  0.89883  0.95391  0.43207  1.0000
  H   H20       1.0  0.71536  0.45369  0.93220  1.0000
  C   C1        1.0  0.93376  0.95552  0.98521  1.0000
  C   C2        1.0  0.12550  0.45549  0.48511  1.0000
  C   C3        1.0  0.06625  0.04448  0.01479  1.0000
  C   C4        1.0  0.87450  0.54451  0.51489  1.0000
  C   C5        1.0  0.02936  0.90618  0.79937  1.0000
  C   C6        1.0  0.26484  0.40630  0.29913  1.0000
  C   C7        1.0  0.97064  0.09382  0.20063  1.0000
  C   C8        1.0  0.73515  0.59370  0.70087  1.0000
  Cl  Cl1       1.0  0.30589  0.43112  0.86007  1.0000
  Cl  Cl2       1.0  0.40296  0.93118  0.36018  1.0000
  Cl  Cl3       1.0  0.69411  0.56888  0.13993  1.0000
  Cl  Cl4       1.0  0.59704  0.06882  0.63982  1.0000
  O   O1        1.0  0.70669  0.08328  0.02104  1.0000
  O   O2        1.0  0.18928  0.58313  0.52091  1.0000
  O   O3        1.0  0.29331  0.91672  0.97896  1.0000
  O   O4        1.0  0.81072  0.41688  0.47909  1.0000
  O   O5        1.0  0.99947  0.07424  0.68953  1.0000
  O   O6        1.0  0.23637  0.57446  0.18944  1.0000
  O   O7        1.0  0.00052  0.92576  0.31047  1.0000
  O   O8        1.0  0.76363  0.42554  0.81056  1.0000
