data_image0
_chemical_formula_structural       Cu2H20C8Cl4O8
_chemical_formula_sum              "Cu2 H20 C8 Cl4 O8"
_cell_length_a       6.32226
_cell_length_b       7.44265
_cell_length_c       9.54046
_cell_angle_alpha    104.615
_cell_angle_beta     105.881
_cell_angle_gamma    99.3496

_space_group_name_H-M_alt    "P 1"
_space_group_IT_number       1

loop_
  _space_group_symop_operation_xyz
  'x, y, z'

loop_
  _atom_site_type_symbol
  _atom_site_label
  _atom_site_symmetry_multiplicity
  _atom_site_fract_x
  _atom_site_fract_y
  _atom_site_fract_z
  _atom_site_occupancy
  Cu  Cu1       1.0  0.28569  0.14339  0.09974  1.0000
  Cu  Cu2       1.0  0.71431  0.85661  0.90026  1.0000
  H   H1        1.0  0.27918  0.52610  0.89981  1.0000
  H   H2        1.0  0.72082  0.47390  0.10018  1.0000
  H   H3        1.0  0.40042  0.69171  0.19325  1.0000
  H   H4        1.0  0.59958  0.30829  0.80675  1.0000
  H   H5        1.0  0.13181  0.52015  0.10582  1.0000
  H   H6        1.0  0.86819  0.47985  0.89417  1.0000
  H   H7        1.0  0.18111  0.21907  0.82980  1.0000
  H   H8        1.0  0.81889  0.78092  0.17020  1.0000
  H   H9        1.0  0.34713  0.46390  0.32080  1.0000
  H   H10       1.0  0.65286  0.53610  0.67919  1.0000
  H   H11       1.0  0.63748  0.32034  0.46455  1.0000
  H   H12       1.0  0.36251  0.67966  0.53545  1.0000
  H   H13       1.0  0.85042  0.11865  0.64995  1.0000
  H   H14       1.0  0.14958  0.88135  0.35006  1.0000
  H   H15       1.0  0.06722  0.55806  0.67531  1.0000
  H   H16       1.0  0.93278  0.44194  0.32469  1.0000
  H   H17       1.0  0.92398  0.15768  0.43600  1.0000
  H   H18       1.0  0.07603  0.84231  0.56400  1.0000
  H   H19       1.0  0.20778  0.28025  0.55290  1.0000
  H   H20       1.0  0.79222  0.71975  0.44711  1.0000
  C   C1        1.0  0.37262  0.46982  0.98711  1.0000
  C   C2        1.0  0.62739  0.53017  0.01289  1.0000
  C   C3        1.0  0.31592  0.53978  0.13192  1.0000
  C   C4        1.0  0.68408  0.46022  0.86808  1.0000
  C   C5        1.0  0.97100  0.45680  0.55993  1.0000
  C   C6        1.0  0.02900  0.54320  0.44007  1.0000
  C   C7        1.0  0.02979  0.26386  0.54711  1.0000
  C   C8        1.0  0.97021  0.73614  0.45290  1.0000
  Cl  Cl1       1.0  0.41919  0.05893  0.31354  1.0000
  Cl  Cl2       1.0  0.58080  0.94107  0.68646  1.0000
  Cl  Cl3       1.0  0.15299  0.85158  0.92474  1.0000
  Cl  Cl4       1.0  0.84701  0.14843  0.07526  1.0000
  O   O1        1.0  0.30395  0.26330  0.93395  1.0000
  O   O2        1.0  0.69606  0.73670  0.06605  1.0000
  O   O3        1.0  0.39531  0.42367  0.22658  1.0000
  O   O4        1.0  0.60469  0.57634  0.77342  1.0000
  O   O5        1.0  0.73518  0.44152  0.54431  1.0000
  O   O6        1.0  0.26482  0.55848  0.45568  1.0000
  O   O7        1.0  0.00552  0.19374  0.67030  1.0000
  O   O8        1.0  0.99447  0.80626  0.32971  1.0000
