data_image0
_chemical_formula_structural       Mn2H20C8Cl4O8
_chemical_formula_sum              "Mn2 H20 C8 Cl4 O8"
_cell_length_a       7.13682
_cell_length_b       8.37312
_cell_length_c       8.48403
_cell_angle_alpha    70.7224
_cell_angle_beta     65.1209
_cell_angle_gamma    64.7796

_space_group_name_H-M_alt    "P 1"
_space_group_IT_number       1

loop_
  _space_group_symop_operation_xyz
  'x, y, z'

loop_
  _atom_site_type_symbol
  _atom_site_label
  _atom_site_symmetry_multiplicity
  _atom_site_fract_x
  _atom_site_fract_y
  _atom_site_fract_z
  _atom_site_occupancy
  Mn  Mn1       1.0  0.16897  0.24990  0.74997  1.0000
  Mn  Mn2       1.0  0.83103  0.75010  0.25002  1.0000
  H   H1        1.0  0.35196  0.91171  0.16639  1.0000
  H   H2        1.0  0.56968  0.41177  0.66648  1.0000
  H   H3        1.0  0.64805  0.08829  0.83362  1.0000
  H   H4        1.0  0.43032  0.58823  0.33352  1.0000
  H   H5        1.0  0.07817  0.20906  0.17485  1.0000
  H   H6        1.0  0.53736  0.70922  0.67498  1.0000
  H   H7        1.0  0.92183  0.79095  0.82515  1.0000
  H   H8        1.0  0.46264  0.29078  0.32502  1.0000
  H   H9        1.0  0.32120  0.22471  0.17293  1.0000
  H   H10       1.0  0.28060  0.72473  0.67297  1.0000
  H   H11       1.0  0.67880  0.77529  0.82706  1.0000
  H   H12       1.0  0.71940  0.27527  0.32703  1.0000
  H   H13       1.0  0.25474  0.88835  0.96716  1.0000
  H   H14       1.0  0.88954  0.38862  0.46728  1.0000
  H   H15       1.0  0.74526  0.11165  0.03284  1.0000
  H   H16       1.0  0.11046  0.61137  0.53272  1.0000
  H   H17       1.0  0.23236  0.44509  0.95584  1.0000
  H   H18       1.0  0.36640  0.94516  0.45589  1.0000
  H   H19       1.0  0.76764  0.55491  0.04415  1.0000
  H   H20       1.0  0.63360  0.05484  0.54411  1.0000
  C   C1        1.0  0.37667  0.01485  0.04676  1.0000
  C   C2        1.0  0.56155  0.51489  0.54681  1.0000
  C   C3        1.0  0.62333  0.98515  0.95324  1.0000
  C   C4        1.0  0.43844  0.48511  0.45319  1.0000
  C   C5        1.0  0.24952  0.19908  0.09580  1.0000
  C   C6        1.0  0.45515  0.69914  0.59588  1.0000
  C   C7        1.0  0.75048  0.80092  0.90419  1.0000
  C   C8        1.0  0.54486  0.30086  0.40412  1.0000
  Cl  Cl1       1.0  0.78612  0.35748  0.93323  1.0000
  Cl  Cl2       1.0  0.92318  0.85733  0.43332  1.0000
  Cl  Cl3       1.0  0.21388  0.64252  0.06678  1.0000
  Cl  Cl4       1.0  0.07682  0.14266  0.56668  1.0000
  O   O1        1.0  0.28982  0.00162  0.92668  1.0000
  O   O2        1.0  0.78170  0.50187  0.42674  1.0000
  O   O3        1.0  0.71017  0.99837  0.07332  1.0000
  O   O4        1.0  0.21830  0.49813  0.57326  1.0000
  O   O5        1.0  0.25970  0.32698  0.93256  1.0000
  O   O6        1.0  0.48045  0.82703  0.43255  1.0000
  O   O7        1.0  0.74030  0.67302  0.06744  1.0000
  O   O8        1.0  0.51956  0.17297  0.56745  1.0000
