data_image0
_chemical_formula_structural       Ca2H36C32N4O22
_chemical_formula_sum              "Ca2 H36 C32 N4 O22"
_cell_length_a       6.90071
_cell_length_b       12.1648
_cell_length_c       12.039
_cell_angle_alpha    69.5252
_cell_angle_beta     73.3432
_cell_angle_gamma    73.5524

_space_group_name_H-M_alt    "P 1"
_space_group_IT_number       1

loop_
  _space_group_symop_operation_xyz
  'x, y, z'

loop_
  _atom_site_type_symbol
  _atom_site_label
  _atom_site_symmetry_multiplicity
  _atom_site_fract_x
  _atom_site_fract_y
  _atom_site_fract_z
  _atom_site_occupancy
  Ca  Ca1       1.0  0.85474  0.75002  0.24996  1.0000
  Ca  Ca2       1.0  0.14526  0.24998  0.75004  1.0000
  H   H1        1.0  0.31041  0.67999  0.27276  1.0000
  H   H2        1.0  0.26394  0.81980  0.22692  1.0000
  H   H3        1.0  0.68959  0.32001  0.72724  1.0000
  H   H4        1.0  0.73606  0.18021  0.77308  1.0000
  H   H5        1.0  0.62692  0.26675  0.58036  1.0000
  H   H6        1.0  0.47414  0.23326  0.91981  1.0000
  H   H7        1.0  0.37308  0.73326  0.41964  1.0000
  H   H8        1.0  0.52587  0.76673  0.08019  1.0000
  H   H9        1.0  0.63218  0.05246  0.60468  1.0000
  H   H10       1.0  0.28989  0.44754  0.89549  1.0000
  H   H11       1.0  0.36781  0.94755  0.39532  1.0000
  H   H12       1.0  0.71011  0.55246  0.10451  1.0000
  H   H13       1.0  0.94871  0.10847  0.23049  1.0000
  H   H14       1.0  0.28715  0.39140  0.26981  1.0000
  H   H15       1.0  0.05129  0.89154  0.76951  1.0000
  H   H16       1.0  0.71285  0.60859  0.73019  1.0000
  H   H17       1.0  0.92911  0.32128  0.21853  1.0000
  H   H18       1.0  0.46836  0.17868  0.28173  1.0000
  H   H19       1.0  0.07089  0.67872  0.78147  1.0000
  H   H20       1.0  0.53164  0.82132  0.71827  1.0000
  H   H21       1.0  0.91847  0.44946  0.32169  1.0000
  H   H22       1.0  0.68932  0.05066  0.17858  1.0000
  H   H23       1.0  0.08153  0.55055  0.67831  1.0000
  H   H24       1.0  0.31068  0.94934  0.82142  1.0000
  H   H25       1.0  0.79501  0.42564  0.47675  1.0000
  H   H26       1.0  0.69740  0.07442  0.02350  1.0000
  H   H27       1.0  0.20499  0.57436  0.52325  1.0000
  H   H28       1.0  0.30260  0.92557  0.97650  1.0000
  H   H29       1.0  0.73374  0.61221  0.52253  1.0000
  H   H30       1.0  0.86873  0.88787  0.97749  1.0000
  H   H31       1.0  0.26627  0.38779  0.47747  1.0000
  H   H32       1.0  0.13127  0.11213  0.02251  1.0000
  H   H33       1.0  0.80783  0.73223  0.49774  1.0000
  H   H34       1.0  0.03762  0.76775  0.00233  1.0000
  H   H35       1.0  0.19217  0.26777  0.50226  1.0000
  H   H36       1.0  0.96237  0.23225  0.99767  1.0000
  C   C1        1.0  0.69718  0.22643  0.50677  1.0000
  C   C2        1.0  0.43053  0.27356  0.99343  1.0000
  C   C3        1.0  0.30281  0.77357  0.49323  1.0000
  C   C4        1.0  0.56948  0.72644  0.00657  1.0000
  C   C5        1.0  0.70069  0.10879  0.51816  1.0000
  C   C6        1.0  0.32797  0.39117  0.98203  1.0000
  C   C7        1.0  0.29931  0.89121  0.48184  1.0000
  C   C8        1.0  0.67203  0.60883  0.01798  1.0000
  C   C9        1.0  0.79004  0.06425  0.41864  1.0000
  C   C10       1.0  0.27301  0.43572  0.08155  1.0000
  C   C11       1.0  0.20997  0.93575  0.58136  1.0000
  C   C12       1.0  0.72698  0.56428  0.91845  1.0000
  C   C13       1.0  0.87510  0.14086  0.30918  1.0000
  C   C14       1.0  0.32477  0.35908  0.19107  1.0000
  C   C15       1.0  0.12491  0.85914  0.69082  1.0000
  C   C16       1.0  0.67523  0.64092  0.80894  1.0000
  C   C17       1.0  0.87002  0.25730  0.30212  1.0000
  C   C18       1.0  0.42900  0.24266  0.19814  1.0000
  C   C19       1.0  0.12997  0.74270  0.69788  1.0000
  C   C20       1.0  0.57100  0.75734  0.80186  1.0000
  C   C21       1.0  0.78237  0.42227  0.38921  1.0000
  C   C22       1.0  0.59374  0.07781  0.11101  1.0000
  C   C23       1.0  0.21763  0.57773  0.61079  1.0000
  C   C24       1.0  0.40627  0.92219  0.88899  1.0000
  C   C25       1.0  0.58814  0.51193  0.35113  1.0000
  C   C26       1.0  0.45107  0.98809  0.14889  1.0000
  C   C27       1.0  0.41186  0.48808  0.64887  1.0000
  C   C28       1.0  0.54894  0.01191  0.85111  1.0000
  C   C29       1.0  0.79095  0.93703  0.42647  1.0000
  C   C30       1.0  0.15437  0.56289  0.07364  1.0000
  C   C31       1.0  0.20905  0.06297  0.57353  1.0000
  C   C32       1.0  0.84563  0.43710  0.92637  1.0000
  N   N1        1.0  0.78364  0.29804  0.40026  1.0000
  N   N2        1.0  0.48177  0.20194  0.09998  1.0000
  N   N3        1.0  0.21635  0.70196  0.59973  1.0000
  N   N4        1.0  0.51824  0.79806  0.90002  1.0000
  O   O1        1.0  0.60604  0.62091  0.30731  1.0000
  O   O2        1.0  0.53380  0.87912  0.19286  1.0000
  O   O3        1.0  0.39396  0.37909  0.69269  1.0000
  O   O4        1.0  0.46620  0.12088  0.80714  1.0000
  O   O5        1.0  0.83129  0.66281  0.46563  1.0000
  O   O6        1.0  0.95994  0.83726  0.03435  1.0000
  O   O7        1.0  0.16871  0.33719  0.53437  1.0000
  O   O8        1.0  0.04007  0.16274  0.96565  1.0000
  O   O9        1.0  0.42664  0.47546  0.36558  1.0000
  O   O10       1.0  0.26776  0.02456  0.13422  1.0000
  O   O11       1.0  0.57336  0.52455  0.63442  1.0000
  O   O12       1.0  0.73224  0.97544  0.86578  1.0000
  O   O13       1.0  0.20063  0.74997  0.24970  1.0000
  O   O14       1.0  0.79937  0.25003  0.75030  1.0000
  O   O15       1.0  0.77290  0.86162  0.53101  1.0000
  O   O16       1.0  0.16450  0.63821  0.96908  1.0000
  O   O17       1.0  0.22710  0.13838  0.46899  1.0000
  O   O18       1.0  0.83550  0.36178  0.03092  1.0000
  O   O19       1.0  0.80735  0.91812  0.32674  1.0000
  O   O20       1.0  0.05248  0.58180  0.17345  1.0000
  O   O21       1.0  0.19265  0.08188  0.67326  1.0000
  O   O22       1.0  0.94752  0.41820  0.82656  1.0000
