data_image0
_chemical_formula_structural       Gd2H18C18N2O22
_chemical_formula_sum              "Gd2 H18 C18 N2 O22"
_cell_length_a       7.4492
_cell_length_b       9.24777
_cell_length_c       11.5366
_cell_angle_alpha    72.2788
_cell_angle_beta     69.6535
_cell_angle_gamma    80.9653

_space_group_name_H-M_alt    "P 1"
_space_group_IT_number       1

loop_
  _space_group_symop_operation_xyz
  'x, y, z'

loop_
  _atom_site_type_symbol
  _atom_site_label
  _atom_site_symmetry_multiplicity
  _atom_site_fract_x
  _atom_site_fract_y
  _atom_site_fract_z
  _atom_site_occupancy
  Gd  Gd1       1.0  0.61045  0.55221  0.72181  1.0000
  Gd  Gd2       1.0  0.38954  0.44779  0.27820  1.0000
  H   H1        1.0  0.72665  0.00633  0.78197  1.0000
  H   H2        1.0  0.27336  0.99367  0.21803  1.0000
  H   H3        1.0  0.68472  0.14835  0.11301  1.0000
  H   H4        1.0  0.31529  0.85165  0.88699  1.0000
  H   H5        1.0  0.87215  0.68451  0.10146  1.0000
  H   H6        1.0  0.12785  0.31549  0.89853  1.0000
  H   H7        1.0  0.98490  0.55646  0.72771  1.0000
  H   H8        1.0  0.01510  0.44354  0.27229  1.0000
  H   H9        1.0  0.05387  0.50844  0.59529  1.0000
  H   H10       1.0  0.94612  0.49156  0.40471  1.0000
  H   H11       1.0  0.18406  0.60883  0.87247  1.0000
  H   H12       1.0  0.81594  0.39117  0.12753  1.0000
  H   H13       1.0  0.31798  0.61367  0.95654  1.0000
  H   H14       1.0  0.68201  0.38634  0.04347  1.0000
  H   H15       1.0  0.63068  0.85174  0.49666  1.0000
  H   H16       1.0  0.36932  0.14826  0.50334  1.0000
  H   H17       1.0  0.51405  0.88940  0.62952  1.0000
  H   H18       1.0  0.48595  0.11060  0.37047  1.0000
  C   C1        1.0  0.80200  0.83153  0.93405  1.0000
  C   C2        1.0  0.19800  0.16847  0.06594  1.0000
  C   C3        1.0  0.74522  0.97984  0.87595  1.0000
  C   C4        1.0  0.25479  0.02016  0.12405  1.0000
  C   C5        1.0  0.71165  0.09599  0.93646  1.0000
  C   C6        1.0  0.28836  0.90401  0.06353  1.0000
  C   C7        1.0  0.72010  0.06176  0.06118  1.0000
  C   C8        1.0  0.27990  0.93824  0.93882  1.0000
  C   C9        1.0  0.77678  0.91374  0.11700  1.0000
  C   C10       1.0  0.22323  0.08626  0.88299  1.0000
  C   C11       1.0  0.82619  0.79835  0.05437  1.0000
  C   C12       1.0  0.17381  0.20165  0.94562  1.0000
  C   C13       1.0  0.82404  0.70928  0.86766  1.0000
  C   C14       1.0  0.17596  0.29072  0.13234  1.0000
  C   C15       1.0  0.66207  0.25416  0.86747  1.0000
  C   C16       1.0  0.33794  0.74584  0.13253  1.0000
  C   C17       1.0  0.60614  0.50268  0.45725  1.0000
  C   C18       1.0  0.39385  0.49732  0.54278  1.0000
  N   N1        1.0  0.78577  0.87633  0.24713  1.0000
  N   N2        1.0  0.21423  0.12367  0.75287  1.0000
  O   O1        1.0  0.68964  0.71076  0.82292  1.0000
  O   O2        1.0  0.31036  0.28924  0.17708  1.0000
  O   O3        1.0  0.96921  0.61597  0.85952  1.0000
  O   O4        1.0  0.03079  0.38403  0.14048  1.0000
  O   O5        1.0  0.62510  0.27719  0.76344  1.0000
  O   O6        1.0  0.37490  0.72281  0.23656  1.0000
  O   O7        1.0  0.65941  0.36594  0.91231  1.0000
  O   O8        1.0  0.34059  0.63406  0.08769  1.0000
  O   O9        1.0  0.67296  0.94928  0.32268  1.0000
  O   O10       1.0  0.32705  0.05072  0.67731  1.0000
  O   O11       1.0  0.90178  0.77512  0.27860  1.0000
  O   O12       1.0  0.09822  0.22487  0.72140  1.0000
  O   O13       1.0  0.72501  0.52448  0.50647  1.0000
  O   O14       1.0  0.27498  0.47552  0.49354  1.0000
  O   O15       1.0  0.64553  0.48562  0.34673  1.0000
  O   O16       1.0  0.35446  0.51437  0.65328  1.0000
  O   O17       1.0  0.94038  0.54199  0.66002  1.0000
  O   O18       1.0  0.05961  0.45801  0.33999  1.0000
  O   O19       1.0  0.31948  0.60162  0.87294  1.0000
  O   O20       1.0  0.68052  0.39839  0.12706  1.0000
  O   O21       1.0  0.57703  0.80733  0.58998  1.0000
  O   O22       1.0  0.42297  0.19267  0.41002  1.0000
