data_image0
_chemical_formula_structural       Ag2H30C36S4Br4N4O8
_chemical_formula_sum              "Ag2 H30 C36 S4 Br4 N4 O8"
_cell_length_a       7.68579
_cell_length_b       11.4464
_cell_length_c       12.2668
_cell_angle_alpha    84.3937
_cell_angle_beta     80.0644
_cell_angle_gamma    72.7592

_space_group_name_H-M_alt    "P 1"
_space_group_IT_number       1

loop_
  _space_group_symop_operation_xyz
  'x, y, z'

loop_
  _atom_site_type_symbol
  _atom_site_label
  _atom_site_symmetry_multiplicity
  _atom_site_fract_x
  _atom_site_fract_y
  _atom_site_fract_z
  _atom_site_occupancy
  Ag  Ag1       1.0  0.21974  0.59812  0.41906  1.0000
  Ag  Ag2       1.0  0.78024  0.40188  0.58095  1.0000
  H   H1        1.0  0.02238  0.58097  0.21920  1.0000
  H   H2        1.0  0.97762  0.41903  0.78080  1.0000
  H   H3        1.0  0.10290  0.64653  0.02085  1.0000
  H   H4        1.0  0.89711  0.35348  0.97915  1.0000
  H   H5        1.0  0.45781  0.28099  0.95984  1.0000
  H   H6        1.0  0.54218  0.71901  0.04015  1.0000
  H   H7        1.0  0.37867  0.21740  0.15748  1.0000
  H   H8        1.0  0.62132  0.78260  0.84252  1.0000
  H   H9        1.0  0.63719  0.05685  0.49133  1.0000
  H   H10       1.0  0.36282  0.94316  0.50867  1.0000
  H   H11       1.0  0.59644  0.94813  0.67502  1.0000
  H   H12       1.0  0.40357  0.05188  0.32497  1.0000
  H   H13       1.0  0.22792  0.28432  0.80858  1.0000
  H   H14       1.0  0.77208  0.71568  0.19143  1.0000
  H   H15       1.0  0.26860  0.39296  0.62398  1.0000
  H   H16       1.0  0.73140  0.60704  0.37602  1.0000
  H   H17       1.0  0.95912  0.86437  0.47435  1.0000
  H   H18       1.0  0.04087  0.13562  0.52565  1.0000
  H   H19       1.0  0.86360  0.06943  0.37370  1.0000
  H   H20       1.0  0.13640  0.93057  0.62630  1.0000
  H   H21       1.0  0.21160  0.90737  0.08142  1.0000
  H   H22       1.0  0.78840  0.09262  0.91858  1.0000
  H   H23       1.0  0.30110  0.71165  0.19322  1.0000
  H   H24       1.0  0.69890  0.28834  0.80678  1.0000
  H   H25       1.0  0.82339  0.16929  0.17492  1.0000
  H   H26       1.0  0.17662  0.83071  0.82508  1.0000
  H   H27       1.0  0.01687  0.12011  0.06756  1.0000
  H   H28       1.0  0.98315  0.87989  0.93244  1.0000
  H   H29       1.0  0.03648  0.19145  0.18588  1.0000
  H   H30       1.0  0.96353  0.80854  0.81413  1.0000
  C   C1        1.0  0.19499  0.39589  0.19916  1.0000
  C   C2        1.0  0.80501  0.60411  0.80084  1.0000
  C   C3        1.0  0.11775  0.51650  0.16156  1.0000
  C   C4        1.0  0.88226  0.48351  0.83844  1.0000
  C   C5        1.0  0.16346  0.55305  0.05136  1.0000
  C   C6        1.0  0.83655  0.44695  0.94864  1.0000
  C   C7        1.0  0.28696  0.46786  0.97964  1.0000
  C   C8        1.0  0.71304  0.53214  0.02036  1.0000
  C   C9        1.0  0.36306  0.34692  0.01668  1.0000
  C   C10       1.0  0.63693  0.65308  0.98332  1.0000
  C   C11       1.0  0.31722  0.31078  0.12730  1.0000
  C   C12       1.0  0.68277  0.68922  0.87270  1.0000
  C   C13       1.0  0.45599  0.23043  0.54711  1.0000
  C   C14       1.0  0.54400  0.76956  0.45289  1.0000
  C   C15       1.0  0.54897  0.10650  0.56114  1.0000
  C   C16       1.0  0.45103  0.89350  0.43886  1.0000
  C   C17       1.0  0.52553  0.04514  0.66416  1.0000
  C   C18       1.0  0.47448  0.95486  0.33584  1.0000
  C   C19       1.0  0.40765  0.11105  0.75078  1.0000
  C   C20       1.0  0.59235  0.88895  0.24922  1.0000
  C   C21       1.0  0.31575  0.23529  0.73822  1.0000
  C   C22       1.0  0.68425  0.76471  0.26178  1.0000
  C   C23       1.0  0.34018  0.29604  0.63521  1.0000
  C   C24       1.0  0.65981  0.70396  0.36479  1.0000
  C   C25       1.0  0.01415  0.87844  0.38746  1.0000
  C   C26       1.0  0.98585  0.12156  0.61255  1.0000
  C   C27       1.0  0.96089  0.99163  0.33127  1.0000
  C   C28       1.0  0.03911  0.00837  0.66874  1.0000
  C   C29       1.0  0.02928  0.00654  0.21870  1.0000
  C   C30       1.0  0.97072  0.99346  0.78130  1.0000
  C   C31       1.0  0.15305  0.90290  0.16875  1.0000
  C   C32       1.0  0.84696  0.09710  0.83126  1.0000
  C   C33       1.0  0.20309  0.79292  0.23036  1.0000
  C   C34       1.0  0.79691  0.20708  0.76965  1.0000
  C   C35       1.0  0.97305  0.12795  0.15719  1.0000
  C   C36       1.0  0.02696  0.87205  0.84281  1.0000
  S   S1        1.0  0.14452  0.35577  0.34246  1.0000
  S   S2        1.0  0.85549  0.64421  0.65754  1.0000
  S   S3        1.0  0.49175  0.30746  0.41578  1.0000
  S   S4        1.0  0.50824  0.69255  0.58423  1.0000
  Br  Br1       1.0  0.34856  0.51862  0.82961  1.0000
  Br  Br2       1.0  0.65143  0.48138  0.17039  1.0000
  Br  Br3       1.0  0.37466  0.03132  0.89309  1.0000
  Br  Br4       1.0  0.62535  0.96867  0.10691  1.0000
  N   N1        1.0  0.29042  0.39869  0.39937  1.0000
  N   N2        1.0  0.70957  0.60131  0.60063  1.0000
  N   N3        1.0  0.13473  0.77934  0.33824  1.0000
  N   N4        1.0  0.86527  0.22066  0.66176  1.0000
  O   O1        1.0  0.96432  0.43685  0.38207  1.0000
  O   O2        1.0  0.03567  0.56315  0.61793  1.0000
  O   O3        1.0  0.16962  0.22457  0.35585  1.0000
  O   O4        1.0  0.83038  0.77543  0.64415  1.0000
  O   O5        1.0  0.60301  0.38790  0.42617  1.0000
  O   O6        1.0  0.39697  0.61212  0.57384  1.0000
  O   O7        1.0  0.56528  0.21525  0.33359  1.0000
  O   O8        1.0  0.43473  0.78475  0.66640  1.0000
