data_image0
_chemical_formula_structural       Zn2H16C22N4Cl4O2
_chemical_formula_sum              "Zn2 H16 C22 N4 Cl4 O2"
_cell_length_a       7.96648
_cell_length_b       9.09078
_cell_length_c       9.09056
_cell_angle_alpha    116.872
_cell_angle_beta     91.7155
_cell_angle_gamma    91.7162

_space_group_name_H-M_alt    "P 1"
_space_group_IT_number       1

loop_
  _space_group_symop_operation_xyz
  'x, y, z'

loop_
  _atom_site_type_symbol
  _atom_site_label
  _atom_site_symmetry_multiplicity
  _atom_site_fract_x
  _atom_site_fract_y
  _atom_site_fract_z
  _atom_site_occupancy
  Zn  Zn1       1.0  0.25000  0.20555  0.79444  1.0000
  Zn  Zn2       1.0  0.75000  0.79445  0.20557  1.0000
  H   H1        1.0  0.37273  0.03311  0.18934  1.0000
  H   H2        1.0  0.12728  0.81063  0.96688  1.0000
  H   H3        1.0  0.62726  0.96689  0.81067  1.0000
  H   H4        1.0  0.87271  0.18937  0.03312  1.0000
  H   H5        1.0  0.22688  0.02399  0.42661  1.0000
  H   H6        1.0  0.27312  0.57336  0.97600  1.0000
  H   H7        1.0  0.77311  0.97601  0.57340  1.0000
  H   H8        1.0  0.72687  0.42664  0.02401  1.0000
  H   H9        1.0  0.62003  0.23373  0.25275  1.0000
  H   H10       1.0  0.87997  0.74723  0.76627  1.0000
  H   H11       1.0  0.37997  0.76626  0.74724  1.0000
  H   H12       1.0  0.12003  0.25277  0.23372  1.0000
  H   H13       1.0  0.57195  0.36754  0.76920  1.0000
  H   H14       1.0  0.92804  0.23080  0.63246  1.0000
  H   H15       1.0  0.42806  0.63246  0.23080  1.0000
  H   H16       1.0  0.07196  0.76920  0.36755  1.0000
  C   C1        1.0  0.42024  0.10925  0.31594  1.0000
  C   C2        1.0  0.07977  0.68404  0.89075  1.0000
  C   C3        1.0  0.57975  0.89075  0.68406  1.0000
  C   C4        1.0  0.92023  0.31596  0.10925  1.0000
  C   C5        1.0  0.34082  0.10151  0.44683  1.0000
  C   C6        1.0  0.15918  0.55315  0.89848  1.0000
  C   C7        1.0  0.65918  0.89850  0.55318  1.0000
  C   C8        1.0  0.84081  0.44685  0.10152  1.0000
  C   C9        1.0  0.55816  0.21870  0.35055  1.0000
  C   C10       1.0  0.94184  0.64943  0.78130  1.0000
  C   C11       1.0  0.44184  0.78130  0.64945  1.0000
  C   C12       1.0  0.05816  0.35056  0.21870  1.0000
  C   C13       1.0  0.61696  0.31309  0.51506  1.0000
  C   C14       1.0  0.88304  0.48493  0.68691  1.0000
  C   C15       1.0  0.38304  0.68691  0.48494  1.0000
  C   C16       1.0  0.11697  0.51506  0.31308  1.0000
  C   C17       1.0  0.53415  0.29420  0.63887  1.0000
  C   C18       1.0  0.96585  0.36112  0.70580  1.0000
  C   C19       1.0  0.46586  0.70580  0.36113  1.0000
  C   C20       1.0  0.03416  0.63888  0.29420  1.0000
  C   C21       1.0  0.75000  0.44584  0.55417  1.0000
  C   C22       1.0  0.25000  0.55416  0.44583  1.0000
  N   N1        1.0  0.39673  0.19210  0.60493  1.0000
  N   N2        1.0  0.10327  0.39505  0.80790  1.0000
  N   N3        1.0  0.60327  0.80791  0.39508  1.0000
  N   N4        1.0  0.89673  0.60495  0.19210  1.0000
  Cl  Cl1       1.0  0.42381  0.28714  0.01649  1.0000
  Cl  Cl2       1.0  0.07619  0.98350  0.71286  1.0000
  Cl  Cl3       1.0  0.57618  0.71286  0.98351  1.0000
  Cl  Cl4       1.0  0.92382  0.01650  0.28714  1.0000
  O   O1        1.0  0.75000  0.52542  0.47459  1.0000
  O   O2        1.0  0.25000  0.47458  0.52540  1.0000
