data_image0
_chemical_formula_structural       Cd2H28C20O14
_chemical_formula_sum              "Cd2 H28 C20 O14"
_cell_length_a       5.25225
_cell_length_b       5.25211
_cell_length_c       23.4874
_cell_angle_alpha    96.5542
_cell_angle_beta     96.5467
_cell_angle_gamma    82.4077

_space_group_name_H-M_alt    "P 1"
_space_group_IT_number       1

loop_
  _space_group_symop_operation_xyz
  'x, y, z'

loop_
  _atom_site_type_symbol
  _atom_site_label
  _atom_site_symmetry_multiplicity
  _atom_site_fract_x
  _atom_site_fract_y
  _atom_site_fract_z
  _atom_site_occupancy
  Cd  Cd1       1.0  0.81361  0.18630  0.75001  1.0000
  Cd  Cd2       1.0  0.18639  0.81369  0.24999  1.0000
  H   H1        1.0  0.33159  0.50236  0.76801  1.0000
  H   H2        1.0  0.49767  0.66842  0.73202  1.0000
  H   H3        1.0  0.66841  0.49765  0.23199  1.0000
  H   H4        1.0  0.50234  0.33158  0.26798  1.0000
  H   H5        1.0  0.65074  0.77630  0.66696  1.0000
  H   H6        1.0  0.22363  0.34921  0.83302  1.0000
  H   H7        1.0  0.34929  0.22367  0.33304  1.0000
  H   H8        1.0  0.77637  0.65078  0.16697  1.0000
  H   H9        1.0  0.38096  0.98069  0.68049  1.0000
  H   H10       1.0  0.01928  0.61899  0.81950  1.0000
  H   H11       1.0  0.61906  0.01929  0.31951  1.0000
  H   H12       1.0  0.98072  0.38100  0.18050  1.0000
  H   H13       1.0  0.46387  0.83231  0.90956  1.0000
  H   H14       1.0  0.16764  0.53617  0.59046  1.0000
  H   H15       1.0  0.53612  0.16771  0.09044  1.0000
  H   H16       1.0  0.83234  0.46386  0.40955  1.0000
  H   H17       1.0  0.72410  0.60183  0.88753  1.0000
  H   H18       1.0  0.39812  0.27590  0.61247  1.0000
  H   H19       1.0  0.27588  0.39817  0.11247  1.0000
  H   H20       1.0  0.60188  0.72411  0.38753  1.0000
  H   H21       1.0  0.12585  0.57031  0.94830  1.0000
  H   H22       1.0  0.42962  0.87416  0.55170  1.0000
  H   H23       1.0  0.87414  0.42969  0.05170  1.0000
  H   H24       1.0  0.57035  0.12587  0.44830  1.0000
  H   H25       1.0  0.58722  0.25844  0.96879  1.0000
  H   H26       1.0  0.74155  0.41280  0.53122  1.0000
  H   H27       1.0  0.41277  0.74158  0.03120  1.0000
  H   H28       1.0  0.25843  0.58722  0.46879  1.0000
  C   C1        1.0  0.83676  0.90299  0.95260  1.0000
  C   C2        1.0  0.09696  0.16325  0.54740  1.0000
  C   C3        1.0  0.16325  0.09699  0.04739  1.0000
  C   C4        1.0  0.90305  0.83675  0.45261  1.0000
  C   C5        1.0  0.66645  0.80709  0.90038  1.0000
  C   C6        1.0  0.19286  0.33356  0.59962  1.0000
  C   C7        1.0  0.33354  0.19290  0.09962  1.0000
  C   C8        1.0  0.80715  0.66644  0.40037  1.0000
  C   C9        1.0  0.07070  0.76009  0.97067  1.0000
  C   C10       1.0  0.23989  0.92933  0.52933  1.0000
  C   C11       1.0  0.92930  0.23992  0.02932  1.0000
  C   C12       1.0  0.76009  0.07071  0.47068  1.0000
  C   C13       1.0  0.76848  0.14450  0.98257  1.0000
  C   C14       1.0  0.85551  0.23155  0.51744  1.0000
  C   C15       1.0  0.23153  0.85551  0.01743  1.0000
  C   C16       1.0  0.14449  0.76846  0.48256  1.0000
  C   C17       1.0  0.68808  0.96672  0.85131  1.0000
  C   C18       1.0  0.03321  0.31188  0.64871  1.0000
  C   C19       1.0  0.31190  0.03326  0.14869  1.0000
  C   C20       1.0  0.96682  0.68810  0.35130  1.0000
  O   O1        1.0  0.49292  0.50747  0.75010  1.0000
  O   O2        1.0  0.50709  0.49255  0.24991  1.0000
  O   O3        1.0  0.52913  0.16175  0.84249  1.0000
  O   O4        1.0  0.83810  0.47079  0.65751  1.0000
  O   O5        1.0  0.47089  0.83824  0.15751  1.0000
  O   O6        1.0  0.16189  0.52916  0.34250  1.0000
  O   O7        1.0  0.88257  0.90038  0.82115  1.0000
  O   O8        1.0  0.09964  0.11742  0.67887  1.0000
  O   O9        1.0  0.11741  0.09965  0.17885  1.0000
  O   O10       1.0  0.90037  0.88256  0.32114  1.0000
  O   O11       1.0  0.56206  0.90282  0.69491  1.0000
  O   O12       1.0  0.09715  0.43787  0.80508  1.0000
  O   O13       1.0  0.43795  0.09717  0.30509  1.0000
  O   O14       1.0  0.90285  0.56213  0.19492  1.0000
