data_image0
_chemical_formula_structural       Cu2H12C12N10
_chemical_formula_sum              "Cu2 H12 C12 N10"
_cell_length_a       5.33431
_cell_length_b       7.50918
_cell_length_c       10.6633
_cell_angle_alpha    89.9981
_cell_angle_beta     89.9993
_cell_angle_gamma    89.9433

_space_group_name_H-M_alt    "P 1"
_space_group_IT_number       1

loop_
  _space_group_symop_operation_xyz
  'x, y, z'

loop_
  _atom_site_type_symbol
  _atom_site_label
  _atom_site_symmetry_multiplicity
  _atom_site_fract_x
  _atom_site_fract_y
  _atom_site_fract_z
  _atom_site_occupancy
  Cu  Cu1       1.0  0.36692  0.74991  0.75001  1.0000
  Cu  Cu2       1.0  0.63307  0.25012  0.25000  1.0000
  H   H1        1.0  0.57312  0.75016  0.97911  1.0000
  H   H2        1.0  0.57314  0.75011  0.52091  1.0000
  H   H3        1.0  0.42686  0.24989  0.02088  1.0000
  H   H4        1.0  0.42676  0.24980  0.47911  1.0000
  H   H5        1.0  0.74264  0.86928  0.09747  1.0000
  H   H6        1.0  0.74268  0.63073  0.40255  1.0000
  H   H7        1.0  0.25735  0.36926  0.90255  1.0000
  H   H8        1.0  0.25733  0.13072  0.59744  1.0000
  H   H9        1.0  0.25737  0.13078  0.90253  1.0000
  H   H10       1.0  0.25736  0.36912  0.59742  1.0000
  H   H11       1.0  0.74264  0.63078  0.09745  1.0000
  H   H12       1.0  0.74266  0.86924  0.40253  1.0000
  C   C1        1.0  0.68381  0.39973  0.75000  1.0000
  C   C2        1.0  0.68379  0.09965  0.75000  1.0000
  C   C3        1.0  0.31625  0.90036  0.25000  1.0000
  C   C4        1.0  0.31618  0.60029  0.25000  1.0000
  C   C5        1.0  0.74278  0.75004  0.03780  1.0000
  C   C6        1.0  0.74278  0.74999  0.46220  1.0000
  C   C7        1.0  0.25719  0.25001  0.96221  1.0000
  C   C8        1.0  0.25718  0.24992  0.53778  1.0000
  C   C9        1.0  0.96094  0.74987  0.95810  1.0000
  C   C10       1.0  0.96096  0.74985  0.54188  1.0000
  C   C11       1.0  0.03905  0.25017  0.04190  1.0000
  C   C12       1.0  0.03910  0.25011  0.45813  1.0000
  N   N1        1.0  0.80564  0.24959  0.75000  1.0000
  N   N2        1.0  0.19436  0.75044  0.25000  1.0000
  N   N3        1.0  0.58357  0.53962  0.75001  1.0000
  N   N4        1.0  0.58336  0.95995  0.75000  1.0000
  N   N5        1.0  0.41669  0.04004  0.25000  1.0000
  N   N6        1.0  0.41646  0.46044  0.25000  1.0000
  N   N7        1.0  0.13591  0.74986  0.89267  1.0000
  N   N8        1.0  0.13591  0.74982  0.60733  1.0000
  N   N9        1.0  0.86406  0.25019  0.10732  1.0000
  N   N10       1.0  0.86414  0.25015  0.39270  1.0000
