data_image0
_chemical_formula_structural       Sn4H56C36S4O8
_chemical_formula_sum              "Sn4 H56 C36 S4 O8"
_cell_length_a       9.51442
_cell_length_b       9.97504
_cell_length_c       13.7922
_cell_angle_alpha    69.5974
_cell_angle_beta     70.8279
_cell_angle_gamma    74.9733

_space_group_name_H-M_alt    "P 1"
_space_group_IT_number       1

loop_
  _space_group_symop_operation_xyz
  'x, y, z'

loop_
  _atom_site_type_symbol
  _atom_site_label
  _atom_site_symmetry_multiplicity
  _atom_site_fract_x
  _atom_site_fract_y
  _atom_site_fract_z
  _atom_site_occupancy
  Sn  Sn1       1.0  0.94685  0.57023  0.22004  1.0000
  Sn  Sn2       1.0  0.05315  0.42977  0.77996  1.0000
  Sn  Sn3       1.0  0.04578  0.01237  0.28196  1.0000
  Sn  Sn4       1.0  0.95421  0.98763  0.71805  1.0000
  H   H1        1.0  0.32689  0.25069  0.02027  1.0000
  H   H2        1.0  0.67310  0.74932  0.97973  1.0000
  H   H3        1.0  0.48944  0.30251  0.91837  1.0000
  H   H4        1.0  0.51056  0.69751  0.08163  1.0000
  H   H5        1.0  0.39294  0.40728  0.00939  1.0000
  H   H6        1.0  0.60707  0.59272  0.99061  1.0000
  H   H7        1.0  0.73350  0.16946  0.24287  1.0000
  H   H8        1.0  0.26650  0.83053  0.75714  1.0000
  H   H9        1.0  0.86418  0.36148  0.17565  1.0000
  H   H10       1.0  0.13582  0.63853  0.82433  1.0000
  H   H11       1.0  0.85420  0.52573  0.06915  1.0000
  H   H12       1.0  0.14582  0.47429  0.93084  1.0000
  H   H13       1.0  0.70687  0.50481  0.19103  1.0000
  H   H14       1.0  0.29314  0.49520  0.80896  1.0000
  H   H15       1.0  0.80169  0.58204  0.42299  1.0000
  H   H16       1.0  0.19830  0.41796  0.57701  1.0000
  H   H17       1.0  0.00007  0.54487  0.40757  1.0000
  H   H18       1.0  0.99992  0.45512  0.59243  1.0000
  H   H19       1.0  0.90397  0.40240  0.42667  1.0000
  H   H20       1.0  0.09602  0.59759  0.57332  1.0000
  H   H21       1.0  0.18588  0.71833  0.14435  1.0000
  H   H22       1.0  0.81412  0.28168  0.85565  1.0000
  H   H23       1.0  0.08181  0.76957  0.04746  1.0000
  H   H24       1.0  0.91819  0.23045  0.95254  1.0000
  H   H25       1.0  0.20861  0.60148  0.06492  1.0000
  H   H26       1.0  0.79139  0.39854  0.93508  1.0000
  H   H27       1.0  0.85415  0.21730  0.37042  1.0000
  H   H28       1.0  0.14585  0.78269  0.62958  1.0000
  H   H29       1.0  0.88517  0.05357  0.47445  1.0000
  H   H30       1.0  0.11483  0.94643  0.52556  1.0000
  H   H31       1.0  0.75709  0.06963  0.40029  1.0000
  H   H32       1.0  0.24291  0.93037  0.59972  1.0000
  H   H33       1.0  0.98454  0.10707  0.08962  1.0000
  H   H34       1.0  0.01547  0.89291  0.91038  1.0000
  H   H35       1.0  0.18384  0.05439  0.06967  1.0000
  H   H36       1.0  0.81617  0.94560  0.93033  1.0000
  H   H37       1.0  0.09328  0.22578  0.09456  1.0000
  H   H38       1.0  0.90672  0.77421  0.90545  1.0000
  H   H39       1.0  0.15702  0.72780  0.30459  1.0000
  H   H40       1.0  0.84298  0.27220  0.69541  1.0000
  H   H41       1.0  0.14918  0.76797  0.42245  1.0000
  H   H42       1.0  0.85081  0.23203  0.57756  1.0000
  H   H43       1.0  0.29795  0.81855  0.30432  1.0000
  H   H44       1.0  0.70206  0.18145  0.69568  1.0000
  H   H45       1.0  0.45947  0.53140  0.36368  1.0000
  H   H46       1.0  0.54055  0.46859  0.63631  1.0000
  H   H47       1.0  0.28973  0.52237  0.24891  1.0000
  H   H48       1.0  0.71029  0.47763  0.75108  1.0000
  H   H49       1.0  0.55861  0.37255  0.13482  1.0000
  H   H50       1.0  0.44139  0.62744  0.86518  1.0000
  H   H51       1.0  0.59187  0.15813  0.54655  1.0000
  H   H52       1.0  0.40813  0.84186  0.45345  1.0000
  H   H53       1.0  0.44938  0.27914  0.60791  1.0000
  H   H54       1.0  0.55062  0.72087  0.39209  1.0000
  H   H55       1.0  0.60893  0.34393  0.50619  1.0000
  H   H56       1.0  0.39108  0.65607  0.49380  1.0000
  C   C1        1.0  0.42861  0.29655  0.00243  1.0000
  C   C2        1.0  0.57139  0.70346  0.99757  1.0000
  C   C3        1.0  0.52518  0.20984  0.07647  1.0000
  C   C4        1.0  0.47482  0.79016  0.92353  1.0000
  C   C5        1.0  0.67770  0.15079  0.19270  1.0000
  C   C6        1.0  0.32229  0.84921  0.80731  1.0000
  C   C7        1.0  0.44737  0.30302  0.44726  1.0000
  C   C8        1.0  0.55262  0.69698  0.55275  1.0000
  C   C9        1.0  0.19707  0.24886  0.29121  1.0000
  C   C10       1.0  0.80292  0.75114  0.70879  1.0000
  C   C11       1.0  0.82842  0.47887  0.15647  1.0000
  C   C12       1.0  0.17159  0.52114  0.84352  1.0000
  C   C13       1.0  0.69235  0.01629  0.17917  1.0000
  C   C14       1.0  0.30764  0.98371  0.82083  1.0000
  C   C15       1.0  0.78820  0.87976  0.21926  1.0000
  C   C16       1.0  0.21179  0.12024  0.78074  1.0000
  C   C17       1.0  0.90800  0.51846  0.39010  1.0000
  C   C18       1.0  0.09200  0.48154  0.60990  1.0000
  C   C19       1.0  0.28608  0.29595  0.33899  1.0000
  C   C20       1.0  0.71391  0.70405  0.66102  1.0000
  C   C21       1.0  0.12833  0.67766  0.10607  1.0000
  C   C22       1.0  0.87167  0.32236  0.89393  1.0000
  C   C23       1.0  0.86268  0.09912  0.39531  1.0000
  C   C24       1.0  0.13733  0.90087  0.60470  1.0000
  C   C25       1.0  0.08195  0.11264  0.11271  1.0000
  C   C26       1.0  0.91805  0.88735  0.88729  1.0000
  C   C27       1.0  0.17879  0.80609  0.33475  1.0000
  C   C28       1.0  0.82121  0.19390  0.66526  1.0000
  C   C29       1.0  0.41748  0.43492  0.37273  1.0000
  C   C30       1.0  0.58253  0.56507  0.62727  1.0000
  C   C31       1.0  0.32510  0.43108  0.31205  1.0000
  C   C32       1.0  0.67491  0.56892  0.68794  1.0000
  C   C33       1.0  0.58329  0.25992  0.13461  1.0000
  C   C34       1.0  0.41671  0.74007  0.86539  1.0000
  C   C35       1.0  0.52884  0.26892  0.53105  1.0000
  C   C36       1.0  0.47116  0.73108  0.46895  1.0000
  S   S1        1.0  0.36468  0.17450  0.43922  1.0000
  S   S2        1.0  0.63529  0.82550  0.56079  1.0000
  S   S3        1.0  0.58540  0.02627  0.09575  1.0000
  S   S4        1.0  0.41461  0.97374  0.90424  1.0000
  O   O1        1.0  0.20386  0.11023  0.31571  1.0000
  O   O2        1.0  0.79613  0.88978  0.68430  1.0000
  O   O3        1.0  0.77148  0.76747  0.19979  1.0000
  O   O4        1.0  0.22852  0.23252  0.80021  1.0000
  O   O5        1.0  0.12025  0.34067  0.22983  1.0000
  O   O6        1.0  0.87975  0.65933  0.77017  1.0000
  O   O7        1.0  0.88271  0.87345  0.26820  1.0000
  O   O8        1.0  0.11729  0.12654  0.73180  1.0000
