data_image0
_chemical_formula_structural       Zn4H36C44N12O16
_chemical_formula_sum              "Zn4 H36 C44 N12 O16"
_cell_length_a       9.44579
_cell_length_b       10.3022
_cell_length_c       12.0591
_cell_angle_alpha    90
_cell_angle_beta     94.5244
_cell_angle_gamma    90.0001

_space_group_name_H-M_alt    "P 1"
_space_group_IT_number       1

loop_
  _space_group_symop_operation_xyz
  'x, y, z'

loop_
  _atom_site_type_symbol
  _atom_site_label
  _atom_site_symmetry_multiplicity
  _atom_site_fract_x
  _atom_site_fract_y
  _atom_site_fract_z
  _atom_site_occupancy
  Zn  Zn1       1.0  0.71657  0.00947  0.06017  1.0000
  Zn  Zn2       1.0  0.28343  0.50947  0.43983  1.0000
  Zn  Zn3       1.0  0.28343  0.99052  0.93983  1.0000
  Zn  Zn4       1.0  0.71657  0.49052  0.56017  1.0000
  H   H1        1.0  0.59580  0.29902  0.79364  1.0000
  H   H2        1.0  0.40420  0.79902  0.70635  1.0000
  H   H3        1.0  0.40420  0.70098  0.20635  1.0000
  H   H4        1.0  0.59580  0.20098  0.29364  1.0000
  H   H5        1.0  0.61817  0.71588  0.78950  1.0000
  H   H6        1.0  0.38183  0.21588  0.71050  1.0000
  H   H7        1.0  0.38183  0.28412  0.21051  1.0000
  H   H8        1.0  0.61817  0.78412  0.28950  1.0000
  H   H9        1.0  0.71249  0.50654  0.09585  1.0000
  H   H10       1.0  0.28751  0.00654  0.40415  1.0000
  H   H11       1.0  0.28751  0.49346  0.90415  1.0000
  H   H12       1.0  0.71249  0.99346  0.59585  1.0000
  H   H13       1.0  0.90078  0.20834  0.21930  1.0000
  H   H14       1.0  0.09922  0.70834  0.28070  1.0000
  H   H15       1.0  0.09922  0.79166  0.78070  1.0000
  H   H16       1.0  0.90078  0.29166  0.71930  1.0000
  H   H17       1.0  0.00320  0.84411  0.08718  1.0000
  H   H18       1.0  0.99680  0.34411  0.41282  1.0000
  H   H19       1.0  0.99680  0.15589  0.91282  1.0000
  H   H20       1.0  0.00320  0.65590  0.58718  1.0000
  H   H21       1.0  0.23208  0.92962  0.22652  1.0000
  H   H22       1.0  0.76792  0.42961  0.27348  1.0000
  H   H23       1.0  0.76793  0.07038  0.77348  1.0000
  H   H24       1.0  0.23208  0.57039  0.72652  1.0000
  H   H25       1.0  0.48626  0.42800  0.64352  1.0000
  H   H26       1.0  0.51374  0.92800  0.85648  1.0000
  H   H27       1.0  0.51374  0.57200  0.35648  1.0000
  H   H28       1.0  0.48626  0.07200  0.14352  1.0000
  H   H29       1.0  0.49378  0.58741  0.63940  1.0000
  H   H30       1.0  0.50622  0.08741  0.86060  1.0000
  H   H31       1.0  0.50622  0.41259  0.36060  1.0000
  H   H32       1.0  0.49378  0.91259  0.13940  1.0000
  H   H33       1.0  0.15509  0.15055  0.30018  1.0000
  H   H34       1.0  0.84491  0.65054  0.19983  1.0000
  H   H35       1.0  0.84491  0.84946  0.69983  1.0000
  H   H36       1.0  0.15509  0.34946  0.80017  1.0000
  C   C1        1.0  0.65643  0.39043  0.95175  1.0000
  C   C2        1.0  0.34357  0.89043  0.54825  1.0000
  C   C3        1.0  0.34357  0.60957  0.04825  1.0000
  C   C4        1.0  0.65643  0.10957  0.45175  1.0000
  C   C5        1.0  0.61363  0.39025  0.83807  1.0000
  C   C6        1.0  0.38637  0.89025  0.66193  1.0000
  C   C7        1.0  0.38637  0.60975  0.16193  1.0000
  C   C8        1.0  0.61363  0.10975  0.33807  1.0000
  C   C9        1.0  0.59593  0.50757  0.78056  1.0000
  C   C10       1.0  0.40407  0.00757  0.71944  1.0000
  C   C11       1.0  0.40407  0.49243  0.21944  1.0000
  C   C12       1.0  0.59593  0.99243  0.28056  1.0000
  C   C13       1.0  0.62686  0.62491  0.83533  1.0000
  C   C14       1.0  0.37314  0.12491  0.66467  1.0000
  C   C15       1.0  0.37313  0.37509  0.16467  1.0000
  C   C16       1.0  0.62686  0.87509  0.33533  1.0000
  C   C17       1.0  0.67054  0.62524  0.94903  1.0000
  C   C18       1.0  0.32946  0.12525  0.55097  1.0000
  C   C19       1.0  0.32946  0.37475  0.05097  1.0000
  C   C20       1.0  0.67054  0.87476  0.44903  1.0000
  C   C21       1.0  0.68366  0.50788  0.00698  1.0000
  C   C22       1.0  0.31634  0.00788  0.49302  1.0000
  C   C23       1.0  0.31634  0.49212  0.99302  1.0000
  C   C24       1.0  0.68366  0.99212  0.50698  1.0000
  C   C25       1.0  0.67223  0.26652  0.01629  1.0000
  C   C26       1.0  0.32777  0.76652  0.48371  1.0000
  C   C27       1.0  0.32777  0.73348  0.98371  1.0000
  C   C28       1.0  0.67223  0.23348  0.51629  1.0000
  C   C29       1.0  0.69914  0.74966  0.01055  1.0000
  C   C30       1.0  0.30086  0.24966  0.48945  1.0000
  C   C31       1.0  0.30085  0.25034  0.98945  1.0000
  C   C32       1.0  0.69914  0.75033  0.51055  1.0000
  C   C33       1.0  0.95880  0.12054  0.20308  1.0000
  C   C34       1.0  0.04120  0.62054  0.29692  1.0000
  C   C35       1.0  0.04120  0.87946  0.79692  1.0000
  C   C36       1.0  0.95880  0.37947  0.70308  1.0000
  C   C37       1.0  0.01623  0.93207  0.13593  1.0000
  C   C38       1.0  0.98377  0.43207  0.36407  1.0000
  C   C39       1.0  0.98377  0.06793  0.86407  1.0000
  C   C40       1.0  0.01623  0.56793  0.63593  1.0000
  C   C41       1.0  0.13035  0.97436  0.20377  1.0000
  C   C42       1.0  0.86965  0.47436  0.29623  1.0000
  C   C43       1.0  0.86965  0.02564  0.79623  1.0000
  C   C44       1.0  0.13035  0.52564  0.70377  1.0000
  N   N1        1.0  0.55117  0.50601  0.66453  1.0000
  N   N2        1.0  0.44883  0.00601  0.83547  1.0000
  N   N3        1.0  0.44883  0.49399  0.33547  1.0000
  N   N4        1.0  0.55117  0.99399  0.16453  1.0000
  N   N5        1.0  0.90943  0.02409  0.13627  1.0000
  N   N6        1.0  0.09057  0.52409  0.36373  1.0000
  N   N7        1.0  0.09057  0.97591  0.86373  1.0000
  N   N8        1.0  0.90943  0.47591  0.63627  1.0000
  N   N9        1.0  0.09186  0.09273  0.24515  1.0000
  N   N10       1.0  0.90814  0.59273  0.25485  1.0000
  N   N11       1.0  0.90814  0.90727  0.75485  1.0000
  N   N12       1.0  0.09186  0.40727  0.74515  1.0000
  O   O1        1.0  0.69621  0.26860  0.11982  1.0000
  O   O2        1.0  0.30379  0.76860  0.38018  1.0000
  O   O3        1.0  0.30379  0.73140  0.88018  1.0000
  O   O4        1.0  0.69621  0.23140  0.61982  1.0000
  O   O5        1.0  0.66125  0.15915  0.95857  1.0000
  O   O6        1.0  0.33875  0.65915  0.54143  1.0000
  O   O7        1.0  0.33875  0.84085  0.04143  1.0000
  O   O8        1.0  0.66125  0.34085  0.45857  1.0000
  O   O9        1.0  0.74256  0.74874  0.11226  1.0000
  O   O10       1.0  0.25744  0.24875  0.38774  1.0000
  O   O11       1.0  0.25744  0.25126  0.88774  1.0000
  O   O12       1.0  0.74256  0.75125  0.61226  1.0000
  O   O13       1.0  0.67635  0.85723  0.95611  1.0000
  O   O14       1.0  0.32364  0.35723  0.54389  1.0000
  O   O15       1.0  0.32364  0.14277  0.04389  1.0000
  O   O16       1.0  0.67636  0.64277  0.45611  1.0000
