data_image0
_chemical_formula_structural       Mn2H12C16Br4N8
_chemical_formula_sum              "Mn2 H12 C16 Br4 N8"
_cell_length_a       7.84784
_cell_length_b       9.52756
_cell_length_c       9.59643
_cell_angle_alpha    62.102
_cell_angle_beta     65.8042
_cell_angle_gamma    65.6298

_space_group_name_H-M_alt    "P 1"
_space_group_IT_number       1

loop_
  _space_group_symop_operation_xyz
  'x, y, z'

loop_
  _atom_site_type_symbol
  _atom_site_label
  _atom_site_symmetry_multiplicity
  _atom_site_fract_x
  _atom_site_fract_y
  _atom_site_fract_z
  _atom_site_occupancy
  Mn  Mn1       1.0  0.76694  0.74996  0.24974  1.0000
  Mn  Mn2       1.0  0.23307  0.25003  0.75026  1.0000
  H   H1        1.0  0.88143  0.39966  0.21062  1.0000
  H   H2        1.0  0.49110  0.10023  0.28974  1.0000
  H   H3        1.0  0.11857  0.60034  0.78938  1.0000
  H   H4        1.0  0.50891  0.89977  0.71027  1.0000
  H   H5        1.0  0.07878  0.10278  0.33204  1.0000
  H   H6        1.0  0.51290  0.39707  0.16843  1.0000
  H   H7        1.0  0.92122  0.89722  0.66796  1.0000
  H   H8        1.0  0.48710  0.60293  0.83157  1.0000
  H   H9        1.0  0.20089  0.03651  0.56617  1.0000
  H   H10       1.0  0.80305  0.46337  0.93425  1.0000
  H   H11       1.0  0.79911  0.96349  0.43383  1.0000
  H   H12       1.0  0.19695  0.53663  0.06576  1.0000
  C   C1        1.0  0.94751  0.36051  0.30767  1.0000
  C   C2        1.0  0.61516  0.13939  0.19252  1.0000
  C   C3        1.0  0.05248  0.63949  0.69233  1.0000
  C   C4        1.0  0.38485  0.86061  0.80748  1.0000
  C   C5        1.0  0.05119  0.19777  0.37712  1.0000
  C   C6        1.0  0.62556  0.30209  0.12323  1.0000
  C   C7        1.0  0.94880  0.80223  0.62288  1.0000
  C   C8        1.0  0.37445  0.69791  0.87678  1.0000
  C   C9        1.0  0.12059  0.16169  0.50530  1.0000
  C   C10       1.0  0.78721  0.33824  0.99500  1.0000
  C   C11       1.0  0.87941  0.83831  0.49470  1.0000
  C   C12       1.0  0.21279  0.66177  0.00500  1.0000
  C   C13       1.0  0.00596  0.43432  0.47660  1.0000
  C   C14       1.0  0.91677  0.06567  0.02348  1.0000
  C   C15       1.0  0.99403  0.56568  0.52340  1.0000
  C   C16       1.0  0.08322  0.93434  0.97653  1.0000
  Br  Br1       1.0  0.44643  0.77307  0.46472  1.0000
  Br  Br2       1.0  0.68308  0.72580  0.03639  1.0000
  Br  Br3       1.0  0.55359  0.22690  0.53528  1.0000
  Br  Br4       1.0  0.31693  0.27421  0.96360  1.0000
  N   N1        1.0  0.92776  0.47981  0.35495  1.0000
  N   N2        1.0  0.76215  0.02019  0.14496  1.0000
  N   N3        1.0  0.07223  0.52019  0.64505  1.0000
  N   N4        1.0  0.23786  0.97981  0.85504  1.0000
  N   N5        1.0  0.09583  0.27959  0.55708  1.0000
  N   N6        1.0  0.93240  0.22036  0.94325  1.0000
  N   N7        1.0  0.90415  0.72041  0.44292  1.0000
  N   N8        1.0  0.06760  0.77964  0.05676  1.0000
