data_image0
_chemical_formula_structural       Cd4H40C44I8N16
_chemical_formula_sum              "Cd4 H40 C44 I8 N16"
_cell_length_a       9.08177
_cell_length_b       13.3256
_cell_length_c       14.73
_cell_angle_alpha    89.9985
_cell_angle_beta     88.9258
_cell_angle_gamma    90.0006

_space_group_name_H-M_alt    "P 1"
_space_group_IT_number       1

loop_
  _space_group_symop_operation_xyz
  'x, y, z'

loop_
  _atom_site_type_symbol
  _atom_site_label
  _atom_site_symmetry_multiplicity
  _atom_site_fract_x
  _atom_site_fract_y
  _atom_site_fract_z
  _atom_site_occupancy
  Cd  Cd1       1.0  0.34815  0.25259  0.44241  1.0000
  Cd  Cd2       1.0  0.15185  0.75259  0.05759  1.0000
  Cd  Cd3       1.0  0.65187  0.74741  0.55759  1.0000
  Cd  Cd4       1.0  0.84813  0.24741  0.94242  1.0000
  H   H1        1.0  0.33470  0.07312  0.85358  1.0000
  H   H2        1.0  0.16532  0.57313  0.64641  1.0000
  H   H3        1.0  0.66530  0.92687  0.14641  1.0000
  H   H4        1.0  0.83471  0.42687  0.35359  1.0000
  H   H5        1.0  0.48743  0.10088  0.60141  1.0000
  H   H6        1.0  0.01258  0.60088  0.89860  1.0000
  H   H7        1.0  0.51257  0.89913  0.39859  1.0000
  H   H8        1.0  0.98743  0.39913  0.10141  1.0000
  H   H9        1.0  0.40040  0.41129  0.63150  1.0000
  H   H10       1.0  0.09962  0.91128  0.86849  1.0000
  H   H11       1.0  0.59965  0.58872  0.36850  1.0000
  H   H12       1.0  0.90036  0.08872  0.13152  1.0000
  H   H13       1.0  0.52679  0.34058  0.78923  1.0000
  H   H14       1.0  0.97322  0.84058  0.71077  1.0000
  H   H15       1.0  0.47323  0.65942  0.21077  1.0000
  H   H16       1.0  0.02678  0.15942  0.28924  1.0000
  H   H17       1.0  0.72207  0.15635  0.77381  1.0000
  H   H18       1.0  0.77795  0.65635  0.72619  1.0000
  H   H19       1.0  0.27793  0.84364  0.22619  1.0000
  H   H20       1.0  0.22207  0.34364  0.27381  1.0000
  H   H21       1.0  0.59966  0.05866  0.74586  1.0000
  H   H22       1.0  0.90035  0.55866  0.75414  1.0000
  H   H23       1.0  0.40033  0.94133  0.25414  1.0000
  H   H24       1.0  0.09968  0.44133  0.24586  1.0000
  H   H25       1.0  0.18776  0.04104  0.02796  1.0000
  H   H26       1.0  0.31224  0.54106  0.47203  1.0000
  H   H27       1.0  0.81222  0.95894  0.97202  1.0000
  H   H28       1.0  0.68779  0.45894  0.52798  1.0000
  H   H29       1.0  0.22973  0.07626  0.19178  1.0000
  H   H30       1.0  0.27024  0.57627  0.30821  1.0000
  H   H31       1.0  0.77023  0.92371  0.80820  1.0000
  H   H32       1.0  0.72977  0.42372  0.69179  1.0000
  H   H33       1.0  0.45136  0.16580  0.24161  1.0000
  H   H34       1.0  0.04859  0.66580  0.25838  1.0000
  H   H35       1.0  0.54858  0.83420  0.75838  1.0000
  H   H36       1.0  0.95143  0.33420  0.74162  1.0000
  H   H37       1.0  0.64592  0.21995  0.13101  1.0000
  H   H38       1.0  0.85405  0.71995  0.36899  1.0000
  H   H39       1.0  0.35402  0.78006  0.86899  1.0000
  H   H40       1.0  0.14597  0.28006  0.63102  1.0000
  C   C1        1.0  0.47763  0.17594  0.62980  1.0000
  C   C2        1.0  0.02239  0.67594  0.87020  1.0000
  C   C3        1.0  0.52238  0.82406  0.37020  1.0000
  C   C4        1.0  0.97762  0.32406  0.12981  1.0000
  C   C5        1.0  0.43396  0.33566  0.64876  1.0000
  C   C6        1.0  0.06607  0.83567  0.85124  1.0000
  C   C7        1.0  0.56607  0.66434  0.35124  1.0000
  C   C8        1.0  0.93392  0.16433  0.14876  1.0000
  C   C9        1.0  0.49642  0.30225  0.72727  1.0000
  C   C10       1.0  0.00359  0.80226  0.77272  1.0000
  C   C11       1.0  0.50361  0.69775  0.27274  1.0000
  C   C12       1.0  0.99640  0.19774  0.22728  1.0000
  C   C13       1.0  0.60510  0.13486  0.77438  1.0000
  C   C14       1.0  0.89491  0.63486  0.72562  1.0000
  C   C15       1.0  0.39489  0.86513  0.22562  1.0000
  C   C16       1.0  0.10511  0.36513  0.27438  1.0000
  C   C17       1.0  0.54791  0.13614  0.86978  1.0000
  C   C18       1.0  0.95209  0.63615  0.63022  1.0000
  C   C19       1.0  0.45208  0.86385  0.13022  1.0000
  C   C20       1.0  0.04792  0.36385  0.36978  1.0000
  C   C21       1.0  0.39852  0.10792  0.98874  1.0000
  C   C22       1.0  0.10148  0.60793  0.51125  1.0000
  C   C23       1.0  0.60145  0.89207  0.01125  1.0000
  C   C24       1.0  0.89855  0.39207  0.48874  1.0000
  C   C25       1.0  0.28748  0.07865  0.04990  1.0000
  C   C26       1.0  0.21250  0.57867  0.45009  1.0000
  C   C27       1.0  0.71249  0.92134  0.95009  1.0000
  C   C28       1.0  0.78752  0.42134  0.54991  1.0000
  C   C29       1.0  0.31156  0.09945  0.14101  1.0000
  C   C30       1.0  0.18841  0.59946  0.35898  1.0000
  C   C31       1.0  0.68840  0.90054  0.85898  1.0000
  C   C32       1.0  0.81161  0.40054  0.64102  1.0000
  C   C33       1.0  0.43910  0.14964  0.16965  1.0000
  C   C34       1.0  0.06086  0.64964  0.33035  1.0000
  C   C35       1.0  0.56085  0.85036  0.83034  1.0000
  C   C36       1.0  0.93915  0.35037  0.66966  1.0000
  C   C37       1.0  0.54912  0.17947  0.10846  1.0000
  C   C38       1.0  0.95086  0.67947  0.39153  1.0000
  C   C39       1.0  0.45083  0.82054  0.89153  1.0000
  C   C40       1.0  0.04917  0.32054  0.60847  1.0000
  C   C41       1.0  0.52911  0.15613  0.01689  1.0000
  C   C42       1.0  0.97088  0.65613  0.48311  1.0000
  C   C43       1.0  0.47086  0.84387  0.98311  1.0000
  C   C44       1.0  0.02915  0.34388  0.51689  1.0000
  I   I1        1.0  0.27282  0.05576  0.41185  1.0000
  I   I2        1.0  0.22719  0.55576  0.08814  1.0000
  I   I3        1.0  0.72719  0.94425  0.58815  1.0000
  I   I4        1.0  0.77281  0.44425  0.91186  1.0000
  I   I5        1.0  0.52890  0.37217  0.33346  1.0000
  I   I6        1.0  0.97108  0.87217  0.16652  1.0000
  I   I7        1.0  0.47112  0.62782  0.66653  1.0000
  I   I8        1.0  0.02889  0.12784  0.83348  1.0000
  N   N1        1.0  0.42276  0.25639  0.58871  1.0000
  N   N2        1.0  0.07726  0.75638  0.91129  1.0000
  N   N3        1.0  0.57727  0.74362  0.41129  1.0000
  N   N4        1.0  0.92273  0.24362  0.08872  1.0000
  N   N5        1.0  0.52370  0.20110  0.71396  1.0000
  N   N6        1.0  0.97632  0.70110  0.78604  1.0000
  N   N7        1.0  0.47631  0.79890  0.28604  1.0000
  N   N8        1.0  0.02369  0.29890  0.21397  1.0000
  N   N9        1.0  0.61981  0.17191  0.94091  1.0000
  N   N10       1.0  0.88019  0.67191  0.55910  1.0000
  N   N11       1.0  0.38016  0.82809  0.05910  1.0000
  N   N12       1.0  0.11984  0.32809  0.44091  1.0000
  N   N13       1.0  0.41498  0.09724  0.89568  1.0000
  N   N14       1.0  0.08502  0.59725  0.60431  1.0000
  N   N15       1.0  0.58500  0.90275  0.10430  1.0000
  N   N16       1.0  0.91500  0.40275  0.39569  1.0000
