data_image0
_chemical_formula_structural       Cu4H28C28N4O28
_chemical_formula_sum              "Cu4 H28 C28 N4 O28"
_cell_length_a       5.90856
_cell_length_b       12.264
_cell_length_c       12.4275
_cell_angle_alpha    89.9932
_cell_angle_beta     89.9863
_cell_angle_gamma    91.3542

_space_group_name_H-M_alt    "P 1"
_space_group_IT_number       1

loop_
  _space_group_symop_operation_xyz
  'x, y, z'

loop_
  _atom_site_type_symbol
  _atom_site_label
  _atom_site_symmetry_multiplicity
  _atom_site_fract_x
  _atom_site_fract_y
  _atom_site_fract_z
  _atom_site_occupancy
  Cu  Cu1       1.0  0.37620  0.48687  0.63501  1.0000
  Cu  Cu2       1.0  0.12409  0.01318  0.13504  1.0000
  Cu  Cu3       1.0  0.62380  0.51314  0.36498  1.0000
  Cu  Cu4       1.0  0.87590  0.98681  0.86497  1.0000
  H   H1        1.0  0.65232  0.58517  0.75271  1.0000
  H   H2        1.0  0.84776  0.91481  0.25276  1.0000
  H   H3        1.0  0.34762  0.41483  0.24731  1.0000
  H   H4        1.0  0.15216  0.08518  0.74722  1.0000
  H   H5        1.0  0.40794  0.62439  0.79624  1.0000
  H   H6        1.0  0.09196  0.87554  0.29633  1.0000
  H   H7        1.0  0.59197  0.37558  0.20379  1.0000
  H   H8        1.0  0.90793  0.12443  0.70364  1.0000
  H   H9        1.0  0.98878  0.32681  0.68819  1.0000
  H   H10       1.0  0.51111  0.17328  0.18814  1.0000
  H   H11       1.0  0.01121  0.67321  0.31183  1.0000
  H   H12       1.0  0.48890  0.82674  0.81184  1.0000
  H   H13       1.0  0.99558  0.44580  0.73119  1.0000
  H   H14       1.0  0.50443  0.05427  0.23114  1.0000
  H   H15       1.0  0.00444  0.55423  0.26880  1.0000
  H   H16       1.0  0.49561  0.94576  0.76886  1.0000
  H   H17       1.0  0.49194  0.07744  0.57572  1.0000
  H   H18       1.0  0.00795  0.42248  0.07573  1.0000
  H   H19       1.0  0.50803  0.92255  0.42426  1.0000
  H   H20       1.0  0.99203  0.57751  0.92429  1.0000
  H   H21       1.0  0.18044  0.00524  0.45357  1.0000
  H   H22       1.0  0.31968  0.49478  0.95366  1.0000
  H   H23       1.0  0.81957  0.99476  0.54638  1.0000
  H   H24       1.0  0.68032  0.50522  0.04637  1.0000
  H   H25       1.0  0.94735  0.13885  0.35310  1.0000
  H   H26       1.0  0.55310  0.36120  0.85326  1.0000
  H   H27       1.0  0.05269  0.86116  0.64685  1.0000
  H   H28       1.0  0.44690  0.63881  0.14677  1.0000
  C   C1        1.0  0.61558  0.28448  0.61385  1.0000
  C   C2        1.0  0.88443  0.21544  0.11386  1.0000
  C   C3        1.0  0.38442  0.71551  0.38614  1.0000
  C   C4        1.0  0.11563  0.78454  0.88618  1.0000
  C   C5        1.0  0.42750  0.24296  0.54181  1.0000
  C   C6        1.0  0.07246  0.25701  0.04177  1.0000
  C   C7        1.0  0.57253  0.75704  0.45817  1.0000
  C   C8        1.0  0.92760  0.74299  0.95826  1.0000
  C   C9        1.0  0.38558  0.13151  0.52981  1.0000
  C   C10       1.0  0.11445  0.36844  0.02983  1.0000
  C   C11       1.0  0.61442  0.86848  0.47017  1.0000
  C   C12       1.0  0.88555  0.63156  0.97019  1.0000
  C   C13       1.0  0.21263  0.09235  0.46354  1.0000
  C   C14       1.0  0.28753  0.40765  0.96360  1.0000
  C   C15       1.0  0.78736  0.90765  0.53643  1.0000
  C   C16       1.0  0.71244  0.59236  0.03642  1.0000
  C   C17       1.0  0.08039  0.16619  0.40807  1.0000
  C   C18       1.0  0.41990  0.33383  0.90817  1.0000
  C   C19       1.0  0.91962  0.83382  0.59190  1.0000
  C   C20       1.0  0.58007  0.66619  0.09184  1.0000
  C   C21       1.0  0.12253  0.27680  0.42106  1.0000
  C   C22       1.0  0.37767  0.22320  0.92103  1.0000
  C   C23       1.0  0.87749  0.72321  0.57892  1.0000
  C   C24       1.0  0.62232  0.77681  0.07897  1.0000
  C   C25       1.0  0.99416  0.36546  0.36455  1.0000
  C   C26       1.0  0.50591  0.13457  0.86449  1.0000
  C   C27       1.0  0.00586  0.63454  0.63543  1.0000
  C   C28       1.0  0.49408  0.86544  0.13552  1.0000
  N   N1        1.0  0.29169  0.31335  0.48758  1.0000
  N   N2        1.0  0.20827  0.18660  0.98751  1.0000
  N   N3        1.0  0.70834  0.68665  0.51239  1.0000
  N   N4        1.0  0.79178  0.81340  0.01252  1.0000
  O   O1        1.0  0.60080  0.37655  0.66100  1.0000
  O   O2        1.0  0.89916  0.12334  0.16098  1.0000
  O   O3        1.0  0.39921  0.62345  0.33897  1.0000
  O   O4        1.0  0.10094  0.87667  0.83911  1.0000
  O   O5        1.0  0.78157  0.22314  0.62693  1.0000
  O   O6        1.0  0.71846  0.27680  0.12698  1.0000
  O   O7        1.0  0.21843  0.77686  0.37311  1.0000
  O   O8        1.0  0.28154  0.72315  0.87301  1.0000
  O   O9        1.0  0.80585  0.38752  0.40813  1.0000
  O   O10       1.0  0.69410  0.11243  0.90816  1.0000
  O   O11       1.0  0.19416  0.61247  0.59185  1.0000
  O   O12       1.0  0.30588  0.88758  0.09186  1.0000
  O   O13       1.0  0.07769  0.40722  0.28042  1.0000
  O   O14       1.0  0.42240  0.09274  0.78043  1.0000
  O   O15       1.0  0.92230  0.59279  0.71956  1.0000
  O   O16       1.0  0.57759  0.90726  0.21958  1.0000
  O   O17       1.0  0.32012  0.42131  0.49263  1.0000
  O   O18       1.0  0.17957  0.07871  0.99252  1.0000
  O   O19       1.0  0.67993  0.57868  0.50733  1.0000
  O   O20       1.0  0.82051  0.92130  0.00752  1.0000
  O   O21       1.0  0.49169  0.56130  0.76822  1.0000
  O   O22       1.0  0.00833  0.93865  0.26830  1.0000
  O   O23       1.0  0.50824  0.43868  0.23179  1.0000
  O   O24       1.0  0.99158  0.06132  0.73169  1.0000
  O   O25       1.0  0.08998  0.38119  0.72324  1.0000
  O   O26       1.0  0.40990  0.11882  0.22312  1.0000
  O   O27       1.0  0.91001  0.61882  0.27676  1.0000
  O   O28       1.0  0.59013  0.88121  0.77688  1.0000
