data_image0
_chemical_formula_structural       Ag2H18C22N8O10
_chemical_formula_sum              "Ag2 H18 C22 N8 O10"
_cell_length_a       6.45488
_cell_length_b       7.40508
_cell_length_c       12.8859
_cell_angle_alpha    78.7779
_cell_angle_beta     86.6526
_cell_angle_gamma    79.2642

_space_group_name_H-M_alt    "P 1"
_space_group_IT_number       1

loop_
  _space_group_symop_operation_xyz
  'x, y, z'

loop_
  _atom_site_type_symbol
  _atom_site_label
  _atom_site_symmetry_multiplicity
  _atom_site_fract_x
  _atom_site_fract_y
  _atom_site_fract_z
  _atom_site_occupancy
  Ag  Ag1       1.0  0.47387  0.16960  0.55545  1.0000
  Ag  Ag2       1.0  0.52615  0.83039  0.44455  1.0000
  H   H1        1.0  0.72832  0.59855  0.04366  1.0000
  H   H2        1.0  0.27169  0.40146  0.95634  1.0000
  H   H3        1.0  0.08785  0.31207  0.45292  1.0000
  H   H4        1.0  0.91216  0.68792  0.54708  1.0000
  H   H5        1.0  0.80965  0.34442  0.46146  1.0000
  H   H6        1.0  0.19036  0.65558  0.53853  1.0000
  H   H7        1.0  0.02994  0.58328  0.30218  1.0000
  H   H8        1.0  0.97007  0.41672  0.69782  1.0000
  H   H9        1.0  0.86724  0.79864  0.14174  1.0000
  H   H10       1.0  0.13275  0.20135  0.85827  1.0000
  H   H11       1.0  0.10903  0.88529  0.98451  1.0000
  H   H12       1.0  0.89096  0.11471  0.01549  1.0000
  H   H13       1.0  0.34150  0.86374  0.72624  1.0000
  H   H14       1.0  0.65849  0.13626  0.27376  1.0000
  H   H15       1.0  0.02268  0.75290  0.82112  1.0000
  H   H16       1.0  0.97733  0.24710  0.17888  1.0000
  H   H17       1.0  0.66805  0.91693  0.75070  1.0000
  H   H18       1.0  0.33196  0.08306  0.24930  1.0000
  C   C1        1.0  0.44595  0.45259  0.33937  1.0000
  C   C2        1.0  0.55405  0.54741  0.66063  1.0000
  C   C3        1.0  0.34360  0.56147  0.23729  1.0000
  C   C4        1.0  0.65639  0.43854  0.76271  1.0000
  C   C5        1.0  0.12691  0.62687  0.23320  1.0000
  C   C6        1.0  0.87309  0.37314  0.76680  1.0000
  C   C7        1.0  0.03586  0.74535  0.14377  1.0000
  C   C8        1.0  0.96413  0.25465  0.85624  1.0000
  C   C9        1.0  0.16698  0.79481  0.05770  1.0000
  C   C10       1.0  0.83300  0.20519  0.94230  1.0000
  C   C11       1.0  0.38165  0.72511  0.06028  1.0000
  C   C12       1.0  0.61834  0.27488  0.93972  1.0000
  C   C13       1.0  0.51972  0.78233  0.96657  1.0000
  C   C14       1.0  0.48027  0.21767  0.03343  1.0000
  C   C15       1.0  0.97081  0.14383  0.57820  1.0000
  C   C16       1.0  0.02920  0.85616  0.42179  1.0000
  C   C17       1.0  0.18294  0.92621  0.69963  1.0000
  C   C18       1.0  0.81706  0.07379  0.30037  1.0000
  C   C19       1.0  0.00802  0.86442  0.75211  1.0000
  C   C20       1.0  0.99198  0.13558  0.24789  1.0000
  C   C21       1.0  0.81292  0.95230  0.71142  1.0000
  C   C22       1.0  0.18708  0.04770  0.28858  1.0000
  N   N1        1.0  0.46665  0.60362  0.14880  1.0000
  N   N2        1.0  0.53335  0.39639  0.85120  1.0000
  N   N3        1.0  0.79188  0.08725  0.62438  1.0000
  N   N4        1.0  0.20812  0.91274  0.37561  1.0000
  N   N5        1.0  0.16751  0.06653  0.61565  1.0000
  N   N6        1.0  0.83249  0.93346  0.38434  1.0000
  N   N7        1.0  0.95355  0.28238  0.49384  1.0000
  N   N8        1.0  0.04645  0.71761  0.50616  1.0000
  O   O1        1.0  0.35016  0.32284  0.38695  1.0000
  O   O2        1.0  0.64985  0.67717  0.61305  1.0000
  O   O3        1.0  0.60374  0.50234  0.37018  1.0000
  O   O4        1.0  0.39628  0.49765  0.62982  1.0000
  O   O5        1.0  0.66711  0.52163  0.14768  1.0000
  O   O6        1.0  0.33288  0.47837  0.85233  1.0000
  O   O7        1.0  0.71597  0.68836  0.96746  1.0000
  O   O8        1.0  0.28402  0.31166  0.03254  1.0000
  O   O9        1.0  0.44931  0.91042  0.89444  1.0000
  O   O10       1.0  0.55067  0.08959  0.10556  1.0000
