data_image0
_chemical_formula_structural       Cu2Ag2H22C24N4O10
_chemical_formula_sum              "Cu2 Ag2 H22 C24 N4 O10"
_cell_length_a       7.33153
_cell_length_b       8.51956
_cell_length_c       10.7806
_cell_angle_alpha    98.6616
_cell_angle_beta     101.529
_cell_angle_gamma    107.778

_space_group_name_H-M_alt    "P 1"
_space_group_IT_number       1

loop_
  _space_group_symop_operation_xyz
  'x, y, z'

loop_
  _atom_site_type_symbol
  _atom_site_label
  _atom_site_symmetry_multiplicity
  _atom_site_fract_x
  _atom_site_fract_y
  _atom_site_fract_z
  _atom_site_occupancy
  Cu  Cu1       1.0  0.24994  0.53476  0.99608  1.0000
  Cu  Cu2       1.0  0.75006  0.46524  0.00392  1.0000
  Ag  Ag1       1.0  0.33102  0.84613  0.81748  1.0000
  Ag  Ag2       1.0  0.66899  0.15388  0.18253  1.0000
  H   H1        1.0  0.20217  0.09808  0.00083  1.0000
  H   H2        1.0  0.79783  0.90192  0.99917  1.0000
  H   H3        1.0  0.04738  0.16046  0.09298  1.0000
  H   H4        1.0  0.95262  0.83954  0.90702  1.0000
  H   H5        1.0  0.90114  0.07758  0.81897  1.0000
  H   H6        1.0  0.09886  0.92242  0.18103  1.0000
  H   H7        1.0  0.69488  0.60994  0.24802  1.0000
  H   H8        1.0  0.30512  0.39005  0.75198  1.0000
  H   H9        1.0  0.52040  0.64789  0.32978  1.0000
  H   H10       1.0  0.47959  0.35211  0.67021  1.0000
  H   H11       1.0  0.70602  0.05048  0.62271  1.0000
  H   H12       1.0  0.29397  0.94952  0.37729  1.0000
  H   H13       1.0  0.57474  0.16487  0.43745  1.0000
  H   H14       1.0  0.42526  0.83514  0.56256  1.0000
  H   H15       1.0  0.68954  0.47064  0.45086  1.0000
  H   H16       1.0  0.31047  0.52936  0.54913  1.0000
  H   H17       1.0  0.96555  0.91592  0.59269  1.0000
  H   H18       1.0  0.03444  0.08408  0.40731  1.0000
  H   H19       1.0  0.72429  0.75304  0.55319  1.0000
  H   H20       1.0  0.27571  0.24695  0.44681  1.0000
  H   H21       1.0  0.90552  0.73252  0.46613  1.0000
  H   H22       1.0  0.09448  0.26748  0.53387  1.0000
  C   C1        1.0  0.34705  0.32608  0.15169  1.0000
  C   C2        1.0  0.65295  0.67392  0.84831  1.0000
  C   C3        1.0  0.90683  0.29490  0.73804  1.0000
  C   C4        1.0  0.09317  0.70510  0.26196  1.0000
  C   C5        1.0  0.16633  0.20646  0.04485  1.0000
  C   C6        1.0  0.83366  0.79354  0.95515  1.0000
  C   C7        1.0  0.97217  0.21597  0.83882  1.0000
  C   C8        1.0  0.02783  0.78404  0.16118  1.0000
  C   C9        1.0  0.89458  0.53445  0.64054  1.0000
  C   C10       1.0  0.10542  0.46555  0.35946  1.0000
  C   C11       1.0  0.98004  0.47324  0.74613  1.0000
  C   C12       1.0  0.01996  0.52675  0.25387  1.0000
  C   C13       1.0  0.54935  0.62648  0.23330  1.0000
  C   C14       1.0  0.45065  0.37353  0.76669  1.0000
  C   C15       1.0  0.75930  0.18569  0.62599  1.0000
  C   C16       1.0  0.24070  0.81431  0.37402  1.0000
  C   C17       1.0  0.68517  0.24852  0.52431  1.0000
  C   C18       1.0  0.31482  0.75148  0.47569  1.0000
  C   C19       1.0  0.75223  0.42410  0.53180  1.0000
  C   C20       1.0  0.24778  0.57590  0.46820  1.0000
  C   C21       1.0  0.88306  0.77987  0.56039  1.0000
  C   C22       1.0  0.11693  0.22012  0.43962  1.0000
  C   C23       1.0  0.56200  0.78543  0.18154  1.0000
  C   C24       1.0  0.43800  0.21457  0.81846  1.0000
  N   N1        1.0  0.10421  0.29457  0.94778  1.0000
  N   N2        1.0  0.89579  0.70543  0.05221  1.0000
  N   N3        1.0  0.39269  0.48568  0.14306  1.0000
  N   N4        1.0  0.60730  0.51431  0.85694  1.0000
  O   O1        1.0  0.96563  0.70639  0.65861  1.0000
  O   O2        1.0  0.03437  0.29361  0.34140  1.0000
  O   O3        1.0  0.43533  0.77300  0.07500  1.0000
  O   O4        1.0  0.56467  0.22699  0.92500  1.0000
  O   O5        1.0  0.11922  0.58611  0.84458  1.0000
  O   O6        1.0  0.88078  0.41389  0.15542  1.0000
  O   O7        1.0  0.43382  0.26887  0.23885  1.0000
  O   O8        1.0  0.56618  0.73113  0.76114  1.0000
  O   O9        1.0  0.69540  0.92234  0.24584  1.0000
  O   O10       1.0  0.30460  0.07766  0.75416  1.0000
