data_image0
_chemical_formula_structural       Hg2H14C28O4F10
_chemical_formula_sum              "Hg2 H14 C28 O4 F10"
_cell_length_a       6.3228
_cell_length_b       7.3646
_cell_length_c       14.5049
_cell_angle_alpha    84.6218
_cell_angle_beta     81.7238
_cell_angle_gamma    86.8682

_space_group_name_H-M_alt    "P 1"
_space_group_IT_number       1

loop_
  _space_group_symop_operation_xyz
  'x, y, z'

loop_
  _atom_site_type_symbol
  _atom_site_label
  _atom_site_symmetry_multiplicity
  _atom_site_fract_x
  _atom_site_fract_y
  _atom_site_fract_z
  _atom_site_occupancy
  Hg  Hg1       1.0  0.12874  0.79041  0.42241  1.0000
  Hg  Hg2       1.0  0.87129  0.20958  0.57760  1.0000
  H   H1        1.0  0.60823  0.64376  0.38675  1.0000
  H   H2        1.0  0.39182  0.35627  0.61324  1.0000
  H   H3        1.0  0.88228  0.63187  0.25024  1.0000
  H   H4        1.0  0.11773  0.36815  0.74974  1.0000
  H   H5        1.0  0.44558  0.90387  0.07483  1.0000
  H   H6        1.0  0.55437  0.09612  0.92517  1.0000
  H   H7        1.0  0.16664  0.91645  0.21139  1.0000
  H   H8        1.0  0.83334  0.08354  0.78862  1.0000
  H   H9        1.0  0.01588  0.75528  0.08700  1.0000
  H   H10       1.0  0.98409  0.24478  0.91297  1.0000
  H   H11       1.0  0.83726  0.87704  0.01664  1.0000
  H   H12       1.0  0.16265  0.12296  0.98334  1.0000
  H   H13       1.0  0.84049  0.63607  0.03190  1.0000
  H   H14       1.0  0.15949  0.36393  0.96809  1.0000
  C   C1        1.0  0.36627  0.78165  0.30938  1.0000
  C   C2        1.0  0.63374  0.21835  0.69063  1.0000
  C   C3        1.0  0.56906  0.70201  0.31904  1.0000
  C   C4        1.0  0.43097  0.29800  0.68096  1.0000
  C   C5        1.0  0.72630  0.69575  0.24093  1.0000
  C   C6        1.0  0.27370  0.30426  0.75906  1.0000
  C   C7        1.0  0.68574  0.76804  0.15192  1.0000
  C   C8        1.0  0.31424  0.23196  0.84807  1.0000
  C   C9        1.0  0.48160  0.84653  0.14335  1.0000
  C   C10       1.0  0.51837  0.15346  0.85665  1.0000
  C   C11       1.0  0.32301  0.85354  0.22077  1.0000
  C   C12       1.0  0.67697  0.14645  0.77924  1.0000
  C   C13       1.0  0.85399  0.75930  0.06776  1.0000
  C   C14       1.0  0.14597  0.24072  0.93222  1.0000
  C   C15       1.0  0.85937  0.69312  0.60036  1.0000
  C   C16       1.0  0.14066  0.30687  0.39965  1.0000
  C   C17       1.0  0.66565  0.71488  0.67309  1.0000
  C   C18       1.0  0.33436  0.28512  0.32691  1.0000
  C   C19       1.0  0.47157  0.79710  0.65096  1.0000
  C   C20       1.0  0.52846  0.20292  0.34904  1.0000
  C   C21       1.0  0.29706  0.82615  0.71889  1.0000
  C   C22       1.0  0.70296  0.17386  0.28112  1.0000
  C   C23       1.0  0.31035  0.77065  0.81218  1.0000
  C   C24       1.0  0.68964  0.22934  0.18782  1.0000
  C   C25       1.0  0.49870  0.68549  0.83668  1.0000
  C   C26       1.0  0.50127  0.31446  0.16332  1.0000
  C   C27       1.0  0.67240  0.65878  0.76788  1.0000
  C   C28       1.0  0.32758  0.34118  0.23213  1.0000
  O   O1        1.0  0.86700  0.81998  0.53070  1.0000
  O   O2        1.0  0.13304  0.18000  0.46931  1.0000
  O   O3        1.0  0.99579  0.56731  0.60910  1.0000
  O   O4        1.0  0.00423  0.43267  0.39092  1.0000
  F   F1        1.0  0.44429  0.85050  0.56183  1.0000
  F   F2        1.0  0.55578  0.14960  0.43818  1.0000
  F   F3        1.0  0.11493  0.91032  0.69520  1.0000
  F   F4        1.0  0.88511  0.08971  0.30480  1.0000
  F   F5        1.0  0.14365  0.80087  0.87841  1.0000
  F   F6        1.0  0.85636  0.19914  0.12159  1.0000
  F   F7        1.0  0.51313  0.63511  0.92739  1.0000
  F   F8        1.0  0.48683  0.36480  0.07260  1.0000
  F   F9        1.0  0.85228  0.58245  0.79747  1.0000
  F   F10       1.0  0.14770  0.41753  0.20254  1.0000
