data_image0
_chemical_formula_structural       Cu2H20C32N10O4
_chemical_formula_sum              "Cu2 H20 C32 N10 O4"
_cell_length_a       5.57903
_cell_length_b       11.652
_cell_length_c       11.3173
_cell_angle_alpha    108.095
_cell_angle_beta     95.5738
_cell_angle_gamma    91.5925

_space_group_name_H-M_alt    "P 1"
_space_group_IT_number       1

loop_
  _space_group_symop_operation_xyz
  'x, y, z'

loop_
  _atom_site_type_symbol
  _atom_site_label
  _atom_site_symmetry_multiplicity
  _atom_site_fract_x
  _atom_site_fract_y
  _atom_site_fract_z
  _atom_site_occupancy
  Cu  Cu1       1.0  0.09826  0.19092  0.04881  1.0000
  Cu  Cu2       1.0  0.90170  0.80911  0.95120  1.0000
  H   H1        1.0  0.11015  0.20219  0.50058  1.0000
  H   H2        1.0  0.88996  0.79773  0.49940  1.0000
  H   H3        1.0  0.60222  0.34549  0.13853  1.0000
  H   H4        1.0  0.39773  0.65455  0.86148  1.0000
  H   H5        1.0  0.67017  0.02817  0.87708  1.0000
  H   H6        1.0  0.32979  0.97186  0.12293  1.0000
  H   H7        1.0  0.76801  0.42676  0.80697  1.0000
  H   H8        1.0  0.23200  0.57323  0.19302  1.0000
  H   H9        1.0  0.87166  0.44406  0.03477  1.0000
  H   H10       1.0  0.12830  0.55597  0.96523  1.0000
  H   H11       1.0  0.47542  0.33271  0.60705  1.0000
  H   H12       1.0  0.52468  0.66722  0.39292  1.0000
  H   H13       1.0  0.75743  0.06465  0.51307  1.0000
  H   H14       1.0  0.24265  0.93529  0.48691  1.0000
  H   H15       1.0  0.53014  0.97237  0.64886  1.0000
  H   H16       1.0  0.46987  0.02762  0.35114  1.0000
  H   H17       1.0  0.64856  0.31089  0.36242  1.0000
  H   H18       1.0  0.35141  0.68913  0.63759  1.0000
  H   H19       1.0  0.09876  0.56712  0.44176  1.0000
  H   H20       1.0  0.90121  0.43289  0.55825  1.0000
  C   C1        1.0  0.20721  0.36350  0.27037  1.0000
  C   C2        1.0  0.79276  0.63652  0.72964  1.0000
  C   C3        1.0  0.30020  0.25872  0.85747  1.0000
  C   C4        1.0  0.69980  0.74128  0.14253  1.0000
  C   C5        1.0  0.35768  0.43193  0.39022  1.0000
  C   C6        1.0  0.64229  0.56809  0.60979  1.0000
  C   C7        1.0  0.16452  0.21886  0.60007  1.0000
  C   C8        1.0  0.83556  0.78107  0.39991  1.0000
  C   C9        1.0  0.58480  0.39424  0.42214  1.0000
  C   C10       1.0  0.41517  0.60578  0.57787  1.0000
  C   C11       1.0  0.55766  0.33765  0.04047  1.0000
  C   C12       1.0  0.44231  0.66238  0.95954  1.0000
  C   C13       1.0  0.08866  0.18384  0.79624  1.0000
  C   C14       1.0  0.91136  0.81615  0.20376  1.0000
  C   C15       1.0  0.76580  0.06345  0.81484  1.0000
  C   C16       1.0  0.23418  0.93656  0.18517  1.0000
  C   C17       1.0  0.27420  0.53814  0.46864  1.0000
  C   C18       1.0  0.72577  0.46188  0.53137  1.0000
  C   C19       1.0  0.44188  0.31234  0.78918  1.0000
  C   C20       1.0  0.55815  0.68764  0.21081  1.0000
  C   C21       1.0  0.65297  0.38225  0.85474  1.0000
  C   C22       1.0  0.34704  0.61775  0.14526  1.0000
  C   C23       1.0  0.70991  0.39349  0.97971  1.0000
  C   C24       1.0  0.29006  0.60653  0.02029  1.0000
  C   C25       1.0  0.02033  0.16235  0.66708  1.0000
  C   C26       1.0  0.97972  0.83761  0.33291  1.0000
  C   C27       1.0  0.36637  0.29096  0.65909  1.0000
  C   C28       1.0  0.63371  0.70898  0.34089  1.0000
  C   C29       1.0  0.81347  0.08434  0.61265  1.0000
  C   C30       1.0  0.18659  0.91562  0.38734  1.0000
  C   C31       1.0  0.68891  0.03414  0.68636  1.0000
  C   C32       1.0  0.31109  0.96585  0.31364  1.0000
  N   N1        1.0  0.35637  0.27281  0.98097  1.0000
  N   N2        1.0  0.64360  0.72722  0.01903  1.0000
  N   N3        1.0  0.96096  0.13612  0.86787  1.0000
  N   N4        1.0  0.03902  0.86389  0.13213  1.0000
  N   N5        1.0  0.17319  0.89035  0.90390  1.0000
  N   N6        1.0  0.82678  0.10968  0.09611  1.0000
  N   N7        1.0  0.18213  0.88428  0.79631  1.0000
  N   N8        1.0  0.81786  0.11574  0.20371  1.0000
  N   N9        1.0  0.19643  0.88151  0.69302  1.0000
  N   N10       1.0  0.80358  0.11850  0.30700  1.0000
  O   O1        1.0  0.26367  0.25293  0.21835  1.0000
  O   O2        1.0  0.73630  0.74709  0.78165  1.0000
  O   O3        1.0  0.04464  0.41445  0.22454  1.0000
  O   O4        1.0  0.95532  0.58557  0.77547  1.0000
