data_image0
_chemical_formula_structural       Zn6H36C24O36
_chemical_formula_sum              "Zn6 H36 C24 O36"
_cell_length_a       7.76392
_cell_length_b       10.1538
_cell_length_c       14.696
_cell_angle_alpha    90.0005
_cell_angle_beta     89.9996
_cell_angle_gamma    114.557

_space_group_name_H-M_alt    "P 1"
_space_group_IT_number       1

loop_
  _space_group_symop_operation_xyz
  'x, y, z'

loop_
  _atom_site_type_symbol
  _atom_site_label
  _atom_site_symmetry_multiplicity
  _atom_site_fract_x
  _atom_site_fract_y
  _atom_site_fract_z
  _atom_site_occupancy
  Zn  Zn1       1.0  0.50599  0.78256  0.89746  1.0000
  Zn  Zn2       1.0  0.00598  0.78256  0.60253  1.0000
  Zn  Zn3       1.0  0.49401  0.21744  0.10254  1.0000
  Zn  Zn4       1.0  0.99402  0.21744  0.39747  1.0000
  Zn  Zn5       1.0  0.50000  0.50000  1.00000  1.0000
  Zn  Zn6       1.0  1.00000  0.50000  0.50000  1.0000
  H   H1        1.0  0.19472  0.84243  0.90366  1.0000
  H   H2        1.0  0.69471  0.84243  0.59634  1.0000
  H   H3        1.0  0.80529  0.15758  0.09634  1.0000
  H   H4        1.0  0.30529  0.15758  0.40366  1.0000
  H   H5        1.0  0.32247  0.88494  0.99355  1.0000
  H   H6        1.0  0.82246  0.88495  0.50645  1.0000
  H   H7        1.0  0.67755  0.11506  0.00645  1.0000
  H   H8        1.0  0.17754  0.11506  0.49354  1.0000
  H   H9        1.0  0.75527  0.89935  0.02890  1.0000
  H   H10       1.0  0.25527  0.89935  0.47110  1.0000
  H   H11       1.0  0.24472  0.10064  0.97111  1.0000
  H   H12       1.0  0.74473  0.10066  0.52890  1.0000
  H   H13       1.0  0.85672  0.89513  0.93608  1.0000
  H   H14       1.0  0.35671  0.89512  0.56392  1.0000
  H   H15       1.0  0.14328  0.10487  0.06393  1.0000
  H   H16       1.0  0.64329  0.10488  0.43608  1.0000
  H   H17       1.0  0.55703  0.89940  0.73294  1.0000
  H   H18       1.0  0.05702  0.89938  0.76706  1.0000
  H   H19       1.0  0.44298  0.10061  0.26706  1.0000
  H   H20       1.0  0.94298  0.10061  0.23294  1.0000
  H   H21       1.0  0.63115  0.02199  0.81146  1.0000
  H   H22       1.0  0.13112  0.02198  0.68854  1.0000
  H   H23       1.0  0.36887  0.97801  0.18854  1.0000
  H   H24       1.0  0.86887  0.97801  0.31146  1.0000
  H   H25       1.0  0.97872  0.41131  0.17814  1.0000
  H   H26       1.0  0.47872  0.41130  0.32185  1.0000
  H   H27       1.0  0.02128  0.58869  0.82186  1.0000
  H   H28       1.0  0.52128  0.58869  0.67814  1.0000
  H   H29       1.0  0.05100  0.46569  0.06525  1.0000
  H   H30       1.0  0.55098  0.46569  0.43475  1.0000
  H   H31       1.0  0.94900  0.53430  0.93475  1.0000
  H   H32       1.0  0.44901  0.53431  0.56524  1.0000
  H   H33       1.0  0.40970  0.72958  0.27124  1.0000
  H   H34       1.0  0.90969  0.72957  0.22876  1.0000
  H   H35       1.0  0.59030  0.27042  0.72876  1.0000
  H   H36       1.0  0.09030  0.27043  0.77124  1.0000
  C   C1        1.0  0.34442  0.70556  0.09640  1.0000
  C   C2        1.0  0.84441  0.70556  0.40360  1.0000
  C   C3        1.0  0.65558  0.29444  0.90360  1.0000
  C   C4        1.0  0.15558  0.29444  0.59640  1.0000
  C   C5        1.0  0.25342  0.58966  0.16609  1.0000
  C   C6        1.0  0.75340  0.58966  0.33392  1.0000
  C   C7        1.0  0.74659  0.41034  0.83392  1.0000
  C   C8        1.0  0.24659  0.41034  0.66607  1.0000
  C   C9        1.0  0.10140  0.44886  0.13258  1.0000
  C   C10       1.0  0.60139  0.44885  0.36742  1.0000
  C   C11       1.0  0.89860  0.55114  0.86742  1.0000
  C   C12       1.0  0.39860  0.55114  0.63257  1.0000
  C   C13       1.0  0.16061  0.32521  0.12013  1.0000
  C   C14       1.0  0.66062  0.32521  0.37987  1.0000
  C   C15       1.0  0.83939  0.67479  0.87987  1.0000
  C   C16       1.0  0.33939  0.67479  0.62012  1.0000
  C   C17       1.0  0.30677  0.62097  0.25342  1.0000
  C   C18       1.0  0.80676  0.62097  0.24657  1.0000
  C   C19       1.0  0.69323  0.37903  0.74658  1.0000
  C   C20       1.0  0.19323  0.37903  0.75342  1.0000
  C   C21       1.0  0.22158  0.52222  0.33098  1.0000
  C   C22       1.0  0.72157  0.52221  0.16902  1.0000
  C   C23       1.0  0.77843  0.47778  0.66902  1.0000
  C   C24       1.0  0.27843  0.47779  0.83098  1.0000
  O   O1        1.0  0.32775  0.88124  0.92604  1.0000
  O   O2        1.0  0.82774  0.88124  0.57396  1.0000
  O   O3        1.0  0.67226  0.11877  0.07396  1.0000
  O   O4        1.0  0.17226  0.11876  0.42604  1.0000
  O   O5        1.0  0.76459  0.92793  0.96518  1.0000
  O   O6        1.0  0.26458  0.92793  0.53483  1.0000
  O   O7        1.0  0.23541  0.07206  0.03483  1.0000
  O   O8        1.0  0.73542  0.07207  0.46517  1.0000
  O   O9        1.0  0.62900  0.92888  0.79026  1.0000
  O   O10       1.0  0.12898  0.92887  0.70974  1.0000
  O   O11       1.0  0.37101  0.07112  0.20974  1.0000
  O   O12       1.0  0.87101  0.07112  0.29026  1.0000
  O   O13       1.0  0.34688  0.82892  0.10685  1.0000
  O   O14       1.0  0.84687  0.82892  0.39316  1.0000
  O   O15       1.0  0.65314  0.17108  0.89315  1.0000
  O   O16       1.0  0.15313  0.17108  0.60684  1.0000
  O   O17       1.0  0.41174  0.66785  0.02508  1.0000
  O   O18       1.0  0.91173  0.66785  0.47493  1.0000
  O   O19       1.0  0.58824  0.33214  0.97492  1.0000
  O   O20       1.0  0.08826  0.33214  0.52508  1.0000
  O   O21       1.0  0.03512  0.19515  0.12433  1.0000
  O   O22       1.0  0.53513  0.19515  0.37568  1.0000
  O   O23       1.0  0.96488  0.80485  0.87568  1.0000
  O   O24       1.0  0.46487  0.80485  0.62432  1.0000
  O   O25       1.0  0.33363  0.35562  0.10224  1.0000
  O   O26       1.0  0.83364  0.35563  0.39775  1.0000
  O   O27       1.0  0.66637  0.64438  0.89775  1.0000
  O   O28       1.0  0.16637  0.64438  0.60225  1.0000
  O   O29       1.0  0.16389  0.38610  0.31733  1.0000
  O   O30       1.0  0.66388  0.38609  0.18267  1.0000
  O   O31       1.0  0.83612  0.61390  0.68268  1.0000
  O   O32       1.0  0.33613  0.61391  0.81732  1.0000
  O   O33       1.0  0.21336  0.58449  0.40529  1.0000
  O   O34       1.0  0.71335  0.58448  0.09471  1.0000
  O   O35       1.0  0.78664  0.41552  0.59471  1.0000
  O   O36       1.0  0.28664  0.41553  0.90528  1.0000
