data_image0
_chemical_formula_structural       Co2H24C10N2O16
_chemical_formula_sum              "Co2 H24 C10 N2 O16"
_cell_length_a       7.11147
_cell_length_b       7.21893
_cell_length_c       9.57351
_cell_angle_alpha    88.7611
_cell_angle_beta     96.4186
_cell_angle_gamma    111.161

_space_group_name_H-M_alt    "P 1"
_space_group_IT_number       1

loop_
  _space_group_symop_operation_xyz
  'x, y, z'

loop_
  _atom_site_type_symbol
  _atom_site_label
  _atom_site_symmetry_multiplicity
  _atom_site_fract_x
  _atom_site_fract_y
  _atom_site_fract_z
  _atom_site_occupancy
  Co  Co1       1.0  0.24871  0.29157  0.27976  1.0000
  Co  Co2       1.0  0.75129  0.70843  0.72025  1.0000
  H   H1        1.0  0.73073  0.06811  0.25191  1.0000
  H   H2        1.0  0.26926  0.93188  0.74808  1.0000
  H   H3        1.0  0.46164  0.96039  0.25871  1.0000
  H   H4        1.0  0.53835  0.03962  0.74128  1.0000
  H   H5        1.0  0.98609  0.27556  0.47137  1.0000
  H   H6        1.0  0.01391  0.72443  0.52863  1.0000
  H   H7        1.0  0.18738  0.26485  0.54835  1.0000
  H   H8        1.0  0.81262  0.73515  0.45165  1.0000
  H   H9        1.0  0.42933  0.63938  0.39159  1.0000
  H   H10       1.0  0.57067  0.36062  0.60841  1.0000
  H   H11       1.0  0.26877  0.63625  0.25872  1.0000
  H   H12       1.0  0.73123  0.36374  0.74127  1.0000
  H   H13       1.0  0.03690  0.88059  0.23518  1.0000
  H   H14       1.0  0.96311  0.11941  0.76482  1.0000
  H   H15       1.0  0.13690  0.94292  0.38599  1.0000
  H   H16       1.0  0.86311  0.05708  0.61401  1.0000
  H   H17       1.0  0.65901  0.50281  0.21753  1.0000
  H   H18       1.0  0.34100  0.49719  0.78248  1.0000
  H   H19       1.0  0.67295  0.48877  0.03493  1.0000
  H   H20       1.0  0.32707  0.51124  0.96508  1.0000
  H   H21       1.0  0.73050  0.12131  0.00530  1.0000
  H   H22       1.0  0.26949  0.87871  0.99469  1.0000
  H   H23       1.0  0.53188  0.19434  0.91765  1.0000
  H   H24       1.0  0.46811  0.80568  0.08235  1.0000
  C   C1        1.0  0.59331  0.09930  0.26195  1.0000
  C   C2        1.0  0.40668  0.90070  0.73806  1.0000
  C   C3        1.0  0.61142  0.19648  0.40460  1.0000
  C   C4        1.0  0.38858  0.80352  0.59540  1.0000
  C   C5        1.0  0.70337  0.42611  0.13687  1.0000
  C   C6        1.0  0.29662  0.57388  0.86314  1.0000
  C   C7        1.0  0.93005  0.46102  0.16542  1.0000
  C   C8        1.0  0.06995  0.53896  0.83458  1.0000
  C   C9        1.0  0.57180  0.10804  0.00361  1.0000
  C   C10       1.0  0.42819  0.89197  0.99638  1.0000
  N   N1        1.0  0.55604  0.21274  0.13420  1.0000
  N   N2        1.0  0.44395  0.78726  0.86580  1.0000
  O   O1        1.0  0.48808  0.27976  0.42879  1.0000
  O   O2        1.0  0.51192  0.72024  0.57121  1.0000
  O   O3        1.0  0.74373  0.17692  0.49730  1.0000
  O   O4        1.0  0.25628  0.82307  0.50270  1.0000
  O   O5        1.0  0.98589  0.31283  0.16764  1.0000
  O   O6        1.0  0.01410  0.68716  0.83237  1.0000
  O   O7        1.0  0.04585  0.64144  0.18581  1.0000
  O   O8        1.0  0.95416  0.35854  0.81420  1.0000
  O   O9        1.0  0.35515  0.21599  0.12169  1.0000
  O   O10       1.0  0.64486  0.78402  0.87831  1.0000
  O   O11       1.0  0.13662  0.33123  0.47160  1.0000
  O   O12       1.0  0.86338  0.66877  0.52840  1.0000
  O   O13       1.0  0.39248  0.60190  0.28979  1.0000
  O   O14       1.0  0.60753  0.39810  0.71021  1.0000
  O   O15       1.0  0.05578  0.98239  0.30861  1.0000
  O   O16       1.0  0.94422  0.01760  0.69139  1.0000
