data_image0
_chemical_formula_structural       Cd2H30C32S6N8O12
_chemical_formula_sum              "Cd2 H30 C32 S6 N8 O12"
_cell_length_a       8.41182
_cell_length_b       11.6609
_cell_length_c       11.9669
_cell_angle_alpha    106.539
_cell_angle_beta     106.32
_cell_angle_gamma    94.3015

_space_group_name_H-M_alt    "P 1"
_space_group_IT_number       1

loop_
  _space_group_symop_operation_xyz
  'x, y, z'

loop_
  _atom_site_type_symbol
  _atom_site_label
  _atom_site_symmetry_multiplicity
  _atom_site_fract_x
  _atom_site_fract_y
  _atom_site_fract_z
  _atom_site_occupancy
  Cd  Cd1       1.0  0.14839  0.17195  0.28398  1.0000
  Cd  Cd2       1.0  0.85161  0.82805  0.71603  1.0000
  H   H1        1.0  0.03881  0.61151  0.74753  1.0000
  H   H2        1.0  0.96120  0.38850  0.25245  1.0000
  H   H3        1.0  0.14568  0.90721  0.21387  1.0000
  H   H4        1.0  0.85432  0.09282  0.78615  1.0000
  H   H5        1.0  0.00899  0.91326  0.09408  1.0000
  H   H6        1.0  0.99100  0.08675  0.90594  1.0000
  H   H7        1.0  0.55271  0.15173  0.32972  1.0000
  H   H8        1.0  0.44728  0.84826  0.67029  1.0000
  H   H9        1.0  0.61983  0.60849  0.46354  1.0000
  H   H10       1.0  0.38016  0.39150  0.53646  1.0000
  H   H11       1.0  0.58825  0.38459  0.36504  1.0000
  H   H12       1.0  0.41173  0.61541  0.63496  1.0000
  H   H13       1.0  0.02504  0.38918  0.66394  1.0000
  H   H14       1.0  0.97498  0.61083  0.33605  1.0000
  H   H15       1.0  0.91644  0.20839  0.46378  1.0000
  H   H16       1.0  0.08357  0.79162  0.53621  1.0000
  H   H17       1.0  0.74709  0.19370  0.52221  1.0000
  H   H18       1.0  0.25294  0.80631  0.47780  1.0000
  H   H19       1.0  0.41178  0.00752  0.18334  1.0000
  H   H20       1.0  0.58822  0.99249  0.81666  1.0000
  H   H21       1.0  0.77569  0.11397  0.02377  1.0000
  H   H22       1.0  0.22431  0.88603  0.97623  1.0000
  H   H23       1.0  0.44274  0.00584  0.59034  1.0000
  H   H24       1.0  0.55725  0.99415  0.40966  1.0000
  H   H25       1.0  0.32022  0.09757  0.66970  1.0000
  H   H26       1.0  0.67976  0.90242  0.33030  1.0000
  H   H27       1.0  0.67719  0.82789  0.07099  1.0000
  H   H28       1.0  0.32280  0.17210  0.92902  1.0000
  H   H29       1.0  0.75205  0.68923  0.04702  1.0000
  H   H30       1.0  0.24794  0.31077  0.95298  1.0000
  C   C1        1.0  0.93952  0.55765  0.66386  1.0000
  C   C2        1.0  0.06049  0.44236  0.33613  1.0000
  C   C3        1.0  0.70716  0.55622  0.50488  1.0000
  C   C4        1.0  0.29284  0.44379  0.49511  1.0000
  C   C5        1.0  0.68961  0.43123  0.45045  1.0000
  C   C6        1.0  0.31037  0.56878  0.54955  1.0000
  C   C7        1.0  0.80313  0.36753  0.50728  1.0000
  C   C8        1.0  0.19688  0.63247  0.49272  1.0000
  C   C9        1.0  0.93073  0.43321  0.61636  1.0000
  C   C10       1.0  0.06927  0.56679  0.38363  1.0000
  C   C11       1.0  0.72659  0.14691  0.23733  1.0000
  C   C12       1.0  0.27339  0.85309  0.76267  1.0000
  C   C13       1.0  0.79127  0.23163  0.45968  1.0000
  C   C14       1.0  0.20875  0.76837  0.54032  1.0000
  C   C15       1.0  0.60641  0.07020  0.11674  1.0000
  C   C16       1.0  0.39360  0.92981  0.88326  1.0000
  C   C17       1.0  0.45160  0.00526  0.10380  1.0000
  C   C18       1.0  0.54841  0.99475  0.89620  1.0000
  C   C19       1.0  0.65446  0.06377  0.01213  1.0000
  C   C20       1.0  0.34555  0.93624  0.98787  1.0000
  C   C21       1.0  0.75219  0.77749  0.90890  1.0000
  C   C22       1.0  0.24784  0.22252  0.09113  1.0000
  C   C23       1.0  0.31166  0.11845  0.49381  1.0000
  C   C24       1.0  0.68832  0.88152  0.50618  1.0000
  C   C25       1.0  0.40222  0.09497  0.61273  1.0000
  C   C26       1.0  0.59776  0.90501  0.38726  1.0000
  C   C27       1.0  0.51873  0.32737  0.76108  1.0000
  C   C28       1.0  0.48126  0.67262  0.23890  1.0000
  C   C29       1.0  0.46843  0.52338  0.86094  1.0000
  C   C30       1.0  0.53157  0.47661  0.13904  1.0000
  C   C31       1.0  0.67527  0.74374  0.99926  1.0000
  C   C32       1.0  0.32473  0.25626  0.00075  1.0000
  S   S1        1.0  0.59810  0.19819  0.70125  1.0000
  S   S2        1.0  0.40189  0.80180  0.29874  1.0000
  S   S3        1.0  0.64672  0.46896  0.83387  1.0000
  S   S4        1.0  0.35327  0.53102  0.16610  1.0000
  S   S5        1.0  0.45795  0.67105  0.93877  1.0000
  S   S6        1.0  0.54205  0.32893  0.06121  1.0000
  N   N1        1.0  0.82933  0.61897  0.60971  1.0000
  N   N2        1.0  0.17066  0.38104  0.39029  1.0000
  N   N3        1.0  0.67601  0.17185  0.33707  1.0000
  N   N4        1.0  0.32400  0.82814  0.66294  1.0000
  N   N5        1.0  0.36087  0.32790  0.75684  1.0000
  N   N6        1.0  0.63911  0.67209  0.24314  1.0000
  N   N7        1.0  0.33229  0.43968  0.81412  1.0000
  N   N8        1.0  0.66772  0.56031  0.18587  1.0000
  O   O1        1.0  0.15601  0.12015  0.46788  1.0000
  O   O2        1.0  0.84397  0.87986  0.53213  1.0000
  O   O3        1.0  0.07512  0.96053  0.18203  1.0000
  O   O4        1.0  0.92487  0.03950  0.81799  1.0000
  O   O5        1.0  0.39736  0.13223  0.42368  1.0000
  O   O6        1.0  0.60260  0.86772  0.57630  1.0000
  O   O7        1.0  0.87250  0.18650  0.24321  1.0000
  O   O8        1.0  0.12751  0.81352  0.75680  1.0000
  O   O9        1.0  0.66298  0.75153  0.79733  1.0000
  O   O10       1.0  0.33708  0.24846  0.20268  1.0000
  O   O11       1.0  0.90405  0.83117  0.95094  1.0000
  O   O12       1.0  0.09597  0.16884  0.04909  1.0000
