data_image0
_chemical_formula_structural       Cd2H24C36N4O12
_chemical_formula_sum              "Cd2 H24 C36 N4 O12"
_cell_length_a       8.84209
_cell_length_b       10.2509
_cell_length_c       10.4952
_cell_angle_alpha    71.3274
_cell_angle_beta     69.0346
_cell_angle_gamma    78.1668

_space_group_name_H-M_alt    "P 1"
_space_group_IT_number       1

loop_
  _space_group_symop_operation_xyz
  'x, y, z'

loop_
  _atom_site_type_symbol
  _atom_site_label
  _atom_site_symmetry_multiplicity
  _atom_site_fract_x
  _atom_site_fract_y
  _atom_site_fract_z
  _atom_site_occupancy
  Cd  Cd1       1.0  0.85327  0.17410  0.06129  1.0000
  Cd  Cd2       1.0  0.14674  0.82592  0.93870  1.0000
  H   H1        1.0  0.00562  0.35590  0.17018  1.0000
  H   H2        1.0  0.99438  0.64410  0.82982  1.0000
  H   H3        1.0  0.50252  0.23989  0.33351  1.0000
  H   H4        1.0  0.49748  0.76010  0.66648  1.0000
  H   H5        1.0  0.20830  0.32771  0.29405  1.0000
  H   H6        1.0  0.79170  0.67228  0.70594  1.0000
  H   H7        1.0  0.98947  0.93026  0.27926  1.0000
  H   H8        1.0  0.01050  0.06976  0.72073  1.0000
  H   H9        1.0  0.19372  0.88586  0.40420  1.0000
  H   H10       1.0  0.80625  0.11413  0.59580  1.0000
  H   H11       1.0  0.29608  0.02083  0.54289  1.0000
  H   H12       1.0  0.70392  0.97915  0.45710  1.0000
  H   H13       1.0  0.44904  0.00922  0.38022  1.0000
  H   H14       1.0  0.55095  0.99077  0.61978  1.0000
  H   H15       1.0  0.19802  0.51940  0.56805  1.0000
  H   H16       1.0  0.80198  0.48059  0.43195  1.0000
  H   H17       1.0  0.33622  0.71354  0.55826  1.0000
  H   H18       1.0  0.66378  0.28644  0.44174  1.0000
  H   H19       1.0  0.15232  0.35896  0.89547  1.0000
  H   H20       1.0  0.84767  0.64105  0.10453  1.0000
  H   H21       1.0  0.61092  0.46853  0.86779  1.0000
  H   H22       1.0  0.38908  0.53148  0.13221  1.0000
  H   H23       1.0  0.56976  0.05439  0.86369  1.0000
  H   H24       1.0  0.43026  0.94561  0.13632  1.0000
  C   C1        1.0  0.04789  0.25346  0.22610  1.0000
  C   C2        1.0  0.95211  0.74655  0.77390  1.0000
  C   C3        1.0  0.16226  0.23697  0.29412  1.0000
  C   C4        1.0  0.83773  0.76303  0.70588  1.0000
  C   C5        1.0  0.04014  0.01576  0.28534  1.0000
  C   C6        1.0  0.95984  0.98425  0.71467  1.0000
  C   C7        1.0  0.15447  0.99220  0.35489  1.0000
  C   C8        1.0  0.84550  0.00780  0.64511  1.0000
  C   C9        1.0  0.21899  0.10389  0.35933  1.0000
  C   C10       1.0  0.78100  0.89610  0.64066  1.0000
  C   C11       1.0  0.34741  0.07694  0.43083  1.0000
  C   C12       1.0  0.65258  0.92305  0.56917  1.0000
  C   C13       1.0  0.33271  0.27654  0.51579  1.0000
  C   C14       1.0  0.66730  0.72345  0.48421  1.0000
  C   C15       1.0  0.42169  0.39171  0.50432  1.0000
  C   C16       1.0  0.57831  0.60827  0.49568  1.0000
  C   C17       1.0  0.33035  0.51205  0.53830  1.0000
  C   C18       1.0  0.66965  0.48794  0.46170  1.0000
  C   C19       1.0  0.40814  0.61977  0.53324  1.0000
  C   C20       1.0  0.59186  0.38022  0.46675  1.0000
  C   C21       1.0  0.25512  0.09285  0.87497  1.0000
  C   C22       1.0  0.74489  0.90715  0.12504  1.0000
  C   C23       1.0  0.35326  0.19701  0.87360  1.0000
  C   C24       1.0  0.64675  0.80299  0.12640  1.0000
  C   C25       1.0  0.28093  0.33040  0.88530  1.0000
  C   C26       1.0  0.71907  0.66960  0.11470  1.0000
  C   C27       1.0  0.37472  0.42800  0.88279  1.0000
  C   C28       1.0  0.62528  0.57201  0.11722  1.0000
  C   C29       1.0  0.53728  0.39307  0.87241  1.0000
  C   C30       1.0  0.46273  0.60694  0.12759  1.0000
  C   C31       1.0  0.61196  0.25433  0.87099  1.0000
  C   C32       1.0  0.38804  0.74568  0.12901  1.0000
  C   C33       1.0  0.51447  0.15863  0.86818  1.0000
  C   C34       1.0  0.48554  0.84137  0.13184  1.0000
  C   C35       1.0  0.29398  0.56716  0.90189  1.0000
  C   C36       1.0  0.70601  0.43285  0.09812  1.0000
  N   N1        1.0  0.98790  0.14487  0.22135  1.0000
  N   N2        1.0  0.01209  0.85515  0.77865  1.0000
  N   N3        1.0  0.41253  0.19795  0.42427  1.0000
  N   N4        1.0  0.58747  0.80204  0.57573  1.0000
  O   O1        1.0  0.10143  0.11183  0.91444  1.0000
  O   O2        1.0  0.89858  0.88816  0.08558  1.0000
  O   O3        1.0  0.33473  0.98403  0.83921  1.0000
  O   O4        1.0  0.66529  0.01597  0.16080  1.0000
  O   O5        1.0  0.37423  0.67241  0.83684  1.0000
  O   O6        1.0  0.62576  0.32759  0.16316  1.0000
  O   O7        1.0  0.14994  0.57304  0.98710  1.0000
  O   O8        1.0  0.85005  0.42696  0.01290  1.0000
  O   O9        1.0  0.75936  0.21656  0.87002  1.0000
  O   O10       1.0  0.24065  0.78346  0.12998  1.0000
  O   O11       1.0  0.19733  0.25425  0.60619  1.0000
  O   O12       1.0  0.80267  0.74575  0.39381  1.0000
