data_image0
_chemical_formula_structural       Cd2H46C56N10O18
_chemical_formula_sum              "Cd2 H46 C56 N10 O18"
_cell_length_a       9.72652
_cell_length_b       10.3246
_cell_length_c       14.5551
_cell_angle_alpha    79.7727
_cell_angle_beta     72.0066
_cell_angle_gamma    82.2361

_space_group_name_H-M_alt    "P 1"
_space_group_IT_number       1

loop_
  _space_group_symop_operation_xyz
  'x, y, z'

loop_
  _atom_site_type_symbol
  _atom_site_label
  _atom_site_symmetry_multiplicity
  _atom_site_fract_x
  _atom_site_fract_y
  _atom_site_fract_z
  _atom_site_occupancy
  Cd  Cd1       1.0  0.94963  0.75810  0.52062  1.0000
  Cd  Cd2       1.0  0.05037  0.24191  0.47938  1.0000
  H   H1        1.0  0.84963  0.49243  0.59423  1.0000
  H   H2        1.0  0.15038  0.50757  0.40577  1.0000
  H   H3        1.0  0.72629  0.60585  0.63537  1.0000
  H   H4        1.0  0.27371  0.39416  0.36463  1.0000
  H   H5        1.0  0.30266  0.69087  0.47604  1.0000
  H   H6        1.0  0.69734  0.30913  0.52396  1.0000
  H   H7        1.0  0.38391  0.51438  0.90540  1.0000
  H   H8        1.0  0.61609  0.48562  0.09460  1.0000
  H   H9        1.0  0.48425  0.59472  0.56646  1.0000
  H   H10       1.0  0.51574  0.40528  0.43354  1.0000
  H   H11       1.0  0.41153  0.84005  0.22478  1.0000
  H   H12       1.0  0.58846  0.15994  0.77522  1.0000
  H   H13       1.0  0.95792  0.61286  0.72472  1.0000
  H   H14       1.0  0.04208  0.38715  0.27528  1.0000
  H   H15       1.0  0.12240  0.51439  0.82458  1.0000
  H   H16       1.0  0.87760  0.48561  0.17542  1.0000
  H   H17       1.0  0.38284  0.38168  0.79804  1.0000
  H   H18       1.0  0.61716  0.61832  0.20195  1.0000
  H   H19       1.0  0.53016  0.45823  0.71007  1.0000
  H   H20       1.0  0.46984  0.54177  0.28993  1.0000
  H   H21       1.0  0.73543  0.79205  0.80282  1.0000
  H   H22       1.0  0.26458  0.20795  0.19718  1.0000
  H   H23       1.0  0.75651  0.91289  0.93220  1.0000
  H   H24       1.0  0.24349  0.08711  0.06780  1.0000
  H   H25       1.0  0.35721  0.62185  0.00948  1.0000
  H   H26       1.0  0.64279  0.37814  0.99052  1.0000
  H   H27       1.0  0.38092  0.73703  0.13395  1.0000
  H   H28       1.0  0.61908  0.26297  0.86605  1.0000
  H   H29       1.0  0.37739  0.01305  0.31670  1.0000
  H   H30       1.0  0.62261  0.98694  0.68330  1.0000
  H   H31       1.0  0.52310  0.09000  0.22881  1.0000
  H   H32       1.0  0.47690  0.90999  0.77119  1.0000
  H   H33       1.0  0.75528  0.03523  0.48134  1.0000
  H   H34       1.0  0.24472  0.96477  0.51866  1.0000
  H   H35       1.0  0.58498  0.12853  0.38130  1.0000
  H   H36       1.0  0.41502  0.87146  0.61870  1.0000
  H   H37       1.0  0.61288  0.74102  0.30237  1.0000
  H   H38       1.0  0.38712  0.25898  0.69763  1.0000
  H   H39       1.0  0.78014  0.66331  0.40599  1.0000
  H   H40       1.0  0.21986  0.33669  0.59401  1.0000
  H   H41       1.0  0.97033  0.16139  0.24325  1.0000
  H   H42       1.0  0.02967  0.83862  0.75675  1.0000
  H   H43       1.0  0.88135  0.11186  0.10955  1.0000
  H   H44       1.0  0.11865  0.88814  0.89045  1.0000
  H   H45       1.0  0.93645  0.88644  0.06266  1.0000
  H   H46       1.0  0.06354  0.11356  0.93734  1.0000
  C   C1        1.0  0.26822  0.65111  0.55359  1.0000
  C   C2        1.0  0.73178  0.34889  0.44641  1.0000
  C   C3        1.0  0.36819  0.59700  0.60419  1.0000
  C   C4        1.0  0.63181  0.40300  0.39581  1.0000
  C   C5        1.0  0.31819  0.54569  0.70324  1.0000
  C   C6        1.0  0.68181  0.45431  0.29675  1.0000
  C   C7        1.0  0.07530  0.60805  0.69234  1.0000
  C   C8        1.0  0.92470  0.39195  0.30766  1.0000
  C   C9        1.0  0.16810  0.55307  0.74770  1.0000
  C   C10       1.0  0.83189  0.44693  0.25230  1.0000
  C   C11       1.0  0.42145  0.47767  0.75990  1.0000
  C   C12       1.0  0.57855  0.52232  0.24010  1.0000
  C   C13       1.0  0.53074  0.63966  0.81378  1.0000
  C   C14       1.0  0.46926  0.36034  0.18622  1.0000
  C   C15       1.0  0.54547  0.69900  0.89626  1.0000
  C   C16       1.0  0.45453  0.30100  0.10374  1.0000
  C   C17       1.0  0.65958  0.77956  0.87616  1.0000
  C   C18       1.0  0.34042  0.22044  0.12384  1.0000
  C   C19       1.0  0.67121  0.84692  0.94770  1.0000
  C   C20       1.0  0.32878  0.15308  0.05230  1.0000
  C   C21       1.0  0.57018  0.83546  0.04073  1.0000
  C   C22       1.0  0.42982  0.16454  0.95927  1.0000
  C   C23       1.0  0.44756  0.68336  0.99043  1.0000
  C   C24       1.0  0.55244  0.31664  0.00957  1.0000
  C   C25       1.0  0.45980  0.75069  0.06197  1.0000
  C   C26       1.0  0.54020  0.24930  0.93802  1.0000
  C   C27       1.0  0.58336  0.92123  0.11051  1.0000
  C   C28       1.0  0.41664  0.07876  0.88949  1.0000
  C   C29       1.0  0.48856  0.99431  0.26964  1.0000
  C   C30       1.0  0.51144  0.00569  0.73036  1.0000
  C   C31       1.0  0.71878  0.97394  0.44088  1.0000
  C   C32       1.0  0.28122  0.02606  0.55912  1.0000
  C   C33       1.0  0.62537  0.02446  0.38520  1.0000
  C   C34       1.0  0.37463  0.97554  0.61480  1.0000
  C   C35       1.0  0.58633  0.94134  0.33287  1.0000
  C   C36       1.0  0.41368  0.05866  0.66713  1.0000
  C   C37       1.0  0.64094  0.80900  0.34148  1.0000
  C   C38       1.0  0.35906  0.19100  0.65852  1.0000
  C   C39       1.0  0.73354  0.76533  0.39854  1.0000
  C   C40       1.0  0.26646  0.23467  0.60146  1.0000
  C   C41       1.0  0.10177  0.00208  0.35815  1.0000
  C   C42       1.0  0.89823  0.99792  0.64185  1.0000
  C   C43       1.0  0.06149  0.96421  0.27477  1.0000
  C   C44       1.0  0.93851  0.03579  0.72523  1.0000
  C   C45       1.0  0.08984  0.83498  0.25088  1.0000
  C   C46       1.0  0.91016  0.16502  0.74912  1.0000
  C   C47       1.0  0.15937  0.72611  0.31155  1.0000
  C   C48       1.0  0.84063  0.27389  0.68846  1.0000
  C   C49       1.0  0.98980  0.06291  0.22231  1.0000
  C   C50       1.0  0.01020  0.93709  0.77769  1.0000
  C   C51       1.0  0.94226  0.03635  0.14727  1.0000
  C   C52       1.0  0.05774  0.96365  0.85273  1.0000
  C   C53       1.0  0.97179  0.91034  0.12105  1.0000
  C   C54       1.0  0.02821  0.08966  0.87895  1.0000
  C   C55       1.0  0.04654  0.81277  0.17143  1.0000
  C   C56       1.0  0.95346  0.18723  0.82857  1.0000
  N   N1        1.0  0.12411  0.65615  0.59688  1.0000
  N   N2        1.0  0.87589  0.34386  0.40312  1.0000
  N   N3        1.0  0.43317  0.54878  0.83467  1.0000
  N   N4        1.0  0.56683  0.45122  0.16533  1.0000
  N   N5        1.0  0.48689  0.90934  0.20116  1.0000
  N   N6        1.0  0.51310  0.09065  0.79884  1.0000
  N   N7        1.0  0.77281  0.84662  0.44692  1.0000
  N   N8        1.0  0.22719  0.15337  0.55308  1.0000
  N   N9        1.0  0.07891  0.68352  0.13792  1.0000
  N   N10       1.0  0.92109  0.31648  0.86208  1.0000
  O   O1        1.0  0.80433  0.58334  0.57661  1.0000
  O   O2        1.0  0.19567  0.41666  0.42339  1.0000
  O   O3        1.0  0.07054  0.65216  0.37692  1.0000
  O   O4        1.0  0.92947  0.34784  0.62309  1.0000
  O   O5        1.0  0.11466  0.91475  0.42898  1.0000
  O   O6        1.0  0.88534  0.08525  0.57102  1.0000
  O   O7        1.0  0.29416  0.71731  0.29606  1.0000
  O   O8        1.0  0.70584  0.28269  0.70394  1.0000
  O   O9        1.0  0.16013  0.59915  0.17318  1.0000
  O   O10       1.0  0.83987  0.40086  0.82682  1.0000
  O   O11       1.0  0.02517  0.66341  0.07481  1.0000
  O   O12       1.0  0.97483  0.33659  0.92520  1.0000
  O   O13       1.0  0.12138  0.12360  0.35014  1.0000
  O   O14       1.0  0.87862  0.87640  0.64986  1.0000
  O   O15       1.0  0.60355  0.67536  0.72779  1.0000
  O   O16       1.0  0.39645  0.32464  0.27221  1.0000
  O   O17       1.0  0.67787  0.00129  0.08428  1.0000
  O   O18       1.0  0.32213  0.99870  0.91572  1.0000
