data_image0
_chemical_formula_structural       Co4H32C32N4O20
_chemical_formula_sum              "Co4 H32 C32 N4 O20"
_cell_length_a       9.40821
_cell_length_b       9.40594
_cell_length_c       11.7617
_cell_angle_alpha    90.1371
_cell_angle_beta     90.221
_cell_angle_gamma    111.043

_space_group_name_H-M_alt    "P 1"
_space_group_IT_number       1

loop_
  _space_group_symop_operation_xyz
  'x, y, z'

loop_
  _atom_site_type_symbol
  _atom_site_label
  _atom_site_symmetry_multiplicity
  _atom_site_fract_x
  _atom_site_fract_y
  _atom_site_fract_z
  _atom_site_occupancy
  Co  Co1       1.0  0.88491  0.11379  0.50569  1.0000
  Co  Co2       1.0  0.11422  0.88541  0.00643  1.0000
  Co  Co3       1.0  0.86485  0.85811  0.68821  1.0000
  Co  Co4       1.0  0.85632  0.86556  0.18784  1.0000
  H   H1        1.0  0.43476  0.93061  0.22336  1.0000
  H   H2        1.0  0.93257  0.43875  0.72320  1.0000
  H   H3        1.0  0.32252  0.87508  0.63372  1.0000
  H   H4        1.0  0.87499  0.32255  0.13301  1.0000
  H   H5        1.0  0.07870  0.17125  0.30111  1.0000
  H   H6        1.0  0.17180  0.08255  0.80383  1.0000
  H   H7        1.0  0.16967  0.60948  0.21208  1.0000
  H   H8        1.0  0.60859  0.16772  0.71227  1.0000
  H   H9        1.0  0.31833  0.61994  0.30995  1.0000
  H   H10       1.0  0.62150  0.31449  0.81249  1.0000
  H   H11       1.0  0.12539  0.56265  0.35872  1.0000
  H   H12       1.0  0.56092  0.12004  0.85836  1.0000
  H   H13       1.0  0.37917  0.43366  0.17544  1.0000
  H   H14       1.0  0.43680  0.37932  0.67543  1.0000
  H   H15       1.0  0.21578  0.40582  0.08791  1.0000
  H   H16       1.0  0.40477  0.21441  0.58891  1.0000
  H   H17       1.0  0.23643  0.24738  0.15997  1.0000
  H   H18       1.0  0.24887  0.23913  0.66158  1.0000
  H   H19       1.0  0.85205  0.42989  0.55110  1.0000
  H   H20       1.0  0.43188  0.85042  0.05230  1.0000
  H   H21       1.0  0.57444  0.36248  0.28778  1.0000
  H   H22       1.0  0.36557  0.57575  0.78731  1.0000
  H   H23       1.0  0.44405  0.36397  0.39828  1.0000
  H   H24       1.0  0.36404  0.44383  0.89756  1.0000
  H   H25       1.0  0.51618  0.21180  0.39033  1.0000
  H   H26       1.0  0.21309  0.51751  0.88821  1.0000
  H   H27       1.0  0.62359  0.61587  0.48155  1.0000
  H   H28       1.0  0.61550  0.62053  0.98198  1.0000
  H   H29       1.0  0.74605  0.62680  0.36308  1.0000
  H   H30       1.0  0.62865  0.74531  0.86451  1.0000
  H   H31       1.0  0.81693  0.63368  0.50522  1.0000
  H   H32       1.0  0.63475  0.81402  0.00713  1.0000
  C   C1        1.0  0.59021  0.85949  0.59377  1.0000
  C   C2        1.0  0.85797  0.59027  0.09346  1.0000
  C   C3        1.0  0.66586  0.90995  0.33231  1.0000
  C   C4        1.0  0.91019  0.66815  0.83292  1.0000
  C   C5        1.0  0.15678  0.91965  0.26301  1.0000
  C   C6        1.0  0.92098  0.15960  0.76210  1.0000
  C   C7        1.0  0.10513  0.93742  0.52029  1.0000
  C   C8        1.0  0.93705  0.10597  0.01952  1.0000
  C   C9        1.0  0.48885  0.88957  0.50570  1.0000
  C   C10       1.0  0.88980  0.48995  0.00562  1.0000
  C   C11       1.0  0.52305  0.90888  0.38891  1.0000
  C   C12       1.0  0.90981  0.52510  0.88901  1.0000
  C   C13       1.0  0.41270  0.92284  0.31428  1.0000
  C   C14       1.0  0.92424  0.41553  0.81397  1.0000
  C   C15       1.0  0.27269  0.92430  0.35169  1.0000
  C   C16       1.0  0.92554  0.27517  0.85093  1.0000
  C   C17       1.0  0.24172  0.91390  0.46945  1.0000
  C   C18       1.0  0.91438  0.24319  0.96859  1.0000
  C   C19       1.0  0.34807  0.89119  0.54332  1.0000
  C   C20       1.0  0.89136  0.34894  0.04277  1.0000
  C   C21       1.0  0.08758  0.28580  0.32865  1.0000
  C   C22       1.0  0.28616  0.08947  0.83048  1.0000
  C   C23       1.0  0.19838  0.55722  0.28797  1.0000
  C   C24       1.0  0.55707  0.19552  0.78878  1.0000
  C   C25       1.0  0.25628  0.36934  0.16632  1.0000
  C   C26       1.0  0.37038  0.25676  0.66727  1.0000
  C   C27       1.0  0.75081  0.35065  0.50714  1.0000
  C   C28       1.0  0.35221  0.75055  0.00723  1.0000
  C   C29       1.0  0.54337  0.33365  0.37705  1.0000
  C   C30       1.0  0.33499  0.54392  0.87623  1.0000
  C   C31       1.0  0.71758  0.58383  0.44973  1.0000
  C   C32       1.0  0.58473  0.71568  0.95079  1.0000
  N   N1        1.0  0.17606  0.39902  0.26378  1.0000
  N   N2        1.0  0.39947  0.17631  0.76498  1.0000
  N   N3        1.0  0.67177  0.41888  0.44932  1.0000
  N   N4        1.0  0.42000  0.67119  0.94945  1.0000
  O   O1        1.0  0.73638  0.90074  0.56918  1.0000
  O   O2        1.0  0.90084  0.73685  0.06991  1.0000
  O   O3        1.0  0.53648  0.79470  0.68396  1.0000
  O   O4        1.0  0.79013  0.53533  0.18233  1.0000
  O   O5        1.0  0.79622  0.01014  0.35157  1.0000
  O   O6        1.0  0.00987  0.79869  0.85259  1.0000
  O   O7        1.0  0.64869  0.80908  0.25446  1.0000
  O   O8        1.0  0.80893  0.65102  0.75528  1.0000
  O   O9        1.0  0.20317  0.96554  0.16321  1.0000
  O   O10       1.0  0.96698  0.20570  0.66230  1.0000
  O   O11       1.0  0.01714  0.86539  0.29294  1.0000
  O   O12       1.0  0.86619  0.02000  0.79225  1.0000
  O   O13       1.0  0.07453  0.05030  0.48617  1.0000
  O   O14       1.0  0.05015  0.07535  0.98626  1.0000
  O   O15       1.0  0.03777  0.84617  0.60051  1.0000
  O   O16       1.0  0.84506  0.03846  0.09934  1.0000
  O   O17       1.0  0.01788  0.30502  0.41504  1.0000
  O   O18       1.0  0.30525  0.01926  0.91674  1.0000
  O   O19       1.0  0.71580  0.20832  0.51278  1.0000
  O   O20       1.0  0.21007  0.71690  0.01191  1.0000
