data_image0
_chemical_formula_structural       ZnH16C10O10
_chemical_formula_sum              "Zn1 H16 C10 O10"
_cell_length_a       4.8133
_cell_length_b       5.64527
_cell_length_c       12.0195
_cell_angle_alpha    92.8047
_cell_angle_beta     94.5994
_cell_angle_gamma    96.0121

_space_group_name_H-M_alt    "P 1"
_space_group_IT_number       1

loop_
  _space_group_symop_operation_xyz
  'x, y, z'

loop_
  _atom_site_type_symbol
  _atom_site_label
  _atom_site_symmetry_multiplicity
  _atom_site_fract_x
  _atom_site_fract_y
  _atom_site_fract_z
  _atom_site_occupancy
  Zn  Zn1       1.0  0.50000  0.49999  0.50000  1.0000
  H   H1        1.0  0.28335  0.13809  0.57691  1.0000
  H   H2        1.0  0.71664  0.86189  0.42309  1.0000
  H   H3        1.0  0.04733  0.21143  0.48175  1.0000
  H   H4        1.0  0.95266  0.78856  0.51824  1.0000
  H   H5        1.0  0.09942  0.57658  0.64958  1.0000
  H   H6        1.0  0.90056  0.42340  0.35042  1.0000
  H   H7        1.0  0.33425  0.80653  0.65433  1.0000
  H   H8        1.0  0.66574  0.19345  0.34567  1.0000
  H   H9        1.0  0.00917  0.93080  0.19512  1.0000
  H   H10       1.0  0.99083  0.06920  0.80489  1.0000
  H   H11       1.0  0.23282  0.77391  0.11196  1.0000
  H   H12       1.0  0.76720  0.22609  0.88805  1.0000
  H   H13       1.0  0.53038  0.20753  0.14739  1.0000
  H   H14       1.0  0.46961  0.79250  0.85261  1.0000
  H   H15       1.0  0.84271  0.86234  0.00744  1.0000
  H   H16       1.0  0.15729  0.13768  0.99256  1.0000
  C   C1        1.0  0.31575  0.75366  0.28894  1.0000
  C   C2        1.0  0.68426  0.24635  0.71106  1.0000
  C   C3        1.0  0.11263  0.76605  0.18618  1.0000
  C   C4        1.0  0.88738  0.23395  0.81382  1.0000
  C   C5        1.0  0.71223  0.53854  0.08818  1.0000
  C   C6        1.0  0.28777  0.46147  0.91181  1.0000
  C   C7        1.0  0.51695  0.33543  0.08252  1.0000
  C   C8        1.0  0.48306  0.66460  0.91748  1.0000
  C   C9        1.0  0.69396  0.70304  0.00497  1.0000
  C   C10       1.0  0.30604  0.29696  0.99502  1.0000
  O   O1        1.0  0.25000  0.59702  0.35778  1.0000
  O   O2        1.0  0.75001  0.40296  0.64223  1.0000
  O   O3        1.0  0.53581  0.90028  0.29792  1.0000
  O   O4        1.0  0.46421  0.09971  0.70209  1.0000
  O   O5        1.0  0.91102  0.56109  0.17754  1.0000
  O   O6        1.0  0.08899  0.43892  0.82246  1.0000
  O   O7        1.0  0.24606  0.18415  0.49814  1.0000
  O   O8        1.0  0.75393  0.81583  0.50186  1.0000
  O   O9        1.0  0.22920  0.67535  0.60563  1.0000
  O   O10       1.0  0.77079  0.32464  0.39437  1.0000
