data_image0
_chemical_formula_structural       Zn4H40C64N4O16
_chemical_formula_sum              "Zn4 H40 C64 N4 O16"
_cell_length_a       7.29579
_cell_length_b       13.949
_cell_length_c       13.9489
_cell_angle_alpha    100.991
_cell_angle_beta     91.577
_cell_angle_gamma    91.5769

_space_group_name_H-M_alt    "P 1"
_space_group_IT_number       1

loop_
  _space_group_symop_operation_xyz
  'x, y, z'

loop_
  _atom_site_type_symbol
  _atom_site_label
  _atom_site_symmetry_multiplicity
  _atom_site_fract_x
  _atom_site_fract_y
  _atom_site_fract_z
  _atom_site_occupancy
  Zn  Zn1       1.0  0.84039  0.68760  0.17390  1.0000
  Zn  Zn2       1.0  0.65961  0.82609  0.31239  1.0000
  Zn  Zn3       1.0  0.15961  0.31240  0.82609  1.0000
  Zn  Zn4       1.0  0.34040  0.17391  0.68760  1.0000
  H   H1        1.0  0.97334  0.81881  0.54489  1.0000
  H   H2        1.0  0.52666  0.45511  0.18119  1.0000
  H   H3        1.0  0.02666  0.18119  0.45511  1.0000
  H   H4        1.0  0.47334  0.54489  0.81881  1.0000
  H   H5        1.0  0.17227  0.82031  0.69464  1.0000
  H   H6        1.0  0.32772  0.30536  0.17969  1.0000
  H   H7        1.0  0.82772  0.17969  0.30536  1.0000
  H   H8        1.0  0.67228  0.69464  0.82031  1.0000
  H   H9        1.0  0.41789  0.69693  0.68762  1.0000
  H   H10       1.0  0.08211  0.31238  0.30306  1.0000
  H   H11       1.0  0.58211  0.30307  0.31239  1.0000
  H   H12       1.0  0.91789  0.68761  0.69694  1.0000
  H   H13       1.0  0.45697  0.57635  0.53708  1.0000
  H   H14       1.0  0.04303  0.46292  0.42365  1.0000
  H   H15       1.0  0.54303  0.42365  0.46292  1.0000
  H   H16       1.0  0.95698  0.53708  0.57635  1.0000
  H   H17       1.0  0.43723  0.65707  0.94139  1.0000
  H   H18       1.0  0.06277  0.05861  0.34294  1.0000
  H   H19       1.0  0.56277  0.34294  0.05861  1.0000
  H   H20       1.0  0.93723  0.94139  0.65707  1.0000
  H   H21       1.0  0.17983  0.65729  0.81903  1.0000
  H   H22       1.0  0.32016  0.18097  0.34272  1.0000
  H   H23       1.0  0.82017  0.34272  0.18097  1.0000
  H   H24       1.0  0.67984  0.81903  0.65730  1.0000
  H   H25       1.0  0.96168  0.79540  0.84553  1.0000
  H   H26       1.0  0.53833  0.15447  0.20461  1.0000
  H   H27       1.0  0.03832  0.20461  0.15447  1.0000
  H   H28       1.0  0.46168  0.84553  0.79540  1.0000
  H   H29       1.0  0.99959  0.92535  0.99102  1.0000
  H   H30       1.0  0.50042  0.00897  0.07465  1.0000
  H   H31       1.0  0.00041  0.07465  0.00897  1.0000
  H   H32       1.0  0.49960  0.99103  0.92536  1.0000
  H   H33       1.0  0.77316  0.61170  0.95909  1.0000
  H   H34       1.0  0.72684  0.04091  0.38830  1.0000
  H   H35       1.0  0.22684  0.38830  0.04091  1.0000
  H   H36       1.0  0.27316  0.95909  0.61170  1.0000
  H   H37       1.0  0.88339  0.47045  0.83108  1.0000
  H   H38       1.0  0.61660  0.16892  0.52955  1.0000
  H   H39       1.0  0.11660  0.52955  0.16892  1.0000
  H   H40       1.0  0.38340  0.83108  0.47045  1.0000
  C   C1        1.0  0.98319  0.71020  0.37176  1.0000
  C   C2        1.0  0.51680  0.62824  0.28980  1.0000
  C   C3        1.0  0.01682  0.28981  0.62824  1.0000
  C   C4        1.0  0.48320  0.37176  0.71019  1.0000
  C   C5        1.0  0.10318  0.69896  0.45812  1.0000
  C   C6        1.0  0.39681  0.54187  0.30103  1.0000
  C   C7        1.0  0.89682  0.30104  0.54187  1.0000
  C   C8        1.0  0.60318  0.45813  0.69897  1.0000
  C   C9        1.0  0.08093  0.76636  0.54532  1.0000
  C   C10       1.0  0.41906  0.45467  0.23364  1.0000
  C   C11       1.0  0.91907  0.23364  0.45468  1.0000
  C   C12       1.0  0.58093  0.54532  0.76636  1.0000
  C   C13       1.0  0.19191  0.76688  0.62794  1.0000
  C   C14       1.0  0.30809  0.37206  0.23312  1.0000
  C   C15       1.0  0.80809  0.23312  0.37207  1.0000
  C   C16       1.0  0.69191  0.62794  0.76688  1.0000
  C   C17       1.0  0.32888  0.69846  0.62406  1.0000
  C   C18       1.0  0.17111  0.37594  0.30154  1.0000
  C   C19       1.0  0.67111  0.30153  0.37594  1.0000
  C   C20       1.0  0.82889  0.62406  0.69847  1.0000
  C   C21       1.0  0.35081  0.63007  0.53865  1.0000
  C   C22       1.0  0.14919  0.46135  0.36993  1.0000
  C   C23       1.0  0.64919  0.36993  0.46135  1.0000
  C   C24       1.0  0.85082  0.53865  0.63007  1.0000
  C   C25       1.0  0.23914  0.62859  0.45463  1.0000
  C   C26       1.0  0.26086  0.54537  0.37141  1.0000
  C   C27       1.0  0.76087  0.37141  0.54537  1.0000
  C   C28       1.0  0.73913  0.45463  0.62859  1.0000
  C   C29       1.0  0.51596  0.78133  0.10588  1.0000
  C   C30       1.0  0.98403  0.89413  0.21867  1.0000
  C   C31       1.0  0.48404  0.21867  0.89412  1.0000
  C   C32       1.0  0.01596  0.10588  0.78133  1.0000
  C   C33       1.0  0.36436  0.79033  0.03340  1.0000
  C   C34       1.0  0.13563  0.96660  0.20967  1.0000
  C   C35       1.0  0.63563  0.20968  0.96660  1.0000
  C   C36       1.0  0.86437  0.03340  0.79033  1.0000
  C   C37       1.0  0.34065  0.71602  0.95042  1.0000
  C   C38       1.0  0.15934  0.04958  0.28398  1.0000
  C   C39       1.0  0.65934  0.28398  0.04958  1.0000
  C   C40       1.0  0.84066  0.95042  0.71602  1.0000
  C   C41       1.0  0.19681  0.71618  0.88272  1.0000
  C   C42       1.0  0.30320  0.11727  0.28382  1.0000
  C   C43       1.0  0.80319  0.28382  0.11727  1.0000
  C   C44       1.0  0.69681  0.88273  0.71619  1.0000
  C   C45       1.0  0.07490  0.79277  0.89747  1.0000
  C   C46       1.0  0.42510  0.10253  0.20723  1.0000
  C   C47       1.0  0.92510  0.20723  0.10253  1.0000
  C   C48       1.0  0.57490  0.89747  0.79278  1.0000
  C   C49       1.0  0.09719  0.86689  0.97965  1.0000
  C   C50       1.0  0.40282  0.02035  0.13311  1.0000
  C   C51       1.0  0.90282  0.13311  0.02035  1.0000
  C   C52       1.0  0.59719  0.97965  0.86690  1.0000
  C   C53       1.0  0.23992  0.86695  0.04910  1.0000
  C   C54       1.0  0.26007  0.95090  0.13305  1.0000
  C   C55       1.0  0.76007  0.13305  0.95090  1.0000
  C   C56       1.0  0.73992  0.04911  0.86695  1.0000
  C   C57       1.0  0.87442  0.56118  0.97635  1.0000
  C   C58       1.0  0.62558  0.02365  0.43882  1.0000
  C   C59       1.0  0.12559  0.43882  0.02365  1.0000
  C   C60       1.0  0.37442  0.97635  0.56118  1.0000
  C   C61       1.0  0.93437  0.48417  0.90674  1.0000
  C   C62       1.0  0.56563  0.09326  0.51583  1.0000
  C   C63       1.0  0.06563  0.51583  0.09326  1.0000
  C   C64       1.0  0.43437  0.90674  0.48417  1.0000
  N   N1        1.0  0.94024  0.57656  0.06908  1.0000
  N   N2        1.0  0.55977  0.93092  0.42343  1.0000
  N   N3        1.0  0.05977  0.42343  0.93092  1.0000
  N   N4        1.0  0.44023  0.06908  0.57657  1.0000
  O   O1        1.0  0.00357  0.65453  0.28972  1.0000
  O   O2        1.0  0.49644  0.71028  0.34547  1.0000
  O   O3        1.0  0.99643  0.34547  0.71028  1.0000
  O   O4        1.0  0.50357  0.28972  0.65453  1.0000
  O   O5        1.0  0.86917  0.77876  0.38857  1.0000
  O   O6        1.0  0.63082  0.61142  0.22123  1.0000
  O   O7        1.0  0.13084  0.22125  0.61142  1.0000
  O   O8        1.0  0.36917  0.38858  0.77876  1.0000
  O   O9        1.0  0.65185  0.73001  0.07488  1.0000
  O   O10       1.0  0.84814  0.92512  0.26999  1.0000
  O   O11       1.0  0.34814  0.27000  0.92512  1.0000
  O   O12       1.0  0.15185  0.07489  0.73001  1.0000
  O   O13       1.0  0.49512  0.82392  0.19386  1.0000
  O   O14       1.0  0.00488  0.80614  0.17607  1.0000
  O   O15       1.0  0.50488  0.17608  0.80614  1.0000
  O   O16       1.0  0.99512  0.19387  0.82393  1.0000
