data_image0
_chemical_formula_structural       Ba4H32C24N8O28
_chemical_formula_sum              "Ba4 H32 C24 N8 O28"
_cell_length_a       7.42791
_cell_length_b       9.53606
_cell_length_c       13.7431
_cell_angle_alpha    89.9999
_cell_angle_beta     96.2922
_cell_angle_gamma    89.9994

_space_group_name_H-M_alt    "P 1"
_space_group_IT_number       1

loop_
  _space_group_symop_operation_xyz
  'x, y, z'

loop_
  _atom_site_type_symbol
  _atom_site_label
  _atom_site_symmetry_multiplicity
  _atom_site_fract_x
  _atom_site_fract_y
  _atom_site_fract_z
  _atom_site_occupancy
  Ba  Ba1       1.0  0.82882  0.41066  0.68319  1.0000
  Ba  Ba2       1.0  0.67117  0.91066  0.31681  1.0000
  Ba  Ba3       1.0  0.17118  0.58934  0.31681  1.0000
  Ba  Ba4       1.0  0.32883  0.08934  0.68319  1.0000
  H   H1        1.0  0.09699  0.42712  0.89314  1.0000
  H   H2        1.0  0.40300  0.92712  0.10686  1.0000
  H   H3        1.0  0.90300  0.57288  0.10686  1.0000
  H   H4        1.0  0.59699  0.07288  0.89314  1.0000
  H   H5        1.0  0.04148  0.27305  0.85848  1.0000
  H   H6        1.0  0.45851  0.77304  0.14152  1.0000
  H   H7        1.0  0.95851  0.72695  0.14152  1.0000
  H   H8        1.0  0.54148  0.22695  0.85848  1.0000
  H   H9        1.0  0.00713  0.20335  0.49998  1.0000
  H   H10       1.0  0.49286  0.70335  0.50003  1.0000
  H   H11       1.0  0.99286  0.79665  0.50002  1.0000
  H   H12       1.0  0.50714  0.29665  0.49997  1.0000
  H   H13       1.0  0.11854  0.33282  0.54463  1.0000
  H   H14       1.0  0.38146  0.83281  0.45537  1.0000
  H   H15       1.0  0.88146  0.66718  0.45537  1.0000
  H   H16       1.0  0.61854  0.16718  0.54463  1.0000
  H   H17       1.0  0.87059  0.42914  0.43877  1.0000
  H   H18       1.0  0.62940  0.92914  0.56123  1.0000
  H   H19       1.0  0.12941  0.57086  0.56123  1.0000
  H   H20       1.0  0.37060  0.07086  0.43877  1.0000
  H   H21       1.0  0.67641  0.48424  0.43919  1.0000
  H   H22       1.0  0.82359  0.98424  0.56081  1.0000
  H   H23       1.0  0.32359  0.51576  0.56081  1.0000
  H   H24       1.0  0.17642  0.01576  0.43919  1.0000
  H   H25       1.0  0.67380  0.80553  0.00626  1.0000
  H   H26       1.0  0.82621  0.30552  0.99374  1.0000
  H   H27       1.0  0.32621  0.19447  0.99374  1.0000
  H   H28       1.0  0.17379  0.69447  0.00626  1.0000
  H   H29       1.0  0.74545  0.57228  0.92753  1.0000
  H   H30       1.0  0.75456  0.07227  0.07247  1.0000
  H   H31       1.0  0.25455  0.42772  0.07247  1.0000
  H   H32       1.0  0.24545  0.92773  0.92754  1.0000
  C   C1        1.0  0.89004  0.79041  0.76880  1.0000
  C   C2        1.0  0.60996  0.29041  0.23119  1.0000
  C   C3        1.0  0.10996  0.20960  0.23120  1.0000
  C   C4        1.0  0.39004  0.70960  0.76881  1.0000
  C   C5        1.0  0.84996  0.91857  0.81220  1.0000
  C   C6        1.0  0.65004  0.41857  0.18780  1.0000
  C   C7        1.0  0.15004  0.08144  0.18780  1.0000
  C   C8        1.0  0.34996  0.58143  0.81220  1.0000
  C   C9        1.0  0.73788  0.79998  0.93837  1.0000
  C   C10       1.0  0.76213  0.29997  0.06163  1.0000
  C   C11       1.0  0.26213  0.20002  0.06163  1.0000
  C   C12       1.0  0.23787  0.70002  0.93837  1.0000
  C   C13       1.0  0.77627  0.67245  0.89485  1.0000
  C   C14       1.0  0.72375  0.17245  0.10515  1.0000
  C   C15       1.0  0.22374  0.32755  0.10515  1.0000
  C   C16       1.0  0.27626  0.82755  0.89485  1.0000
  C   C17       1.0  0.97810  0.77933  0.67447  1.0000
  C   C18       1.0  0.52191  0.27933  0.32553  1.0000
  C   C19       1.0  0.02190  0.22067  0.32553  1.0000
  C   C20       1.0  0.47809  0.72067  0.67447  1.0000
  C   C21       1.0  0.88950  0.06198  0.77325  1.0000
  C   C22       1.0  0.61048  0.56198  0.22674  1.0000
  C   C23       1.0  0.11050  0.93802  0.22675  1.0000
  C   C24       1.0  0.38951  0.43802  0.77326  1.0000
  N   N1        1.0  0.84763  0.66837  0.80973  1.0000
  N   N2        1.0  0.65238  0.16837  0.19027  1.0000
  N   N3        1.0  0.15237  0.33163  0.19027  1.0000
  N   N4        1.0  0.34763  0.83163  0.80973  1.0000
  N   N5        1.0  0.77002  0.92230  0.89565  1.0000
  N   N6        1.0  0.72998  0.42230  0.10434  1.0000
  N   N7        1.0  0.22998  0.07770  0.10435  1.0000
  N   N8        1.0  0.27002  0.57770  0.89565  1.0000
  O   O1        1.0  0.99232  0.36300  0.88012  1.0000
  O   O2        1.0  0.50768  0.86300  0.11988  1.0000
  O   O3        1.0  0.00768  0.63700  0.11988  1.0000
  O   O4        1.0  0.49232  0.13700  0.88012  1.0000
  O   O5        1.0  0.05468  0.24614  0.56288  1.0000
  O   O6        1.0  0.44532  0.74613  0.43712  1.0000
  O   O7        1.0  0.94532  0.75386  0.43712  1.0000
  O   O8        1.0  0.55468  0.25386  0.56288  1.0000
  O   O9        1.0  0.79778  0.49409  0.47560  1.0000
  O   O10       1.0  0.70222  0.99408  0.52440  1.0000
  O   O11       1.0  0.20222  0.50591  0.52440  1.0000
  O   O12       1.0  0.29779  0.00592  0.47561  1.0000
  O   O13       1.0  0.00715  0.65630  0.64511  1.0000
  O   O14       1.0  0.49285  0.15631  0.35489  1.0000
  O   O15       1.0  0.99285  0.34370  0.35489  1.0000
  O   O16       1.0  0.50715  0.84369  0.64511  1.0000
  O   O17       1.0  0.01759  0.89135  0.63073  1.0000
  O   O18       1.0  0.48241  0.39136  0.36927  1.0000
  O   O19       1.0  0.98241  0.10865  0.36927  1.0000
  O   O20       1.0  0.51759  0.60865  0.63073  1.0000
  O   O21       1.0  0.04932  0.10812  0.79708  1.0000
  O   O22       1.0  0.45067  0.60812  0.20291  1.0000
  O   O23       1.0  0.95067  0.89188  0.20292  1.0000
  O   O24       1.0  0.54933  0.39188  0.79709  1.0000
  O   O25       1.0  0.75942  0.12778  0.72775  1.0000
  O   O26       1.0  0.74057  0.62778  0.27225  1.0000
  O   O27       1.0  0.24058  0.87222  0.27225  1.0000
  O   O28       1.0  0.25942  0.37222  0.72775  1.0000
