data_image0
_chemical_formula_structural       Ba4H40C48N16O40
_chemical_formula_sum              "Ba4 H40 C48 N16 O40"
_cell_length_a       7.29491
_cell_length_b       15.4722
_cell_length_c       16.1247
_cell_angle_alpha    107.656
_cell_angle_beta     90.0009
_cell_angle_gamma    90.0038

_space_group_name_H-M_alt    "P 1"
_space_group_IT_number       1

loop_
  _space_group_symop_operation_xyz
  'x, y, z'

loop_
  _atom_site_type_symbol
  _atom_site_label
  _atom_site_symmetry_multiplicity
  _atom_site_fract_x
  _atom_site_fract_y
  _atom_site_fract_z
  _atom_site_occupancy
  Ba  Ba1       1.0  0.82759  0.59380  0.80593  1.0000
  Ba  Ba2       1.0  0.32756  0.40620  0.69407  1.0000
  Ba  Ba3       1.0  0.17241  0.40620  0.19406  1.0000
  Ba  Ba4       1.0  0.67243  0.59380  0.30594  1.0000
  H   H1        1.0  0.94481  0.71548  0.67459  1.0000
  H   H2        1.0  0.44473  0.28453  0.82542  1.0000
  H   H3        1.0  0.05521  0.28452  0.32542  1.0000
  H   H4        1.0  0.55523  0.71547  0.17458  1.0000
  H   H5        1.0  0.14337  0.69550  0.70028  1.0000
  H   H6        1.0  0.64331  0.30451  0.79974  1.0000
  H   H7        1.0  0.85664  0.30450  0.29972  1.0000
  H   H8        1.0  0.35667  0.69549  0.20028  1.0000
  H   H9        1.0  0.49436  0.63958  0.68224  1.0000
  H   H10       1.0  0.99431  0.36041  0.81775  1.0000
  H   H11       1.0  0.50565  0.36042  0.31775  1.0000
  H   H12       1.0  0.00567  0.63958  0.18224  1.0000
  H   H13       1.0  0.64835  0.70939  0.68106  1.0000
  H   H14       1.0  0.14829  0.29060  0.81893  1.0000
  H   H15       1.0  0.35166  0.29062  0.31894  1.0000
  H   H16       1.0  0.85168  0.70938  0.18106  1.0000
  H   H17       1.0  0.50964  0.98779  0.21683  1.0000
  H   H18       1.0  0.00961  0.01220  0.28317  1.0000
  H   H19       1.0  0.49037  0.01220  0.78317  1.0000
  H   H20       1.0  0.99040  0.98781  0.71683  1.0000
  H   H21       1.0  0.25151  0.42488  0.98615  1.0000
  H   H22       1.0  0.75154  0.57512  0.51384  1.0000
  H   H23       1.0  0.74846  0.57511  0.01383  1.0000
  H   H24       1.0  0.24845  0.42488  0.48616  1.0000
  H   H25       1.0  0.83044  0.99806  0.88566  1.0000
  H   H26       1.0  0.33051  0.00193  0.61433  1.0000
  H   H27       1.0  0.16957  0.00193  0.11434  1.0000
  H   H28       1.0  0.66950  0.99808  0.38568  1.0000
  H   H29       1.0  0.87902  0.83223  0.80360  1.0000
  H   H30       1.0  0.37903  0.16777  0.69640  1.0000
  H   H31       1.0  0.12101  0.16777  0.19641  1.0000
  H   H32       1.0  0.62097  0.83224  0.30360  1.0000
  H   H33       1.0  0.19342  0.85787  0.14888  1.0000
  H   H34       1.0  0.69336  0.14213  0.35115  1.0000
  H   H35       1.0  0.80659  0.14212  0.85114  1.0000
  H   H36       1.0  0.30666  0.85788  0.64885  1.0000
  H   H37       1.0  0.28855  0.88151  0.00464  1.0000
  H   H38       1.0  0.78844  0.11852  0.49541  1.0000
  H   H39       1.0  0.71150  0.11850  0.99539  1.0000
  H   H40       1.0  0.21156  0.88149  0.50460  1.0000
  C   C1        1.0  0.78128  0.81678  0.99670  1.0000
  C   C2        1.0  0.28126  0.18322  0.50330  1.0000
  C   C3        1.0  0.21872  0.18321  0.00329  1.0000
  C   C4        1.0  0.71874  0.81679  0.49670  1.0000
  C   C5        1.0  0.75855  0.90919  0.04265  1.0000
  C   C6        1.0  0.25857  0.09080  0.45735  1.0000
  C   C7        1.0  0.24145  0.09080  0.95735  1.0000
  C   C8        1.0  0.74144  0.90920  0.54265  1.0000
  C   C9        1.0  0.81629  0.94610  0.91825  1.0000
  C   C10       1.0  0.31633  0.05389  0.58174  1.0000
  C   C11       1.0  0.18372  0.05389  0.08175  1.0000
  C   C12       1.0  0.68368  0.94612  0.41826  1.0000
  C   C13       1.0  0.84188  0.85476  0.87232  1.0000
  C   C14       1.0  0.34189  0.14523  0.62767  1.0000
  C   C15       1.0  0.15813  0.14523  0.12767  1.0000
  C   C16       1.0  0.65811  0.85477  0.37233  1.0000
  C   C17       1.0  0.75804  0.74308  0.03978  1.0000
  C   C18       1.0  0.25801  0.25690  0.46022  1.0000
  C   C19       1.0  0.24195  0.25690  0.96021  1.0000
  C   C20       1.0  0.74199  0.74310  0.53978  1.0000
  C   C21       1.0  0.71975  0.94590  0.13928  1.0000
  C   C22       1.0  0.21974  0.05409  0.36072  1.0000
  C   C23       1.0  0.28023  0.05408  0.86071  1.0000
  C   C24       1.0  0.78027  0.94591  0.63928  1.0000
  C   C25       1.0  0.29705  0.66015  0.94968  1.0000
  C   C26       1.0  0.79703  0.33987  0.55033  1.0000
  C   C27       1.0  0.70296  0.33985  0.05033  1.0000
  C   C28       1.0  0.20298  0.66014  0.44967  1.0000
  C   C29       1.0  0.24567  0.64700  0.02918  1.0000
  C   C30       1.0  0.74566  0.35301  0.47082  1.0000
  C   C31       1.0  0.75431  0.35300  0.97082  1.0000
  C   C32       1.0  0.25435  0.64700  0.52918  1.0000
  C   C33       1.0  0.22371  0.80098  0.09120  1.0000
  C   C34       1.0  0.72367  0.19903  0.40882  1.0000
  C   C35       1.0  0.77628  0.19902  0.90881  1.0000
  C   C36       1.0  0.27634  0.80098  0.59118  1.0000
  C   C37       1.0  0.27626  0.81395  0.01231  1.0000
  C   C38       1.0  0.77619  0.18606  0.48771  1.0000
  C   C39       1.0  0.72376  0.18605  0.98771  1.0000
  C   C40       1.0  0.22381  0.81394  0.51229  1.0000
  C   C41       1.0  0.32605  0.58442  0.86609  1.0000
  C   C42       1.0  0.82603  0.41560  0.63391  1.0000
  C   C43       1.0  0.67395  0.41559  0.13391  1.0000
  C   C44       1.0  0.17396  0.58441  0.36609  1.0000
  C   C45       1.0  0.22281  0.55553  0.04264  1.0000
  C   C46       1.0  0.72282  0.44447  0.45735  1.0000
  C   C47       1.0  0.77715  0.44446  0.95735  1.0000
  C   C48       1.0  0.27718  0.55553  0.54265  1.0000
  N   N1        1.0  0.82325  0.79076  0.91165  1.0000
  N   N2        1.0  0.32323  0.20923  0.58835  1.0000
  N   N3        1.0  0.17676  0.20923  0.08834  1.0000
  N   N4        1.0  0.67677  0.79077  0.41165  1.0000
  N   N5        1.0  0.77456  0.97360  0.00297  1.0000
  N   N6        1.0  0.27462  0.02639  0.49702  1.0000
  N   N7        1.0  0.22544  0.02639  0.99703  1.0000
  N   N8        1.0  0.72540  0.97361  0.50298  1.0000
  N   N9        1.0  0.31406  0.74405  0.94209  1.0000
  N   N10       1.0  0.81400  0.25597  0.55793  1.0000
  N   N11       1.0  0.68597  0.25595  0.05793  1.0000
  N   N12       1.0  0.18601  0.74404  0.44207  1.0000
  N   N13       1.0  0.21075  0.71806  0.09949  1.0000
  N   N14       1.0  0.71072  0.28194  0.40051  1.0000
  N   N15       1.0  0.78924  0.28193  0.90051  1.0000
  N   N16       1.0  0.28930  0.71807  0.59949  1.0000
  O   O1        1.0  0.01476  0.69548  0.71792  1.0000
  O   O2        1.0  0.51471  0.30455  0.78209  1.0000
  O   O3        1.0  0.98525  0.30453  0.28208  1.0000
  O   O4        1.0  0.48527  0.69547  0.21793  1.0000
  O   O5        1.0  0.59703  0.67372  0.71670  1.0000
  O   O6        1.0  0.09700  0.32629  0.78330  1.0000
  O   O7        1.0  0.40297  0.32629  0.28330  1.0000
  O   O8        1.0  0.90300  0.67371  0.21669  1.0000
  O   O9        1.0  0.78817  0.66212  0.99255  1.0000
  O   O10       1.0  0.28813  0.33787  0.50745  1.0000
  O   O11       1.0  0.21184  0.33787  0.00744  1.0000
  O   O12       1.0  0.71186  0.66213  0.49255  1.0000
  O   O13       1.0  0.48534  0.55508  0.84452  1.0000
  O   O14       1.0  0.98532  0.44495  0.65549  1.0000
  O   O15       1.0  0.51466  0.44493  0.15548  1.0000
  O   O16       1.0  0.01467  0.55507  0.34451  1.0000
  O   O17       1.0  0.71143  0.76905  0.11914  1.0000
  O   O18       1.0  0.21140  0.23093  0.38086  1.0000
  O   O19       1.0  0.28854  0.23094  0.88086  1.0000
  O   O20       1.0  0.78860  0.76907  0.61914  1.0000
  O   O21       1.0  0.84171  0.96840  0.19426  1.0000
  O   O22       1.0  0.34171  0.03161  0.30573  1.0000
  O   O23       1.0  0.15829  0.03158  0.80574  1.0000
  O   O24       1.0  0.65829  0.96839  0.69427  1.0000
  O   O25       1.0  0.54091  0.95940  0.15457  1.0000
  O   O26       1.0  0.04091  0.04059  0.34544  1.0000
  O   O27       1.0  0.45909  0.04060  0.84543  1.0000
  O   O28       1.0  0.95910  0.95941  0.65456  1.0000
  O   O29       1.0  0.18237  0.55757  0.82148  1.0000
  O   O30       1.0  0.68233  0.44244  0.67851  1.0000
  O   O31       1.0  0.81764  0.44244  0.17851  1.0000
  O   O32       1.0  0.31765  0.55756  0.32149  1.0000
  O   O33       1.0  0.27564  0.48734  0.97610  1.0000
  O   O34       1.0  0.77567  0.51266  0.52389  1.0000
  O   O35       1.0  0.72431  0.51265  0.02388  1.0000
  O   O36       1.0  0.22433  0.48734  0.47612  1.0000
  O   O37       1.0  0.15698  0.54816  0.11113  1.0000
  O   O38       1.0  0.65698  0.45184  0.38887  1.0000
  O   O39       1.0  0.84300  0.45183  0.88886  1.0000
  O   O40       1.0  0.34302  0.54817  0.61113  1.0000
