data_image0
_chemical_formula_structural       Cu4H40C36S4I4N8
_chemical_formula_sum              "Cu4 H40 C36 S4 I4 N8"
_cell_length_a       10.0954
_cell_length_b       10.0953
_cell_length_c       10.7905
_cell_angle_alpha    85.3133
_cell_angle_beta     85.3133
_cell_angle_gamma    78.2459

_space_group_name_H-M_alt    "P 1"
_space_group_IT_number       1

loop_
  _space_group_symop_operation_xyz
  'x, y, z'

loop_
  _atom_site_type_symbol
  _atom_site_label
  _atom_site_symmetry_multiplicity
  _atom_site_fract_x
  _atom_site_fract_y
  _atom_site_fract_z
  _atom_site_occupancy
  Cu  Cu1       1.0  0.53145  0.48527  0.62232  1.0000
  Cu  Cu2       1.0  0.51473  0.46855  0.87768  1.0000
  Cu  Cu3       1.0  0.46855  0.51473  0.37768  1.0000
  Cu  Cu4       1.0  0.48527  0.53145  0.12232  1.0000
  H   H1        1.0  0.81552  0.34302  0.67969  1.0000
  H   H2        1.0  0.65698  0.18448  0.82031  1.0000
  H   H3        1.0  0.18448  0.65698  0.32031  1.0000
  H   H4        1.0  0.34302  0.81551  0.17969  1.0000
  H   H5        1.0  0.64328  0.90144  0.06597  1.0000
  H   H6        1.0  0.09856  0.35672  0.43404  1.0000
  H   H7        1.0  0.35672  0.09856  0.93404  1.0000
  H   H8        1.0  0.90144  0.64328  0.56597  1.0000
  H   H9        1.0  0.68350  0.67461  0.98081  1.0000
  H   H10       1.0  0.32540  0.31650  0.51919  1.0000
  H   H11       1.0  0.31650  0.32539  0.01919  1.0000
  H   H12       1.0  0.67460  0.68350  0.48081  1.0000
  H   H13       1.0  0.80628  0.05475  0.01069  1.0000
  H   H14       1.0  0.94525  0.19372  0.48931  1.0000
  H   H15       1.0  0.19372  0.94525  0.98931  1.0000
  H   H16       1.0  0.05475  0.80628  0.51069  1.0000
  H   H17       1.0  0.08104  0.47939  0.89957  1.0000
  H   H18       1.0  0.52062  0.91896  0.60043  1.0000
  H   H19       1.0  0.91896  0.52062  0.10043  1.0000
  H   H20       1.0  0.47939  0.08103  0.39957  1.0000
  H   H21       1.0  0.09088  0.52420  0.73635  1.0000
  H   H22       1.0  0.47580  0.90913  0.76364  1.0000
  H   H23       1.0  0.90912  0.47580  0.26364  1.0000
  H   H24       1.0  0.52420  0.09087  0.23636  1.0000
  H   H25       1.0  0.05156  0.75349  0.78227  1.0000
  H   H26       1.0  0.24651  0.94844  0.71773  1.0000
  H   H27       1.0  0.94844  0.24651  0.21773  1.0000
  H   H28       1.0  0.75349  0.05156  0.28227  1.0000
  H   H29       1.0  0.01046  0.98000  0.86900  1.0000
  H   H30       1.0  0.02000  0.98954  0.63100  1.0000
  H   H31       1.0  0.98954  0.02000  0.13100  1.0000
  H   H32       1.0  0.98000  0.01046  0.36900  1.0000
  H   H33       1.0  0.06970  0.29355  0.72234  1.0000
  H   H34       1.0  0.70645  0.93030  0.77766  1.0000
  H   H35       1.0  0.93030  0.70645  0.27766  1.0000
  H   H36       1.0  0.29355  0.06970  0.22234  1.0000
  H   H37       1.0  0.98008  0.28621  0.87244  1.0000
  H   H38       1.0  0.71379  0.01992  0.62756  1.0000
  H   H39       1.0  0.01992  0.71379  0.12756  1.0000
  H   H40       1.0  0.28621  0.98008  0.37244  1.0000
  C   C1        1.0  0.73304  0.86913  0.00444  1.0000
  C   C2        1.0  0.13087  0.26696  0.49556  1.0000
  C   C3        1.0  0.26696  0.13087  0.99556  1.0000
  C   C4        1.0  0.86913  0.73304  0.50444  1.0000
  C   C5        1.0  0.75425  0.74227  0.95585  1.0000
  C   C6        1.0  0.25773  0.24575  0.54415  1.0000
  C   C7        1.0  0.24575  0.25773  0.04415  1.0000
  C   C8        1.0  0.74227  0.75425  0.45585  1.0000
  C   C9        1.0  0.82506  0.95474  0.97382  1.0000
  C   C10       1.0  0.04526  0.17494  0.52618  1.0000
  C   C11       1.0  0.17494  0.04526  0.02618  1.0000
  C   C12       1.0  0.95474  0.82506  0.47382  1.0000
  C   C13       1.0  0.02850  0.48477  0.81394  1.0000
  C   C14       1.0  0.51523  0.97150  0.68606  1.0000
  C   C15       1.0  0.97150  0.51523  0.18606  1.0000
  C   C16       1.0  0.48477  0.02850  0.31394  1.0000
  C   C17       1.0  0.86866  0.70133  0.87504  1.0000
  C   C18       1.0  0.29867  0.13134  0.62496  1.0000
  C   C19       1.0  0.13134  0.29867  0.12496  1.0000
  C   C20       1.0  0.70133  0.86866  0.37505  1.0000
  C   C21       1.0  0.96198  0.78627  0.84431  1.0000
  C   C22       1.0  0.21373  0.03802  0.65569  1.0000
  C   C23       1.0  0.03802  0.21373  0.15569  1.0000
  C   C24       1.0  0.78627  0.96198  0.34431  1.0000
  C   C25       1.0  0.93909  0.91302  0.89374  1.0000
  C   C26       1.0  0.08698  0.06091  0.60626  1.0000
  C   C27       1.0  0.06091  0.08698  0.10626  1.0000
  C   C28       1.0  0.91302  0.93909  0.39374  1.0000
  C   C29       1.0  0.99384  0.34996  0.78637  1.0000
  C   C30       1.0  0.65004  0.00616  0.71363  1.0000
  C   C31       1.0  0.00616  0.65004  0.21363  1.0000
  C   C32       1.0  0.34996  0.99384  0.28637  1.0000
  C   C33       1.0  0.80252  0.52047  0.76617  1.0000
  C   C34       1.0  0.47953  0.19748  0.73383  1.0000
  C   C35       1.0  0.19748  0.47953  0.23383  1.0000
  C   C36       1.0  0.52047  0.80252  0.26616  1.0000
  S   S1        1.0  0.64158  0.60250  0.74001  1.0000
  S   S2        1.0  0.39750  0.35842  0.75999  1.0000
  S   S3        1.0  0.35842  0.39750  0.25999  1.0000
  S   S4        1.0  0.60250  0.64158  0.24001  1.0000
  I   I1        1.0  0.32880  0.67634  0.53936  1.0000
  I   I2        1.0  0.32365  0.67119  0.96064  1.0000
  I   I3        1.0  0.67119  0.32365  0.46064  1.0000
  I   I4        1.0  0.67634  0.32880  0.03936  1.0000
  N   N1        1.0  0.86362  0.39737  0.73036  1.0000
  N   N2        1.0  0.60263  0.13638  0.76964  1.0000
  N   N3        1.0  0.13638  0.60263  0.26963  1.0000
  N   N4        1.0  0.39737  0.86362  0.23036  1.0000
  N   N5        1.0  0.89223  0.57225  0.82650  1.0000
  N   N6        1.0  0.42775  0.10777  0.67350  1.0000
  N   N7        1.0  0.10777  0.42775  0.17350  1.0000
  N   N8        1.0  0.57225  0.89223  0.32650  1.0000
