data_image0
_chemical_formula_structural       Cu5H36C20S2I6N8
_chemical_formula_sum              "Cu5 H36 C20 S2 I6 N8"
_cell_length_a       8.06482
_cell_length_b       9.87431
_cell_length_c       12.9567
_cell_angle_alpha    98.7677
_cell_angle_beta     104.105
_cell_angle_gamma    112.1

_space_group_name_H-M_alt    "P 1"
_space_group_IT_number       1

loop_
  _space_group_symop_operation_xyz
  'x, y, z'

loop_
  _atom_site_type_symbol
  _atom_site_label
  _atom_site_symmetry_multiplicity
  _atom_site_fract_x
  _atom_site_fract_y
  _atom_site_fract_z
  _atom_site_occupancy
  Cu  Cu1       1.0  1.00000  0.50000  0.50000  1.0000
  Cu  Cu2       1.0  0.58898  0.55063  0.39762  1.0000
  Cu  Cu3       1.0  0.41105  0.44937  0.60238  1.0000
  Cu  Cu4       1.0  0.54187  0.59052  0.09354  1.0000
  Cu  Cu5       1.0  0.45814  0.40948  0.90645  1.0000
  H   H1        1.0  0.32186  0.85009  0.58021  1.0000
  H   H2        1.0  0.67812  0.14991  0.41979  1.0000
  H   H3        1.0  0.10680  0.86091  0.57722  1.0000
  H   H4        1.0  0.89318  0.13911  0.42279  1.0000
  H   H5        1.0  0.14621  0.01944  0.45352  1.0000
  H   H6        1.0  0.85379  0.98058  0.54648  1.0000
  H   H7        1.0  0.37008  0.02026  0.46548  1.0000
  H   H8        1.0  0.62991  0.97973  0.53452  1.0000
  H   H9        1.0  0.02684  0.97490  0.26732  1.0000
  H   H10       1.0  0.97315  0.02511  0.73267  1.0000
  H   H11       1.0  0.95870  0.79676  0.17805  1.0000
  H   H12       1.0  0.04130  0.20324  0.82194  1.0000
  H   H13       1.0  0.18959  0.99759  0.12409  1.0000
  H   H14       1.0  0.81041  0.00241  0.87591  1.0000
  H   H15       1.0  0.30567  0.88829  0.17867  1.0000
  H   H16       1.0  0.69432  0.11170  0.82132  1.0000
  H   H17       1.0  0.35332  0.06973  0.25993  1.0000
  H   H18       1.0  0.64668  0.93026  0.74006  1.0000
  H   H19       1.0  0.18134  0.55665  0.20185  1.0000
  H   H20       1.0  0.81866  0.44336  0.79817  1.0000
  H   H21       1.0  0.06177  0.65031  0.12723  1.0000
  H   H22       1.0  0.93823  0.34969  0.87278  1.0000
  H   H23       1.0  0.79691  0.41647  0.01692  1.0000
  H   H24       1.0  0.20310  0.58352  0.98308  1.0000
  H   H25       1.0  0.96270  0.33626  0.05561  1.0000
  H   H26       1.0  0.03732  0.66374  0.94440  1.0000
  H   H27       1.0  0.58277  0.14444  0.03470  1.0000
  H   H28       1.0  0.41724  0.85555  0.96529  1.0000
  H   H29       1.0  0.56846  0.15335  0.16938  1.0000
  H   H30       1.0  0.43154  0.84664  0.83062  1.0000
  H   H31       1.0  0.68037  0.95614  0.11406  1.0000
  H   H32       1.0  0.31966  0.04385  0.88594  1.0000
  H   H33       1.0  0.85991  0.10764  0.22728  1.0000
  H   H34       1.0  0.14011  0.89236  0.77273  1.0000
  H   H35       1.0  0.87564  0.09446  0.09190  1.0000
  H   H36       1.0  0.12437  0.90556  0.90810  1.0000
  C   C1        1.0  0.18815  0.83967  0.52503  1.0000
  C   C2        1.0  0.81183  0.16034  0.47497  1.0000
  C   C3        1.0  0.21990  0.94592  0.44878  1.0000
  C   C4        1.0  0.78009  0.05408  0.55122  1.0000
  C   C5        1.0  0.08000  0.89191  0.24202  1.0000
  C   C6        1.0  0.92000  0.10809  0.75798  1.0000
  C   C7        1.0  0.24194  0.96534  0.19857  1.0000
  C   C8        1.0  0.75805  0.03465  0.80143  1.0000
  C   C9        1.0  0.05557  0.69629  0.34853  1.0000
  C   C10       1.0  0.94440  0.30371  0.65147  1.0000
  C   C11       1.0  0.04328  0.55741  0.16610  1.0000
  C   C12       1.0  0.95673  0.44260  0.83391  1.0000
  C   C13       1.0  0.89599  0.40458  0.08697  1.0000
  C   C14       1.0  0.10403  0.59542  0.91304  1.0000
  C   C15       1.0  0.82541  0.43347  0.24990  1.0000
  C   C16       1.0  0.17459  0.56652  0.75010  1.0000
  C   C17       1.0  0.66690  0.17213  0.12211  1.0000
  C   C18       1.0  0.33311  0.82787  0.87789  1.0000
  C   C19       1.0  0.77742  0.07738  0.13956  1.0000
  C   C20       1.0  0.22260  0.92262  0.86044  1.0000
  S   S1        1.0  0.71189  0.38991  0.34275  1.0000
  S   S2        1.0  0.28811  0.61007  0.65725  1.0000
  I   I1        1.0  0.24884  0.35116  0.38421  1.0000
  I   I2        1.0  0.75117  0.64885  0.61579  1.0000
  I   I3        1.0  0.60123  0.74838  0.28430  1.0000
  I   I4        1.0  0.39876  0.25161  0.71569  1.0000
  I   I5        1.0  0.30088  0.31043  0.04612  1.0000
  I   I6        1.0  0.69913  0.68957  0.95387  1.0000
  N   N1        1.0  0.08156  0.68418  0.44995  1.0000
  N   N2        1.0  0.91842  0.31582  0.55005  1.0000
  N   N3        1.0  0.13576  0.83917  0.33806  1.0000
  N   N4        1.0  0.86422  0.16082  0.66194  1.0000
  N   N5        1.0  0.95966  0.57360  0.25479  1.0000
  N   N6        1.0  0.04032  0.42639  0.74521  1.0000
  N   N7        1.0  0.79187  0.33354  0.15645  1.0000
  N   N8        1.0  0.20814  0.66645  0.84355  1.0000
