data_image0
_chemical_formula_structural       Zn3H32C32N2O12
_chemical_formula_sum              "Zn3 H32 C32 N2 O12"
_cell_length_a       8.61931
_cell_length_b       10.8725
_cell_length_c       10.8021
_cell_angle_alpha    101.774
_cell_angle_beta     108.824
_cell_angle_gamma    111.509

_space_group_name_H-M_alt    "P 1"
_space_group_IT_number       1

loop_
  _space_group_symop_operation_xyz
  'x, y, z'

loop_
  _atom_site_type_symbol
  _atom_site_label
  _atom_site_symmetry_multiplicity
  _atom_site_fract_x
  _atom_site_fract_y
  _atom_site_fract_z
  _atom_site_occupancy
  Zn  Zn1       1.0  1.00000  1.00000  0.00000  1.0000
  Zn  Zn2       1.0  0.32969  0.89553  0.02648  1.0000
  Zn  Zn3       1.0  0.67031  0.10447  0.97352  1.0000
  H   H1        1.0  0.67627  0.67739  0.81487  1.0000
  H   H2        1.0  0.32373  0.32261  0.18513  1.0000
  H   H3        1.0  0.51425  0.40928  0.71093  1.0000
  H   H4        1.0  0.48575  0.59072  0.28907  1.0000
  H   H5        1.0  0.70671  0.28088  0.72580  1.0000
  H   H6        1.0  0.29328  0.71912  0.27420  1.0000
  H   H7        1.0  0.99713  0.29539  0.84887  1.0000
  H   H8        1.0  0.00286  0.70461  0.15112  1.0000
  H   H9        1.0  0.20140  0.45577  0.90185  1.0000
  H   H10       1.0  0.79860  0.54423  0.09815  1.0000
  H   H11       1.0  0.22384  0.54612  0.68981  1.0000
  H   H12       1.0  0.77616  0.45388  0.31019  1.0000
  H   H13       1.0  0.22145  0.45895  0.45680  1.0000
  H   H14       1.0  0.77856  0.54105  0.54320  1.0000
  H   H15       1.0  0.05297  0.19897  0.31467  1.0000
  H   H16       1.0  0.94703  0.80104  0.68533  1.0000
  H   H17       1.0  0.88178  0.02874  0.40339  1.0000
  H   H18       1.0  0.11822  0.97126  0.59660  1.0000
  H   H19       1.0  0.88663  0.11601  0.63697  1.0000
  H   H20       1.0  0.11337  0.88399  0.36303  1.0000
  H   H21       1.0  0.60354  0.20089  0.46398  1.0000
  H   H22       1.0  0.39645  0.79911  0.53602  1.0000
  H   H23       1.0  0.42933  0.07648  0.49054  1.0000
  H   H24       1.0  0.57067  0.92351  0.50946  1.0000
  H   H25       1.0  0.40767  0.22650  0.45952  1.0000
  H   H26       1.0  0.59233  0.77350  0.54048  1.0000
  H   H27       1.0  0.43427  0.16501  0.76403  1.0000
  H   H28       1.0  0.56573  0.83499  0.23597  1.0000
  H   H29       1.0  0.50535  0.31374  0.91103  1.0000
  H   H30       1.0  0.49465  0.68627  0.08897  1.0000
  H   H31       1.0  0.28169  0.24159  0.76664  1.0000
  H   H32       1.0  0.71830  0.75841  0.23336  1.0000
  C   C1        1.0  0.05159  0.61405  0.87944  1.0000
  C   C2        1.0  0.94841  0.38595  0.12057  1.0000
  C   C3        1.0  0.94672  0.69201  0.88037  1.0000
  C   C4        1.0  0.05328  0.30799  0.11963  1.0000
  C   C5        1.0  0.75457  0.61810  0.81863  1.0000
  C   C6        1.0  0.24543  0.38190  0.18137  1.0000
  C   C7        1.0  0.66475  0.46845  0.75995  1.0000
  C   C8        1.0  0.33525  0.53155  0.24005  1.0000
  C   C9        1.0  0.76610  0.39599  0.76482  1.0000
  C   C10       1.0  0.23390  0.60401  0.23518  1.0000
  C   C11       1.0  0.05935  0.38631  0.82039  1.0000
  C   C12       1.0  0.94064  0.61369  0.17961  1.0000
  C   C13       1.0  0.05432  0.33621  0.67763  1.0000
  C   C14       1.0  0.94569  0.66379  0.32237  1.0000
  C   C15       1.0  0.14852  0.43273  0.62640  1.0000
  C   C16       1.0  0.85148  0.56727  0.37361  1.0000
  C   C17       1.0  0.14674  0.38363  0.49573  1.0000
  C   C18       1.0  0.85327  0.61637  0.50427  1.0000
  C   C19       1.0  0.05128  0.23812  0.41517  1.0000
  C   C20       1.0  0.94872  0.76188  0.58483  1.0000
  C   C21       1.0  0.95543  0.14219  0.46518  1.0000
  C   C22       1.0  0.04457  0.85781  0.53482  1.0000
  C   C23       1.0  0.95672  0.19099  0.59566  1.0000
  C   C24       1.0  0.04328  0.80902  0.40434  1.0000
  C   C25       1.0  0.35355  0.06363  0.27575  1.0000
  C   C26       1.0  0.64645  0.93637  0.72425  1.0000
  C   C27       1.0  0.45359  0.14779  0.43220  1.0000
  C   C28       1.0  0.54641  0.85221  0.56780  1.0000
  C   C29       1.0  0.30461  0.12089  0.89987  1.0000
  C   C30       1.0  0.69539  0.87911  0.10013  1.0000
  C   C31       1.0  0.38439  0.21598  0.82953  1.0000
  C   C32       1.0  0.61561  0.78402  0.17047  1.0000
  N   N1        1.0  0.95617  0.46871  0.82404  1.0000
  N   N2        1.0  0.04383  0.53129  0.17596  1.0000
  O   O1        1.0  0.22913  0.67967  0.92976  1.0000
  O   O2        1.0  0.77087  0.32033  0.07024  1.0000
  O   O3        1.0  0.05000  0.83154  0.93963  1.0000
  O   O4        1.0  0.95000  0.16846  0.06037  1.0000
  O   O5        1.0  0.24032  0.09481  0.19894  1.0000
  O   O6        1.0  0.75969  0.90519  0.80106  1.0000
  O   O7        1.0  0.39525  0.96598  0.23151  1.0000
  O   O8        1.0  0.60474  0.03402  0.76849  1.0000
  O   O9        1.0  0.15468  0.10504  0.90328  1.0000
  O   O10       1.0  0.84532  0.89496  0.09672  1.0000
  O   O11       1.0  0.40043  0.06080  0.95509  1.0000
  O   O12       1.0  0.59957  0.93920  0.04491  1.0000
