data_image0
_chemical_formula_structural       Cu4H56C32N8O12
_chemical_formula_sum              "Cu4 H56 C32 N8 O12"
_cell_length_a       8.1672
_cell_length_b       8.17436
_cell_length_c       15.6312
_cell_angle_alpha    90.0209
_cell_angle_beta     89.9265
_cell_angle_gamma    90.0534

_space_group_name_H-M_alt    "P 1"
_space_group_IT_number       1

loop_
  _space_group_symop_operation_xyz
  'x, y, z'

loop_
  _atom_site_type_symbol
  _atom_site_label
  _atom_site_symmetry_multiplicity
  _atom_site_fract_x
  _atom_site_fract_y
  _atom_site_fract_z
  _atom_site_occupancy
  Cu  Cu1       1.0  0.58228  0.81205  0.74387  1.0000
  Cu  Cu2       1.0  0.41743  0.18860  0.24408  1.0000
  Cu  Cu3       1.0  0.18864  0.58233  0.49352  1.0000
  Cu  Cu4       1.0  0.81179  0.41774  0.99366  1.0000
  H   H1        1.0  0.71449  0.05437  0.92009  1.0000
  H   H2        1.0  0.28447  0.94584  0.41998  1.0000
  H   H3        1.0  0.94951  0.71520  0.66894  1.0000
  H   H4        1.0  0.05278  0.28504  0.17012  1.0000
  H   H5        1.0  0.52787  0.98003  0.96072  1.0000
  H   H6        1.0  0.47035  0.02094  0.46082  1.0000
  H   H7        1.0  0.01876  0.52779  0.71062  1.0000
  H   H8        1.0  0.97877  0.47160  0.21070  1.0000
  H   H9        1.0  0.37420  0.05575  0.83770  1.0000
  H   H10       1.0  0.62540  0.94540  0.33785  1.0000
  H   H11       1.0  0.94434  0.37457  0.58673  1.0000
  H   H12       1.0  0.05554  0.62513  0.08763  1.0000
  H   H13       1.0  0.50866  0.22528  0.85394  1.0000
  H   H14       1.0  0.49163  0.77544  0.35441  1.0000
  H   H15       1.0  0.77491  0.50831  0.60440  1.0000
  H   H16       1.0  0.22500  0.49086  0.10402  1.0000
  H   H17       1.0  0.33078  0.04143  0.69264  1.0000
  H   H18       1.0  0.67007  0.95873  0.19341  1.0000
  H   H19       1.0  0.95886  0.33136  0.44334  1.0000
  H   H20       1.0  0.04156  0.66860  0.94277  1.0000
  H   H21       1.0  0.48765  0.09507  0.62031  1.0000
  H   H22       1.0  0.51427  0.90565  0.12054  1.0000
  H   H23       1.0  0.90554  0.48644  0.37016  1.0000
  H   H24       1.0  0.09558  0.51229  0.87035  1.0000
  H   H25       1.0  0.30501  0.32586  0.63472  1.0000
  H   H26       1.0  0.69638  0.67432  0.13494  1.0000
  H   H27       1.0  0.67469  0.30367  0.38447  1.0000
  H   H28       1.0  0.32672  0.69512  0.88498  1.0000
  H   H29       1.0  0.49021  0.38504  0.68487  1.0000
  H   H30       1.0  0.51045  0.61537  0.18465  1.0000
  H   H31       1.0  0.61483  0.48898  0.43430  1.0000
  H   H32       1.0  0.38550  0.50994  0.93520  1.0000
  H   H33       1.0  0.31982  0.32880  0.74845  1.0000
  H   H34       1.0  0.68013  0.67109  0.24866  1.0000
  H   H35       1.0  0.67079  0.31942  0.49824  1.0000
  H   H36       1.0  0.32879  0.67996  0.99871  1.0000
  H   H37       1.0  0.71194  0.27645  0.73080  1.0000
  H   H38       1.0  0.28801  0.72336  0.23129  1.0000
  H   H39       1.0  0.72173  0.71211  0.48050  1.0000
  H   H40       1.0  0.27643  0.28747  0.98106  1.0000
  H   H41       1.0  0.79766  0.11767  0.79143  1.0000
  H   H42       1.0  0.20206  0.88320  0.29132  1.0000
  H   H43       1.0  0.88069  0.79820  0.54103  1.0000
  H   H44       1.0  0.11676  0.20206  0.04153  1.0000
  H   H45       1.0  0.93939  0.13322  0.65397  1.0000
  H   H46       1.0  0.06207  0.86669  0.15358  1.0000
  H   H47       1.0  0.86663  0.93843  0.40306  1.0000
  H   H48       1.0  0.13298  0.06067  0.90411  1.0000
  H   H49       1.0  0.75493  0.10499  0.59566  1.0000
  H   H50       1.0  0.24745  0.89372  0.09566  1.0000
  H   H51       1.0  0.89408  0.75311  0.34536  1.0000
  H   H52       1.0  0.10546  0.24505  0.84575  1.0000
  H   H53       1.0  0.83269  0.94460  0.66030  1.0000
  H   H54       1.0  0.16947  0.05499  0.15980  1.0000
  H   H55       1.0  0.05473  0.83089  0.41000  1.0000
  H   H56       1.0  0.94438  0.16735  0.91031  1.0000
  C   C1        1.0  0.71740  0.56337  0.84069  1.0000
  C   C2        1.0  0.28226  0.43638  0.34188  1.0000
  C   C3        1.0  0.43762  0.71938  0.59015  1.0000
  C   C4        1.0  0.56188  0.28327  0.09072  1.0000
  C   C5        1.0  0.69678  0.70920  0.90201  1.0000
  C   C6        1.0  0.30325  0.29086  0.40275  1.0000
  C   C7        1.0  0.29215  0.69603  0.65145  1.0000
  C   C8        1.0  0.70795  0.30345  0.15187  1.0000
  C   C9        1.0  0.59979  0.99291  0.90139  1.0000
  C   C10       1.0  0.39922  0.00737  0.40140  1.0000
  C   C11       1.0  0.00840  0.59880  0.65096  1.0000
  C   C12       1.0  0.99191  0.39987  0.15137  1.0000
  C   C13       1.0  0.50278  0.09493  0.83684  1.0000
  C   C14       1.0  0.49699  0.90563  0.33700  1.0000
  C   C15       1.0  0.90509  0.50298  0.58656  1.0000
  C   C16       1.0  0.09462  0.49668  0.08688  1.0000
  C   C17       1.0  0.43755  0.12177  0.68395  1.0000
  C   C18       1.0  0.56338  0.87850  0.18428  1.0000
  C   C19       1.0  0.87822  0.43748  0.43394  1.0000
  C   C20       1.0  0.12208  0.56215  0.93403  1.0000
  C   C21       1.0  0.38598  0.30059  0.68902  1.0000
  C   C22       1.0  0.61481  0.69956  0.18912  1.0000
  C   C23       1.0  0.69933  0.38505  0.43874  1.0000
  C   C24       1.0  0.30103  0.61398  0.93923  1.0000
  C   C25       1.0  0.72540  0.14267  0.73390  1.0000
  C   C26       1.0  0.27504  0.85727  0.23403  1.0000
  C   C27       1.0  0.85573  0.72545  0.48362  1.0000
  C   C28       1.0  0.14246  0.27429  0.98402  1.0000
  C   C29       1.0  0.81687  0.07773  0.65628  1.0000
  C   C30       1.0  0.18475  0.92175  0.15606  1.0000
  C   C31       1.0  0.92134  0.81580  0.40582  1.0000
  C   C32       1.0  0.07770  0.18309  0.90635  1.0000
  N   N1        1.0  0.63259  0.83606  0.86210  1.0000
  N   N2        1.0  0.36584  0.16421  0.36232  1.0000
  N   N3        1.0  0.16648  0.62805  0.61195  1.0000
  N   N4        1.0  0.83508  0.36762  0.11192  1.0000
  N   N5        1.0  0.56145  0.06708  0.74762  1.0000
  N   N6        1.0  0.43884  0.93269  0.24783  1.0000
  N   N7        1.0  0.93168  0.56231  0.49741  1.0000
  N   N8        1.0  0.06714  0.43809  0.99766  1.0000
  O   O1        1.0  0.67398  0.58013  0.76310  1.0000
  O   O2        1.0  0.32533  0.42125  0.26433  1.0000
  O   O3        1.0  0.41982  0.68103  0.51187  1.0000
  O   O4        1.0  0.57933  0.32506  0.01290  1.0000
  O   O5        1.0  0.77934  0.43224  0.86987  1.0000
  O   O6        1.0  0.21984  0.56742  0.37124  1.0000
  O   O7        1.0  0.56933  0.77952  0.61992  1.0000
  O   O8        1.0  0.42984  0.22340  0.12038  1.0000
  O   O9        1.0  0.74044  0.69636  0.97930  1.0000
  O   O10       1.0  0.26125  0.30412  0.48041  1.0000
  O   O11       1.0  0.30342  0.74192  0.72851  1.0000
  O   O12       1.0  0.69526  0.25961  0.22918  1.0000
