data_image0
_chemical_formula_structural       Cd2H40C56N4O16
_chemical_formula_sum              "Cd2 H40 C56 N4 O16"
_cell_length_a       8.9784
_cell_length_b       11.8716
_cell_length_c       11.8713
_cell_angle_alpha    88.3189
_cell_angle_beta     76.7998
_cell_angle_gamma    76.7995

_space_group_name_H-M_alt    "P 1"
_space_group_IT_number       1

loop_
  _space_group_symop_operation_xyz
  'x, y, z'

loop_
  _atom_site_type_symbol
  _atom_site_label
  _atom_site_symmetry_multiplicity
  _atom_site_fract_x
  _atom_site_fract_y
  _atom_site_fract_z
  _atom_site_occupancy
  Cd  Cd1       1.0  0.24325  0.64989  0.39097  1.0000
  Cd  Cd2       1.0  0.74326  0.39096  0.64988  1.0000
  H   H1        1.0  0.91558  0.04892  0.46673  1.0000
  H   H2        1.0  0.41557  0.46673  0.04893  1.0000
  H   H3        1.0  0.89567  0.88926  0.15188  1.0000
  H   H4        1.0  0.39566  0.15189  0.88926  1.0000
  H   H5        1.0  0.72492  0.07431  0.10352  1.0000
  H   H6        1.0  0.22491  0.10354  0.07431  1.0000
  H   H7        1.0  0.74573  0.23076  0.42094  1.0000
  H   H8        1.0  0.24570  0.42094  0.23077  1.0000
  H   H9        1.0  0.55324  0.32792  0.30273  1.0000
  H   H10       1.0  0.05323  0.30273  0.32793  1.0000
  H   H11       1.0  0.55846  0.26362  0.16764  1.0000
  H   H12       1.0  0.05844  0.16766  0.26363  1.0000
  H   H13       1.0  0.72964  0.29194  0.00252  1.0000
  H   H14       1.0  0.22961  0.00254  0.29195  1.0000
  H   H15       1.0  0.75345  0.41822  0.32138  1.0000
  H   H16       1.0  0.25344  0.32138  0.41823  1.0000
  H   H17       1.0  0.93609  0.53595  0.22851  1.0000
  H   H18       1.0  0.43609  0.22851  0.53595  1.0000
  H   H19       1.0  0.90873  0.40372  0.89555  1.0000
  H   H20       1.0  0.40872  0.89556  0.40371  1.0000
  H   H21       1.0  0.08426  0.62966  0.14674  1.0000
  H   H22       1.0  0.58427  0.14674  0.62965  1.0000
  H   H23       1.0  0.04250  0.50834  0.81334  1.0000
  H   H24       1.0  0.54249  0.81335  0.50835  1.0000
  H   H25       1.0  0.22525  0.62565  0.72066  1.0000
  H   H26       1.0  0.72523  0.72067  0.62566  1.0000
  H   H27       1.0  0.26171  0.74285  0.03981  1.0000
  H   H28       1.0  0.76172  0.03981  0.74284  1.0000
  H   H29       1.0  0.43153  0.71201  0.73956  1.0000
  H   H30       1.0  0.93152  0.73955  0.71201  1.0000
  H   H31       1.0  0.42584  0.77643  0.87468  1.0000
  H   H32       1.0  0.92584  0.87467  0.77644  1.0000
  H   H33       1.0  0.24905  0.96337  0.94230  1.0000
  H   H34       1.0  0.74902  0.94231  0.96337  1.0000
  H   H35       1.0  0.24674  0.81033  0.61815  1.0000
  H   H36       1.0  0.74673  0.61815  0.81033  1.0000
  H   H37       1.0  0.07684  0.99178  0.57143  1.0000
  H   H38       1.0  0.57684  0.57143  0.99179  1.0000
  H   H39       1.0  0.07965  0.14828  0.89255  1.0000
  H   H40       1.0  0.57962  0.89255  0.14828  1.0000
  C   C1        1.0  0.02500  0.84697  0.33812  1.0000
  C   C2        1.0  0.52500  0.33811  0.84698  1.0000
  C   C3        1.0  0.91766  0.95724  0.31155  1.0000
  C   C4        1.0  0.41765  0.31156  0.95725  1.0000
  C   C5        1.0  0.87403  0.05350  0.38709  1.0000
  C   C6        1.0  0.37401  0.38709  0.05351  1.0000
  C   C7        1.0  0.86285  0.96521  0.20929  1.0000
  C   C8        1.0  0.36284  0.20930  0.96521  1.0000
  C   C9        1.0  0.76816  0.06828  0.18288  1.0000
  C   C10       1.0  0.26814  0.18289  0.06829  1.0000
  C   C11       1.0  0.77944  0.15670  0.36086  1.0000
  C   C12       1.0  0.27942  0.36087  0.15671  1.0000
  C   C13       1.0  0.72689  0.16503  0.25797  1.0000
  C   C14       1.0  0.22687  0.25798  0.16504  1.0000
  C   C15       1.0  0.63045  0.27774  0.22653  1.0000
  C   C16       1.0  0.13043  0.22653  0.27775  1.0000
  C   C17       1.0  0.77749  0.34815  0.04806  1.0000
  C   C18       1.0  0.27748  0.04807  0.34816  1.0000
  C   C19       1.0  0.78874  0.42074  0.22746  1.0000
  C   C20       1.0  0.28873  0.22746  0.42074  1.0000
  C   C21       1.0  0.89144  0.48666  0.17294  1.0000
  C   C22       1.0  0.39143  0.17294  0.48666  1.0000
  C   C23       1.0  0.87891  0.41303  0.98949  1.0000
  C   C24       1.0  0.37890  0.98949  0.41302  1.0000
  C   C25       1.0  0.93843  0.48448  0.05146  1.0000
  C   C26       1.0  0.43843  0.05146  0.48448  1.0000
  C   C27       1.0  0.04717  0.55449  0.99065  1.0000
  C   C28       1.0  0.54717  0.99065  0.55449  1.0000
  C   C29       1.0  0.11051  0.62310  0.05271  1.0000
  C   C30       1.0  0.61052  0.05271  0.62310  1.0000
  C   C31       1.0  0.09031  0.55512  0.86906  1.0000
  C   C32       1.0  0.59030  0.86907  0.55513  1.0000
  C   C33       1.0  0.19293  0.62108  0.81460  1.0000
  C   C34       1.0  0.69292  0.81461  0.62108  1.0000
  C   C35       1.0  0.21128  0.68850  0.99420  1.0000
  C   C36       1.0  0.71129  0.99419  0.68850  1.0000
  C   C37       1.0  0.35403  0.76200  0.81578  1.0000
  C   C38       1.0  0.85402  0.81578  0.76201  1.0000
  C   C39       1.0  0.25702  0.87446  0.78420  1.0000
  C   C40       1.0  0.75700  0.78420  0.87446  1.0000
  C   C41       1.0  0.21037  0.97012  0.86103  1.0000
  C   C42       1.0  0.71035  0.86103  0.97012  1.0000
  C   C43       1.0  0.20933  0.88367  0.67932  1.0000
  C   C44       1.0  0.70932  0.67932  0.88368  1.0000
  C   C45       1.0  0.11491  0.98671  0.65251  1.0000
  C   C46       1.0  0.61490  0.65252  0.98672  1.0000
  C   C47       1.0  0.11614  0.07307  0.83394  1.0000
  C   C48       1.0  0.61611  0.83395  0.07308  1.0000
  C   C49       1.0  0.06684  0.08211  0.72937  1.0000
  C   C50       1.0  0.56682  0.72937  0.08212  1.0000
  C   C51       1.0  0.96065  0.19263  0.70191  1.0000
  C   C52       1.0  0.46063  0.70192  0.19264  1.0000
  C   C53       1.0  0.98875  0.49733  0.46033  1.0000
  C   C54       1.0  0.48876  0.46032  0.49734  1.0000
  C   C55       1.0  0.99772  0.54368  0.58046  1.0000
  C   C56       1.0  0.49775  0.58044  0.54370  1.0000
  N   N1        1.0  0.73352  0.35277  0.16502  1.0000
  N   N2        1.0  0.23351  0.16502  0.35278  1.0000
  N   N3        1.0  0.25148  0.68661  0.87720  1.0000
  N   N4        1.0  0.75148  0.87720  0.68661  1.0000
  O   O1        1.0  0.06407  0.84122  0.43534  1.0000
  O   O2        1.0  0.56407  0.43533  0.84121  1.0000
  O   O3        1.0  0.07325  0.76697  0.26106  1.0000
  O   O4        1.0  0.57328  0.26104  0.76698  1.0000
  O   O5        1.0  0.92362  0.19883  0.60397  1.0000
  O   O6        1.0  0.42361  0.60398  0.19884  1.0000
  O   O7        1.0  0.91116  0.27250  0.77915  1.0000
  O   O8        1.0  0.41113  0.77916  0.27251  1.0000
  O   O9        1.0  0.08620  0.61277  0.58081  1.0000
  O   O10       1.0  0.58620  0.58080  0.61276  1.0000
  O   O11       1.0  0.07293  0.53036  0.36998  1.0000
  O   O12       1.0  0.57293  0.36999  0.53035  1.0000
  O   O13       1.0  0.89962  0.42877  0.46006  1.0000
  O   O14       1.0  0.39960  0.46005  0.42877  1.0000
  O   O15       1.0  0.91443  0.50989  0.67075  1.0000
  O   O16       1.0  0.41441  0.67075  0.50989  1.0000
