data_image0
_chemical_formula_structural       Co4H20C20N8O8
_chemical_formula_sum              "Co4 H20 C20 N8 O8"
_cell_length_a       8.55577
_cell_length_b       8.55579
_cell_length_c       10.3948
_cell_angle_alpha    107.786
_cell_angle_beta     107.786
_cell_angle_gamma    104.918

_space_group_name_H-M_alt    "P 1"
_space_group_IT_number       1

loop_
  _space_group_symop_operation_xyz
  'x, y, z'

loop_
  _atom_site_type_symbol
  _atom_site_label
  _atom_site_symmetry_multiplicity
  _atom_site_fract_x
  _atom_site_fract_y
  _atom_site_fract_z
  _atom_site_occupancy
  Co  Co1       1.0  0.03627  0.06919  0.70508  1.0000
  Co  Co2       1.0  0.36423  0.33132  0.29474  1.0000
  Co  Co3       1.0  0.58132  0.11422  0.79474  1.0000
  Co  Co4       1.0  0.31919  0.78627  0.20508  1.0000
  H   H1        1.0  0.98610  0.71315  0.48596  1.0000
  H   H2        1.0  0.22755  0.50038  0.51441  1.0000
  H   H3        1.0  0.75038  0.97755  0.01440  1.0000
  H   H4        1.0  0.96315  0.73610  0.98596  1.0000
  H   H5        1.0  0.05295  0.63757  0.62662  1.0000
  H   H6        1.0  0.01124  0.42644  0.37384  1.0000
  H   H7        1.0  0.67644  0.76124  0.87384  1.0000
  H   H8        1.0  0.88756  0.80294  0.12662  1.0000
  H   H9        1.0  0.61070  0.83445  0.51432  1.0000
  H   H10       1.0  0.32053  0.09628  0.48529  1.0000
  H   H11       1.0  0.34628  0.07053  0.98529  1.0000
  H   H12       1.0  0.08445  0.36070  0.01432  1.0000
  H   H13       1.0  0.66009  0.03437  0.19878  1.0000
  H   H14       1.0  0.83550  0.46160  0.80122  1.0000
  H   H15       1.0  0.71161  0.58550  0.30122  1.0000
  H   H16       1.0  0.28438  0.41009  0.69879  1.0000
  H   H17       1.0  0.99517  0.14291  0.42001  1.0000
  H   H18       1.0  0.72279  0.57565  0.58008  1.0000
  H   H19       1.0  0.82566  0.47278  0.08008  1.0000
  H   H20       1.0  0.39291  0.74517  0.92001  1.0000
  C   C1        1.0  0.25414  0.85860  0.64364  1.0000
  C   C2        1.0  0.21494  0.61050  0.35646  1.0000
  C   C3        1.0  0.86050  0.96494  0.85646  1.0000
  C   C4        1.0  0.10860  0.00414  0.14364  1.0000
  C   C5        1.0  0.09478  0.68520  0.55056  1.0000
  C   C6        1.0  0.13489  0.54435  0.44979  1.0000
  C   C7        1.0  0.79435  0.88489  0.94979  1.0000
  C   C8        1.0  0.93519  0.84478  0.05055  1.0000
  C   C9        1.0  0.67054  0.90100  0.45746  1.0000
  C   C10       1.0  0.44381  0.21315  0.54228  1.0000
  C   C11       1.0  0.46315  0.19381  0.04228  1.0000
  C   C12       1.0  0.15099  0.42054  0.95746  1.0000
  C   C13       1.0  0.69986  0.00543  0.29560  1.0000
  C   C14       1.0  0.70989  0.40448  0.70431  1.0000
  C   C15       1.0  0.65448  0.45988  0.20431  1.0000
  C   C16       1.0  0.25543  0.44986  0.79561  1.0000
  C   C17       1.0  0.86613  0.06131  0.40666  1.0000
  C   C18       1.0  0.65462  0.45975  0.59327  1.0000
  C   C19       1.0  0.70975  0.40462  0.09327  1.0000
  C   C20       1.0  0.31131  0.61613  0.90667  1.0000
  N   N1        1.0  0.84655  0.99566  0.50972  1.0000
  N   N2        1.0  0.48609  0.33701  0.49011  1.0000
  N   N3        1.0  0.58701  0.23609  0.99011  1.0000
  N   N4        1.0  0.24565  0.59655  0.00972  1.0000
  N   N5        1.0  0.57672  0.90266  0.32781  1.0000
  N   N6        1.0  0.57502  0.24895  0.67195  1.0000
  N   N7        1.0  0.49895  0.32502  0.17195  1.0000
  N   N8        1.0  0.15266  0.32672  0.82782  1.0000
  O   O1        1.0  0.23625  0.00714  0.68666  1.0000
  O   O2        1.0  0.32044  0.54963  0.31336  1.0000
  O   O3        1.0  0.79963  0.07044  0.81336  1.0000
  O   O4        1.0  0.25714  0.98625  0.18666  1.0000
  O   O5        1.0  0.41102  0.85830  0.67992  1.0000
  O   O6        1.0  0.17818  0.73093  0.32007  1.0000
  O   O7        1.0  0.98093  0.92818  0.82007  1.0000
  O   O8        1.0  0.10830  0.16102  0.17992  1.0000
