data_image0
_chemical_formula_structural       H16Pb2C24N8O16F4
_chemical_formula_sum              "H16 Pb2 C24 N8 O16 F4"
_cell_length_a       4.92864
_cell_length_b       10.9674
_cell_length_c       14.7923
_cell_angle_alpha    99.2936
_cell_angle_beta     95.3405
_cell_angle_gamma    101.258

_space_group_name_H-M_alt    "P 1"
_space_group_IT_number       1

loop_
  _space_group_symop_operation_xyz
  'x, y, z'

loop_
  _atom_site_type_symbol
  _atom_site_label
  _atom_site_symmetry_multiplicity
  _atom_site_fract_x
  _atom_site_fract_y
  _atom_site_fract_z
  _atom_site_occupancy
  H   H1        1.0  0.27724  0.49409  0.95722  1.0000
  H   H2        1.0  0.72275  0.50590  0.04278  1.0000
  H   H3        1.0  0.16875  0.03860  0.44756  1.0000
  H   H4        1.0  0.83131  0.96141  0.55240  1.0000
  H   H5        1.0  0.84226  0.82622  0.79535  1.0000
  H   H6        1.0  0.15764  0.17377  0.20467  1.0000
  H   H7        1.0  0.67931  0.66438  0.78144  1.0000
  H   H8        1.0  0.32064  0.33561  0.21858  1.0000
  H   H9        1.0  0.28101  0.90727  0.88345  1.0000
  H   H10       1.0  0.71896  0.09271  0.11654  1.0000
  H   H11       1.0  0.63548  0.60167  0.23590  1.0000
  H   H12       1.0  0.36452  0.39832  0.76410  1.0000
  H   H13       1.0  0.46510  0.68155  0.31979  1.0000
  H   H14       1.0  0.53494  0.31849  0.68020  1.0000
  H   H15       1.0  0.99063  0.71164  0.17463  1.0000
  H   H16       1.0  0.00935  0.28838  0.82535  1.0000
  Pb  Pb1       1.0  0.38666  0.67655  0.54807  1.0000
  Pb  Pb2       1.0  0.61294  0.32348  0.45200  1.0000
  C   C1        1.0  0.01646  0.70162  0.69933  1.0000
  C   C2        1.0  0.98352  0.29839  0.30071  1.0000
  C   C3        1.0  0.88080  0.73010  0.78716  1.0000
  C   C4        1.0  0.11914  0.26990  0.21286  1.0000
  C   C5        1.0  0.05305  0.59702  0.88618  1.0000
  C   C6        1.0  0.94697  0.40297  0.11382  1.0000
  C   C7        1.0  0.50000  0.68013  0.98910  1.0000
  C   C8        1.0  0.50006  0.31985  0.01087  1.0000
  C   C9        1.0  0.49120  0.80165  0.96543  1.0000
  C   C10       1.0  0.50888  0.19832  0.03452  1.0000
  C   C11       1.0  0.28129  0.81702  0.90518  1.0000
  C   C12       1.0  0.71873  0.18296  0.09480  1.0000
  C   C13       1.0  0.78923  0.59737  0.37737  1.0000
  C   C14       1.0  0.21069  0.40265  0.62266  1.0000
  C   C15       1.0  0.66765  0.66325  0.30393  1.0000
  C   C16       1.0  0.33238  0.33675  0.69607  1.0000
  C   C17       1.0  0.91169  0.87231  0.38086  1.0000
  C   C18       1.0  0.08847  0.12766  0.61915  1.0000
  C   C19       1.0  0.31947  0.98864  0.32221  1.0000
  C   C20       1.0  0.68054  0.01139  0.67775  1.0000
  C   C21       1.0  0.25191  0.88942  0.24170  1.0000
  C   C22       1.0  0.74803  0.11062  0.75826  1.0000
  C   C23       1.0  0.03581  0.78896  0.23381  1.0000
  C   C24       1.0  0.96417  0.21106  0.76616  1.0000
  N   N1        1.0  0.06182  0.71887  0.86784  1.0000
  N   N2        1.0  0.93814  0.28112  0.13217  1.0000
  N   N3        1.0  0.27234  0.58653  0.94780  1.0000
  N   N4        1.0  0.72766  0.41346  0.05220  1.0000
  N   N5        1.0  0.86333  0.78115  0.30127  1.0000
  N   N6        1.0  0.13676  0.21884  0.69874  1.0000
  N   N7        1.0  0.13152  0.97225  0.38614  1.0000
  N   N8        1.0  0.86853  0.02776  0.61384  1.0000
  O   O1        1.0  0.24722  0.66804  0.70790  1.0000
  O   O2        1.0  0.75285  0.33204  0.29218  1.0000
  O   O3        1.0  0.89550  0.71596  0.62299  1.0000
  O   O4        1.0  0.10449  0.28399  0.37703  1.0000
  O   O5        1.0  0.86548  0.50545  0.84988  1.0000
  O   O6        1.0  0.13458  0.49453  0.15010  1.0000
  O   O7        1.0  0.69496  0.65771  0.03990  1.0000
  O   O8        1.0  0.30511  0.34227  0.96006  1.0000
  O   O9        1.0  0.04885  0.61191  0.39193  1.0000
  O   O10       1.0  0.95109  0.38820  0.60817  1.0000
  O   O11       1.0  0.60952  0.53348  0.41871  1.0000
  O   O12       1.0  0.39035  0.46650  0.58128  1.0000
  O   O13       1.0  0.76384  0.86181  0.44465  1.0000
  O   O14       1.0  0.23646  0.13812  0.55540  1.0000
  O   O15       1.0  0.52297  0.07940  0.33583  1.0000
  O   O16       1.0  0.47704  0.92063  0.66415  1.0000
  F   F1        1.0  0.70829  0.89970  0.00153  1.0000
  F   F2        1.0  0.29178  0.10027  0.99842  1.0000
  F   F3        1.0  0.42041  0.89756  0.17426  1.0000
  F   F4        1.0  0.57954  0.10245  0.82570  1.0000
