data_image0
_chemical_formula_structural       Co4H44C56N20O24
_chemical_formula_sum              "Co4 H44 C56 N20 O24"
_cell_length_a       8.67196
_cell_length_b       9.54078
_cell_length_c       19.0405
_cell_angle_alpha    100.659
_cell_angle_beta     89.9997
_cell_angle_gamma    90.0002

_space_group_name_H-M_alt    "P 1"
_space_group_IT_number       1

loop_
  _space_group_symop_operation_xyz
  'x, y, z'

loop_
  _atom_site_type_symbol
  _atom_site_label
  _atom_site_symmetry_multiplicity
  _atom_site_fract_x
  _atom_site_fract_y
  _atom_site_fract_z
  _atom_site_occupancy
  Co  Co1       1.0  0.88335  0.49586  0.62464  1.0000
  Co  Co2       1.0  0.38335  0.00415  0.87536  1.0000
  Co  Co3       1.0  0.11665  0.50414  0.37536  1.0000
  Co  Co4       1.0  0.61665  0.99586  0.12464  1.0000
  H   H1        1.0  0.45068  0.56649  0.58797  1.0000
  H   H2        1.0  0.95067  0.93351  0.91203  1.0000
  H   H3        1.0  0.54933  0.43351  0.41204  1.0000
  H   H4        1.0  0.04933  0.06649  0.08796  1.0000
  H   H5        1.0  0.55778  0.40341  0.83251  1.0000
  H   H6        1.0  0.05778  0.09659  0.66749  1.0000
  H   H7        1.0  0.44222  0.59659  0.16749  1.0000
  H   H8        1.0  0.94222  0.90341  0.33251  1.0000
  H   H9        1.0  0.57314  0.73561  0.43464  1.0000
  H   H10       1.0  0.07314  0.76439  0.06536  1.0000
  H   H11       1.0  0.42686  0.26439  0.56536  1.0000
  H   H12       1.0  0.92686  0.23561  0.93464  1.0000
  H   H13       1.0  0.68851  0.17945  0.44958  1.0000
  H   H14       1.0  0.18851  0.32055  0.05042  1.0000
  H   H15       1.0  0.31150  0.82055  0.55042  1.0000
  H   H16       1.0  0.81150  0.67945  0.94958  1.0000
  H   H17       1.0  0.86877  0.94335  0.60352  1.0000
  H   H18       1.0  0.36878  0.55665  0.89647  1.0000
  H   H19       1.0  0.13122  0.05665  0.39648  1.0000
  H   H20       1.0  0.63122  0.44335  0.10352  1.0000
  H   H21       1.0  0.17518  0.59906  0.54557  1.0000
  H   H22       1.0  0.67518  0.90094  0.95443  1.0000
  H   H23       1.0  0.82482  0.40093  0.45443  1.0000
  H   H24       1.0  0.32482  0.09907  0.04557  1.0000
  H   H25       1.0  0.45293  0.45715  0.70087  1.0000
  H   H26       1.0  0.95293  0.04285  0.79913  1.0000
  H   H27       1.0  0.54707  0.54285  0.29913  1.0000
  H   H28       1.0  0.04707  0.95715  0.20087  1.0000
  H   H29       1.0  0.14291  0.42132  0.73287  1.0000
  H   H30       1.0  0.64291  0.07867  0.76713  1.0000
  H   H31       1.0  0.85709  0.57868  0.26713  1.0000
  H   H32       1.0  0.35709  0.92132  0.23287  1.0000
  H   H33       1.0  0.73980  0.29709  0.72934  1.0000
  H   H34       1.0  0.23980  0.20291  0.77066  1.0000
  H   H35       1.0  0.26020  0.70291  0.27066  1.0000
  H   H36       1.0  0.76020  0.79709  0.22934  1.0000
  H   H37       1.0  0.54181  0.67679  0.84592  1.0000
  H   H38       1.0  0.04181  0.82321  0.65408  1.0000
  H   H39       1.0  0.45819  0.32321  0.15408  1.0000
  H   H40       1.0  0.95819  0.17679  0.34592  1.0000
  H   H41       1.0  0.71933  0.74132  0.73483  1.0000
  H   H42       1.0  0.21933  0.75868  0.76517  1.0000
  H   H43       1.0  0.28067  0.25868  0.26517  1.0000
  H   H44       1.0  0.78067  0.24132  0.23483  1.0000
  C   C1        1.0  0.72833  0.69180  0.55364  1.0000
  C   C2        1.0  0.22833  0.80820  0.94636  1.0000
  C   C3        1.0  0.27167  0.30820  0.44636  1.0000
  C   C4        1.0  0.77167  0.19180  0.05364  1.0000
  C   C5        1.0  0.72603  0.82417  0.52139  1.0000
  C   C6        1.0  0.22604  0.67584  0.97861  1.0000
  C   C7        1.0  0.27397  0.17583  0.47861  1.0000
  C   C8        1.0  0.77396  0.32417  0.02139  1.0000
  C   C9        1.0  0.63795  0.82851  0.46038  1.0000
  C   C10       1.0  0.13795  0.67149  0.03962  1.0000
  C   C11       1.0  0.36205  0.17148  0.53962  1.0000
  C   C12       1.0  0.86205  0.32851  0.96038  1.0000
  C   C13       1.0  0.63194  0.95595  0.43457  1.0000
  C   C14       1.0  0.13193  0.54405  0.06543  1.0000
  C   C15       1.0  0.36807  0.04404  0.56543  1.0000
  C   C16       1.0  0.86807  0.45596  0.93457  1.0000
  C   C17       1.0  0.70377  0.08046  0.46920  1.0000
  C   C18       1.0  0.20377  0.41954  0.03080  1.0000
  C   C19       1.0  0.29623  0.91954  0.53080  1.0000
  C   C20       1.0  0.79623  0.58046  0.96920  1.0000
  C   C21       1.0  0.79009  0.07581  0.53078  1.0000
  C   C22       1.0  0.29009  0.42419  0.96922  1.0000
  C   C23       1.0  0.20991  0.92418  0.46922  1.0000
  C   C24       1.0  0.70991  0.57581  0.03078  1.0000
  C   C25       1.0  0.80365  0.94663  0.55510  1.0000
  C   C26       1.0  0.30365  0.55337  0.94490  1.0000
  C   C27       1.0  0.19635  0.05336  0.44490  1.0000
  C   C28       1.0  0.69635  0.44664  0.05510  1.0000
  C   C29       1.0  0.85619  0.20891  0.57488  1.0000
  C   C30       1.0  0.35619  0.29109  0.92512  1.0000
  C   C31       1.0  0.14380  0.79109  0.42512  1.0000
  C   C32       1.0  0.64380  0.70891  0.07488  1.0000
  C   C33       1.0  0.20607  0.55625  0.59270  1.0000
  C   C34       1.0  0.70607  0.94374  0.90730  1.0000
  C   C35       1.0  0.79393  0.44374  0.40730  1.0000
  C   C36       1.0  0.29393  0.05626  0.09270  1.0000
  C   C37       1.0  0.34882  0.48207  0.67472  1.0000
  C   C38       1.0  0.84882  0.01792  0.82528  1.0000
  C   C39       1.0  0.65118  0.51792  0.32529  1.0000
  C   C40       1.0  0.15118  0.98208  0.17471  1.0000
  C   C41       1.0  0.19604  0.46255  0.68934  1.0000
  C   C42       1.0  0.69604  0.03745  0.81066  1.0000
  C   C43       1.0  0.80396  0.53745  0.31066  1.0000
  C   C44       1.0  0.30396  0.96255  0.18934  1.0000
  C   C45       1.0  0.71160  0.40889  0.74564  1.0000
  C   C46       1.0  0.21160  0.09112  0.75436  1.0000
  C   C47       1.0  0.28840  0.59112  0.25436  1.0000
  C   C48       1.0  0.78840  0.90888  0.24564  1.0000
  C   C49       1.0  0.61036  0.60876  0.80576  1.0000
  C   C50       1.0  0.11036  0.89124  0.69424  1.0000
  C   C51       1.0  0.38964  0.39124  0.19425  1.0000
  C   C52       1.0  0.88964  0.10876  0.30576  1.0000
  C   C53       1.0  0.69770  0.63945  0.75037  1.0000
  C   C54       1.0  0.19770  0.86055  0.74963  1.0000
  C   C55       1.0  0.30230  0.36055  0.24963  1.0000
  C   C56       1.0  0.80230  0.13945  0.25037  1.0000
  N   N1        1.0  0.53756  0.96244  0.37113  1.0000
  N   N2        1.0  0.03756  0.53756  0.12887  1.0000
  N   N3        1.0  0.46244  0.03755  0.62887  1.0000
  N   N4        1.0  0.96244  0.46244  0.87113  1.0000
  N   N5        1.0  0.10797  0.50949  0.63766  1.0000
  N   N6        1.0  0.60797  0.99051  0.86234  1.0000
  N   N7        1.0  0.89203  0.49051  0.36234  1.0000
  N   N8        1.0  0.39203  0.00949  0.13766  1.0000
  N   N9        1.0  0.35238  0.54076  0.61392  1.0000
  N   N10       1.0  0.85237  0.95924  0.88608  1.0000
  N   N11       1.0  0.64762  0.45924  0.38608  1.0000
  N   N12       1.0  0.14762  0.04076  0.11392  1.0000
  N   N13       1.0  0.76029  0.51371  0.71311  1.0000
  N   N14       1.0  0.26029  0.98629  0.78689  1.0000
  N   N15       1.0  0.23971  0.48629  0.28689  1.0000
  N   N16       1.0  0.73971  0.01371  0.21311  1.0000
  N   N17       1.0  0.62093  0.46310  0.80194  1.0000
  N   N18       1.0  0.12093  0.03690  0.69806  1.0000
  N   N19       1.0  0.37907  0.53690  0.19806  1.0000
  N   N20       1.0  0.87907  0.96310  0.30194  1.0000
  O   O1        1.0  0.85421  0.67224  0.58727  1.0000
  O   O2        1.0  0.35420  0.82776  0.91272  1.0000
  O   O3        1.0  0.14580  0.32776  0.41273  1.0000
  O   O4        1.0  0.64580  0.17224  0.08727  1.0000
  O   O5        1.0  0.61413  0.61069  0.54637  1.0000
  O   O6        1.0  0.11413  0.88931  0.95364  1.0000
  O   O7        1.0  0.38587  0.38931  0.45364  1.0000
  O   O8        1.0  0.88587  0.11069  0.04636  1.0000
  O   O9        1.0  0.82168  0.32719  0.55483  1.0000
  O   O10       1.0  0.32169  0.17281  0.94517  1.0000
  O   O11       1.0  0.17832  0.67281  0.44517  1.0000
  O   O12       1.0  0.67832  0.82719  0.05483  1.0000
  O   O13       1.0  0.93355  0.20345  0.63029  1.0000
  O   O14       1.0  0.43355  0.29655  0.86971  1.0000
  O   O15       1.0  0.06645  0.79655  0.36971  1.0000
  O   O16       1.0  0.56645  0.70345  0.13029  1.0000
  O   O17       1.0  0.52183  0.07945  0.35253  1.0000
  O   O18       1.0  0.02183  0.42055  0.14747  1.0000
  O   O19       1.0  0.47817  0.92055  0.64747  1.0000
  O   O20       1.0  0.97817  0.57945  0.85253  1.0000
  O   O21       1.0  0.47678  0.84972  0.33980  1.0000
  O   O22       1.0  0.97678  0.65028  0.16020  1.0000
  O   O23       1.0  0.52322  0.15027  0.66020  1.0000
  O   O24       1.0  0.02322  0.34973  0.83979  1.0000
