data_image0
_chemical_formula_structural       Cu3H16C22N6O14
_chemical_formula_sum              "Cu3 H16 C22 N6 O14"
_cell_length_a       7.56989
_cell_length_b       10.222
_cell_length_c       9.70543
_cell_angle_alpha    114.285
_cell_angle_beta     90.9098
_cell_angle_gamma    111.676

_space_group_name_H-M_alt    "P 1"
_space_group_IT_number       1

loop_
  _space_group_symop_operation_xyz
  'x, y, z'

loop_
  _atom_site_type_symbol
  _atom_site_label
  _atom_site_symmetry_multiplicity
  _atom_site_fract_x
  _atom_site_fract_y
  _atom_site_fract_z
  _atom_site_occupancy
  Cu  Cu1       1.0  0.99860  0.00050  0.49801  1.0000
  Cu  Cu2       1.0  0.24279  0.06011  0.81366  1.0000
  Cu  Cu3       1.0  0.75963  0.94096  0.18751  1.0000
  H   H1        1.0  0.57076  0.83005  0.60891  1.0000
  H   H2        1.0  0.42655  0.16919  0.39175  1.0000
  H   H3        1.0  0.55881  0.41881  0.22020  1.0000
  H   H4        1.0  0.43982  0.58083  0.78109  1.0000
  H   H5        1.0  0.13663  0.60283  0.19608  1.0000
  H   H6        1.0  0.86382  0.39802  0.80293  1.0000
  H   H7        1.0  0.23780  0.72597  0.74605  1.0000
  H   H8        1.0  0.76447  0.27457  0.25376  1.0000
  H   H9        1.0  0.21736  0.63496  0.98010  1.0000
  H   H10       1.0  0.78365  0.36486  0.01931  1.0000
  H   H11       1.0  0.23702  0.09691  0.15578  1.0000
  H   H12       1.0  0.76576  0.90341  0.84444  1.0000
  H   H13       1.0  0.21143  0.87000  0.21791  1.0000
  H   H14       1.0  0.79031  0.12982  0.78193  1.0000
  H   H15       1.0  0.14939  0.23119  0.75634  1.0000
  H   H16       1.0  0.84503  0.76618  0.24276  1.0000
  C   C1        1.0  0.26831  0.85014  0.49444  1.0000
  C   C2        1.0  0.73337  0.15239  0.50462  1.0000
  C   C3        1.0  0.34572  0.72918  0.41108  1.0000
  C   C4        1.0  0.65318  0.27092  0.58869  1.0000
  C   C5        1.0  0.50623  0.73735  0.49232  1.0000
  C   C6        1.0  0.49137  0.26184  0.50829  1.0000
  C   C7        1.0  0.58188  0.62695  0.42138  1.0000
  C   C8        1.0  0.41546  0.37192  0.57990  1.0000
  C   C9        1.0  0.49825  0.50476  0.27352  1.0000
  C   C10       1.0  0.49997  0.49463  0.72753  1.0000
  C   C11       1.0  0.33848  0.49762  0.19185  1.0000
  C   C12       1.0  0.66090  0.50233  0.80839  1.0000
  C   C13       1.0  0.26327  0.61071  0.25964  1.0000
  C   C14       1.0  0.73626  0.38955  0.73996  1.0000
  C   C15       1.0  0.25559  0.36924  0.02896  1.0000
  C   C16       1.0  0.74641  0.63156  0.97066  1.0000
  C   C17       1.0  0.23772  0.79027  0.86659  1.0000
  C   C18       1.0  0.76441  0.21006  0.13323  1.0000
  C   C19       1.0  0.22835  0.74466  0.98192  1.0000
  C   C20       1.0  0.77329  0.25539  0.01774  1.0000
  C   C21       1.0  0.23699  0.98536  0.07625  1.0000
  C   C22       1.0  0.76554  0.01490  0.92381  1.0000
  N   N1        1.0  0.76226  0.64647  0.50112  1.0000
  N   N2        1.0  0.23496  0.35191  0.50012  1.0000
  N   N3        1.0  0.24378  0.94069  0.92710  1.0000
  N   N4        1.0  0.75894  0.05982  0.07304  1.0000
  N   N5        1.0  0.22837  0.86936  0.11276  1.0000
  N   N6        1.0  0.77356  0.13063  0.88707  1.0000
  O   O1        1.0  0.17789  0.14077  0.68692  1.0000
  O   O2        1.0  0.81155  0.85323  0.31322  1.0000
  O   O3        1.0  0.31769  0.91598  0.63998  1.0000
  O   O4        1.0  0.68537  0.08759  0.35921  1.0000
  O   O5        1.0  0.16277  0.87727  0.41393  1.0000
  O   O6        1.0  0.84134  0.12726  0.58520  1.0000
  O   O7        1.0  0.27821  0.24327  0.00666  1.0000
  O   O8        1.0  0.72736  0.75864  0.99271  1.0000
  O   O9        1.0  0.17832  0.39265  0.93100  1.0000
  O   O10       1.0  0.82285  0.60757  0.06864  1.0000
  O   O11       1.0  0.82146  0.54146  0.44434  1.0000
  O   O12       1.0  0.17505  0.45647  0.55651  1.0000
  O   O13       1.0  0.85094  0.77154  0.62122  1.0000
  O   O14       1.0  0.14675  0.22652  0.37996  1.0000
