data_image0
_chemical_formula_structural       Ag4H12C8N16
_chemical_formula_sum              "Ag4 H12 C8 N16"
_cell_length_a       6.43408
_cell_length_b       8.62477
_cell_length_c       8.62473
_cell_angle_alpha    82.5926
_cell_angle_beta     110.783
_cell_angle_gamma    110.784

_space_group_name_H-M_alt    "P 1"
_space_group_IT_number       1

loop_
  _space_group_symop_operation_xyz
  'x, y, z'

loop_
  _atom_site_type_symbol
  _atom_site_label
  _atom_site_symmetry_multiplicity
  _atom_site_fract_x
  _atom_site_fract_y
  _atom_site_fract_z
  _atom_site_occupancy
  Ag  Ag1       1.0  0.88304  0.76454  0.00683  1.0000
  Ag  Ag2       1.0  0.61696  0.99317  0.23545  1.0000
  Ag  Ag3       1.0  0.11697  0.23545  0.99317  1.0000
  Ag  Ag4       1.0  0.38303  0.00682  0.76455  1.0000
  H   H1        1.0  0.00416  0.61472  0.35248  1.0000
  H   H2        1.0  0.49579  0.64752  0.38530  1.0000
  H   H3        1.0  0.99583  0.38528  0.64752  1.0000
  H   H4        1.0  0.50421  0.35247  0.61471  1.0000
  H   H5        1.0  0.93961  0.67918  0.51368  1.0000
  H   H6        1.0  0.56033  0.48630  0.32084  1.0000
  H   H7        1.0  0.06038  0.32084  0.48633  1.0000
  H   H8        1.0  0.43967  0.51368  0.67916  1.0000
  H   H9        1.0  0.22869  0.68323  0.54868  1.0000
  H   H10       1.0  0.27124  0.45132  0.31677  1.0000
  H   H11       1.0  0.77132  0.31678  0.45133  1.0000
  H   H12       1.0  0.72875  0.54867  0.68322  1.0000
  C   C1        1.0  0.13378  0.87547  0.39275  1.0000
  C   C2        1.0  0.36621  0.60724  0.12454  1.0000
  C   C3        1.0  0.86621  0.12454  0.60724  1.0000
  C   C4        1.0  0.63378  0.39275  0.87546  1.0000
  C   C5        1.0  0.07318  0.70296  0.45409  1.0000
  C   C6        1.0  0.42678  0.54590  0.29706  1.0000
  C   C7        1.0  0.92682  0.29705  0.54591  1.0000
  C   C8        1.0  0.57323  0.45408  0.70295  1.0000
  N   N1        1.0  0.07889  0.92268  0.23308  1.0000
  N   N2        1.0  0.42108  0.76691  0.07733  1.0000
  N   N3        1.0  0.92111  0.07733  0.76692  1.0000
  N   N4        1.0  0.57892  0.23308  0.92266  1.0000
  N   N5        1.0  0.16652  0.09118  0.23494  1.0000
  N   N6        1.0  0.33348  0.76506  0.90883  1.0000
  N   N7        1.0  0.83347  0.90883  0.76506  1.0000
  N   N8        1.0  0.66653  0.23494  0.09117  1.0000
  N   N9        1.0  0.26957  0.14392  0.38897  1.0000
  N   N10       1.0  0.23047  0.61103  0.85609  1.0000
  N   N11       1.0  0.73042  0.85609  0.61103  1.0000
  N   N12       1.0  0.76954  0.38897  0.14391  1.0000
  N   N13       1.0  0.25117  0.01074  0.49017  1.0000
  N   N14       1.0  0.24883  0.50983  0.98927  1.0000
  N   N15       1.0  0.74883  0.98927  0.50983  1.0000
  N   N16       1.0  0.75121  0.49017  0.01072  1.0000
