data_image0
_chemical_formula_structural       Cu4H24C32O24
_chemical_formula_sum              "Cu4 H24 C32 O24"
_cell_length_a       7.42181
_cell_length_b       10.4586
_cell_length_c       11.2401
_cell_angle_alpha    85.5368
_cell_angle_beta     78.6019
_cell_angle_gamma    82.2516

_space_group_name_H-M_alt    "P 1"
_space_group_IT_number       1

loop_
  _space_group_symop_operation_xyz
  'x, y, z'

loop_
  _atom_site_type_symbol
  _atom_site_label
  _atom_site_symmetry_multiplicity
  _atom_site_fract_x
  _atom_site_fract_y
  _atom_site_fract_z
  _atom_site_occupancy
  Cu  Cu1       1.0  0.92273  0.76969  0.65673  1.0000
  Cu  Cu2       1.0  0.07725  0.23031  0.34328  1.0000
  Cu  Cu3       1.0  0.41254  0.78977  0.45961  1.0000
  Cu  Cu4       1.0  0.58744  0.21023  0.54040  1.0000
  H   H1        1.0  0.30515  0.21976  0.03361  1.0000
  H   H2        1.0  0.69485  0.78024  0.96640  1.0000
  H   H3        1.0  0.00513  0.17474  0.99505  1.0000
  H   H4        1.0  0.99486  0.82527  0.00495  1.0000
  H   H5        1.0  0.99360  0.03967  0.82223  1.0000
  H   H6        1.0  0.00637  0.96033  0.17779  1.0000
  H   H7        1.0  0.78801  0.57271  0.04066  1.0000
  H   H8        1.0  0.21200  0.42728  0.95934  1.0000
  H   H9        1.0  0.69346  0.39681  0.19314  1.0000
  H   H10       1.0  0.30655  0.60318  0.80686  1.0000
  H   H11       1.0  0.60704  0.19527  0.12556  1.0000
  H   H12       1.0  0.39296  0.80473  0.87444  1.0000
  H   H13       1.0  0.88484  0.92715  0.47314  1.0000
  H   H14       1.0  0.11514  0.07286  0.52685  1.0000
  H   H15       1.0  0.96622  0.78937  0.42275  1.0000
  H   H16       1.0  0.03374  0.21063  0.57726  1.0000
  H   H17       1.0  0.06147  0.53835  0.61076  1.0000
  H   H18       1.0  0.93853  0.46167  0.38926  1.0000
  H   H19       1.0  0.11731  0.62747  0.48827  1.0000
  H   H20       1.0  0.88267  0.37254  0.51174  1.0000
  H   H21       1.0  0.58652  0.62746  0.60285  1.0000
  H   H22       1.0  0.41354  0.37258  0.39714  1.0000
  H   H23       1.0  0.41953  0.57339  0.56144  1.0000
  H   H24       1.0  0.58081  0.42648  0.43838  1.0000
  C   C1        1.0  0.28918  0.01382  0.76307  1.0000
  C   C2        1.0  0.71079  0.98618  0.23694  1.0000
  C   C3        1.0  0.46085  0.04206  0.78290  1.0000
  C   C4        1.0  0.53912  0.95794  0.21711  1.0000
  C   C5        1.0  0.46405  0.11831  0.87942  1.0000
  C   C6        1.0  0.53593  0.88168  0.12059  1.0000
  C   C7        1.0  0.30087  0.16547  0.95579  1.0000
  C   C8        1.0  0.69911  0.83454  0.04422  1.0000
  C   C9        1.0  0.13178  0.13820  0.93442  1.0000
  C   C10       1.0  0.86821  0.86181  0.06558  1.0000
  C   C11       1.0  0.12483  0.06330  0.83860  1.0000
  C   C12       1.0  0.87515  0.93671  0.16142  1.0000
  C   C13       1.0  0.27681  0.93134  0.66265  1.0000
  C   C14       1.0  0.72319  0.06866  0.33736  1.0000
  C   C15       1.0  0.64196  0.99104  0.70628  1.0000
  C   C16       1.0  0.35801  0.00895  0.29373  1.0000
  C   C17       1.0  0.65859  0.25825  0.93685  1.0000
  C   C18       1.0  0.34140  0.74174  0.06315  1.0000
  C   C19       1.0  0.70934  0.35652  0.84993  1.0000
  C   C20       1.0  0.29066  0.64348  0.15008  1.0000
  C   C21       1.0  0.75309  0.47135  0.88890  1.0000
  C   C22       1.0  0.24691  0.52864  0.11111  1.0000
  C   C23       1.0  0.75092  0.48440  0.01191  1.0000
  C   C24       1.0  0.24909  0.51559  0.98810  1.0000
  C   C25       1.0  0.69744  0.38586  0.09717  1.0000
  C   C26       1.0  0.30255  0.61414  0.90283  1.0000
  C   C27       1.0  0.64941  0.27293  0.06022  1.0000
  C   C28       1.0  0.35059  0.72707  0.93978  1.0000
  C   C29       1.0  0.72809  0.33361  0.71766  1.0000
  C   C30       1.0  0.27190  0.66639  0.28235  1.0000
  C   C31       1.0  0.79029  0.57975  0.79620  1.0000
  C   C32       1.0  0.20970  0.42025  0.20381  1.0000
  O   O1        1.0  0.11939  0.91787  0.64211  1.0000
  O   O2        1.0  0.88059  0.08212  0.35790  1.0000
  O   O3        1.0  0.43126  0.88023  0.60048  1.0000
  O   O4        1.0  0.56873  0.11978  0.39952  1.0000
  O   O5        1.0  0.71442  0.05575  0.61213  1.0000
  O   O6        1.0  0.28554  0.94425  0.38787  1.0000
  O   O7        1.0  0.71862  0.88466  0.74557  1.0000
  O   O8        1.0  0.28137  0.11534  0.25444  1.0000
  O   O9        1.0  0.58381  0.30572  0.68481  1.0000
  O   O10       1.0  0.41618  0.69428  0.31519  1.0000
  O   O11       1.0  0.88630  0.33841  0.64880  1.0000
  O   O12       1.0  0.11370  0.66159  0.35120  1.0000
  O   O13       1.0  0.70858  0.59121  0.70684  1.0000
  O   O14       1.0  0.29138  0.40877  0.29318  1.0000
  O   O15       1.0  0.90753  0.65537  0.80945  1.0000
  O   O16       1.0  0.09245  0.34463  0.19055  1.0000
  O   O17       1.0  0.63722  0.13939  0.89644  1.0000
  O   O18       1.0  0.36277  0.86061  0.10356  1.0000
  O   O19       1.0  0.87681  0.83386  0.48869  1.0000
  O   O20       1.0  0.12316  0.16615  0.51131  1.0000
  O   O21       1.0  0.11279  0.61867  0.58031  1.0000
  O   O22       1.0  0.88717  0.38136  0.41969  1.0000
  O   O23       1.0  0.52283  0.62434  0.53254  1.0000
  O   O24       1.0  0.47732  0.37571  0.46740  1.0000
