data_image0
_chemical_formula_structural       Ag2H24C28N14O6
_chemical_formula_sum              "Ag2 H24 C28 N14 O6"
_cell_length_a       7.77972
_cell_length_b       8.43756
_cell_length_c       13.6857
_cell_angle_alpha    89.2447
_cell_angle_beta     90.8753
_cell_angle_gamma    64.8429

_space_group_name_H-M_alt    "P 1"
_space_group_IT_number       1

loop_
  _space_group_symop_operation_xyz
  'x, y, z'

loop_
  _atom_site_type_symbol
  _atom_site_label
  _atom_site_symmetry_multiplicity
  _atom_site_fract_x
  _atom_site_fract_y
  _atom_site_fract_z
  _atom_site_occupancy
  Ag  Ag1       1.0  0.02209  0.49927  0.24539  1.0000
  Ag  Ag2       1.0  0.97792  0.50072  0.75460  1.0000
  H   H1        1.0  0.47836  0.36516  0.83381  1.0000
  H   H2        1.0  0.52163  0.63483  0.16619  1.0000
  H   H3        1.0  0.30675  0.68642  0.79286  1.0000
  H   H4        1.0  0.69325  0.31357  0.20714  1.0000
  H   H5        1.0  0.07512  0.88903  0.90258  1.0000
  H   H6        1.0  0.92489  0.11096  0.09742  1.0000
  H   H7        1.0  0.00654  0.78475  0.06528  1.0000
  H   H8        1.0  0.99346  0.21525  0.93472  1.0000
  H   H9        1.0  0.66949  0.03644  0.03210  1.0000
  H   H10       1.0  0.33051  0.96356  0.96790  1.0000
  H   H11       1.0  0.55776  0.07989  0.91234  1.0000
  H   H12       1.0  0.44224  0.92011  0.08766  1.0000
  H   H13       1.0  0.66808  0.34290  0.64947  1.0000
  H   H14       1.0  0.33192  0.65712  0.35054  1.0000
  H   H15       1.0  0.52590  0.66220  0.68897  1.0000
  H   H16       1.0  0.47409  0.33782  0.31103  1.0000
  H   H17       1.0  0.55390  0.87913  0.57919  1.0000
  H   H18       1.0  0.44609  0.12089  0.42080  1.0000
  H   H19       1.0  0.72752  0.79199  0.42067  1.0000
  H   H20       1.0  0.27248  0.20801  0.57932  1.0000
  H   H21       1.0  0.82515  0.01597  0.43904  1.0000
  H   H22       1.0  0.17485  0.98403  0.56096  1.0000
  H   H23       1.0  0.82630  0.07188  0.56575  1.0000
  H   H24       1.0  0.17369  0.92812  0.43425  1.0000
  C   C1        1.0  0.33652  0.39976  0.97351  1.0000
  C   C2        1.0  0.66348  0.60024  0.02650  1.0000
  C   C3        1.0  0.37761  0.45586  0.88359  1.0000
  C   C4        1.0  0.62239  0.54414  0.11642  1.0000
  C   C5        1.0  0.28173  0.63363  0.86141  1.0000
  C   C6        1.0  0.71828  0.36637  0.13859  1.0000
  C   C7        1.0  0.14932  0.75200  0.92579  1.0000
  C   C8        1.0  0.85068  0.24800  0.07421  1.0000
  C   C9        1.0  0.10997  0.69726  0.01515  1.0000
  C   C10       1.0  0.89003  0.30274  0.98485  1.0000
  C   C11       1.0  0.20697  0.51793  0.03840  1.0000
  C   C12       1.0  0.79303  0.48207  0.96160  1.0000
  C   C13       1.0  0.53630  0.06983  0.99061  1.0000
  C   C14       1.0  0.46370  0.93016  0.00939  1.0000
  C   C15       1.0  0.77487  0.39308  0.51164  1.0000
  C   C16       1.0  0.22512  0.60693  0.48836  1.0000
  C   C17       1.0  0.67885  0.43998  0.59993  1.0000
  C   C18       1.0  0.32116  0.56003  0.40008  1.0000
  C   C19       1.0  0.60130  0.61672  0.62130  1.0000
  C   C20       1.0  0.39869  0.38330  0.37870  1.0000
  C   C21       1.0  0.61660  0.74303  0.55698  1.0000
  C   C22       1.0  0.38338  0.25699  0.44301  1.0000
  C   C23       1.0  0.71107  0.69679  0.46954  1.0000
  C   C24       1.0  0.28894  0.30321  0.53045  1.0000
  C   C25       1.0  0.79129  0.51811  0.44733  1.0000
  C   C26       1.0  0.20870  0.48189  0.55266  1.0000
  C   C27       1.0  0.89426  0.06205  0.49523  1.0000
  C   C28       1.0  0.10573  0.93795  0.50477  1.0000
  N   N1        1.0  0.39662  0.24022  0.02061  1.0000
  N   N2        1.0  0.60338  0.75978  0.97940  1.0000
  N   N3        1.0  0.31352  0.25615  0.10786  1.0000
  N   N4        1.0  0.68648  0.74385  0.89214  1.0000
  N   N5        1.0  0.19955  0.42204  0.11916  1.0000
  N   N6        1.0  0.80046  0.57796  0.88085  1.0000
  N   N7        1.0  0.86938  0.23692  0.46616  1.0000
  N   N8        1.0  0.13062  0.76308  0.53385  1.0000
  N   N9        1.0  0.93914  0.26063  0.38058  1.0000
  N   N10       1.0  0.06086  0.73937  0.61943  1.0000
  N   N11       1.0  0.89385  0.42862  0.36867  1.0000
  N   N12       1.0  0.10615  0.57137  0.63133  1.0000
  N   N13       1.0  0.80364  0.89729  0.25196  1.0000
  N   N14       1.0  0.19637  0.10270  0.74804  1.0000
  O   O1        1.0  0.94982  0.80791  0.30607  1.0000
  O   O2        1.0  0.05019  0.19208  0.69393  1.0000
  O   O3        1.0  0.77342  0.82827  0.17526  1.0000
  O   O4        1.0  0.22658  0.17172  0.82474  1.0000
  O   O5        1.0  0.69117  0.04922  0.27568  1.0000
  O   O6        1.0  0.30883  0.95077  0.72432  1.0000
