data_image0
_chemical_formula_structural       NiH18C18N4Cl4O6
_chemical_formula_sum              "Ni1 H18 C18 N4 Cl4 O6"
_cell_length_a       8.76963
_cell_length_b       8.73066
_cell_length_c       9.7018
_cell_angle_alpha    73.5116
_cell_angle_beta     88.8715
_cell_angle_gamma    80.2529

_space_group_name_H-M_alt    "P 1"
_space_group_IT_number       1

loop_
  _space_group_symop_operation_xyz
  'x, y, z'

loop_
  _atom_site_type_symbol
  _atom_site_label
  _atom_site_symmetry_multiplicity
  _atom_site_fract_x
  _atom_site_fract_y
  _atom_site_fract_z
  _atom_site_occupancy
  Ni  Ni1       1.0  0.00001  0.49999  0.50001  1.0000
  H   H1        1.0  0.16766  0.23564  0.43376  1.0000
  H   H2        1.0  0.83234  0.76436  0.56623  1.0000
  H   H3        1.0  0.14527  0.38510  0.29876  1.0000
  H   H4        1.0  0.85472  0.61492  0.70123  1.0000
  H   H5        1.0  0.32246  0.32605  0.63110  1.0000
  H   H6        1.0  0.67755  0.67396  0.36891  1.0000
  H   H7        1.0  0.53290  0.50220  0.69984  1.0000
  H   H8        1.0  0.46711  0.49781  0.30016  1.0000
  H   H9        1.0  0.11342  0.81856  0.54049  1.0000
  H   H10       1.0  0.88657  0.18145  0.45950  1.0000
  H   H11       1.0  0.50974  0.78638  0.71393  1.0000
  H   H12       1.0  0.49026  0.21363  0.28606  1.0000
  H   H13       1.0  0.32311  0.91290  0.68350  1.0000
  H   H14       1.0  0.67688  0.08710  0.31649  1.0000
  H   H15       1.0  0.35906  0.98103  0.41906  1.0000
  H   H16       1.0  0.64092  0.01899  0.58093  1.0000
  H   H17       1.0  0.54048  0.84859  0.44765  1.0000
  H   H18       1.0  0.45951  0.15143  0.55234  1.0000
  C   C1        1.0  0.31088  0.45375  0.62230  1.0000
  C   C2        1.0  0.68912  0.54626  0.37770  1.0000
  C   C3        1.0  0.41455  0.53860  0.65812  1.0000
  C   C4        1.0  0.58545  0.46141  0.34187  1.0000
  C   C5        1.0  0.19710  0.70743  0.57354  1.0000
  C   C6        1.0  0.80291  0.29254  0.42646  1.0000
  C   C7        1.0  0.40968  0.83521  0.63895  1.0000
  C   C8        1.0  0.59031  0.16480  0.36105  1.0000
  C   C9        1.0  0.46019  0.93139  0.49312  1.0000
  C   C10       1.0  0.53980  0.06862  0.50687  1.0000
  C   C11       1.0  0.95907  0.80027  0.29200  1.0000
  C   C12       1.0  0.04093  0.19973  0.70800  1.0000
  C   C13       1.0  0.98077  0.90112  0.14016  1.0000
  C   C14       1.0  0.01924  0.09887  0.85984  1.0000
  C   C15       1.0  0.12815  0.92982  0.09322  1.0000
  C   C16       1.0  0.87186  0.07018  0.90680  1.0000
  C   C17       1.0  0.14724  0.02922  0.95436  1.0000
  C   C18       1.0  0.85277  0.97075  0.04564  1.0000
  N   N1        1.0  0.17595  0.56056  0.56883  1.0000
  N   N2        1.0  0.82406  0.43945  0.43117  1.0000
  N   N3        1.0  0.34084  0.69762  0.62727  1.0000
  N   N4        1.0  0.65914  0.30239  0.37271  1.0000
  Cl  Cl1       1.0  0.28656  0.84472  0.20764  1.0000
  Cl  Cl2       1.0  0.71344  0.15526  0.79237  1.0000
  Cl  Cl3       1.0  0.32831  0.06830  0.90165  1.0000
  Cl  Cl4       1.0  0.67169  0.93169  0.09837  1.0000
  O   O1        1.0  0.01149  0.64758  0.31424  1.0000
  O   O2        1.0  0.98851  0.35242  0.68578  1.0000
  O   O3        1.0  0.89561  0.86872  0.38030  1.0000
  O   O4        1.0  0.10440  0.13125  0.61970  1.0000
  O   O5        1.0  0.21072  0.28006  0.33883  1.0000
  O   O6        1.0  0.78928  0.71995  0.66116  1.0000
