data_image0
_chemical_formula_structural       Zn4H40C56N8O16
_chemical_formula_sum              "Zn4 H40 C56 N8 O16"
_cell_length_a       7.46446
_cell_length_b       13.3614
_cell_length_c       16.3734
_cell_angle_alpha    113.027
_cell_angle_beta     89.9946
_cell_angle_gamma    106.221

_space_group_name_H-M_alt    "P 1"
_space_group_IT_number       1

loop_
  _space_group_symop_operation_xyz
  'x, y, z'

loop_
  _atom_site_type_symbol
  _atom_site_label
  _atom_site_symmetry_multiplicity
  _atom_site_fract_x
  _atom_site_fract_y
  _atom_site_fract_z
  _atom_site_occupancy
  Zn  Zn1       1.0  0.62204  0.67363  0.82318  1.0000
  Zn  Zn2       1.0  0.94807  0.32631  0.67676  1.0000
  Zn  Zn3       1.0  0.37796  0.32637  0.17682  1.0000
  Zn  Zn4       1.0  0.05193  0.67369  0.32324  1.0000
  H   H1        1.0  0.96208  0.48744  0.34977  1.0000
  H   H2        1.0  0.47437  0.51253  0.15013  1.0000
  H   H3        1.0  0.03792  0.51256  0.65023  1.0000
  H   H4        1.0  0.52563  0.48747  0.84986  1.0000
  H   H5        1.0  0.79698  0.47275  0.27345  1.0000
  H   H6        1.0  0.32401  0.52728  0.22647  1.0000
  H   H7        1.0  0.20302  0.52725  0.72655  1.0000
  H   H8        1.0  0.67599  0.47272  0.77353  1.0000
  H   H9        1.0  0.45197  0.68699  0.58427  1.0000
  H   H10       1.0  0.76470  0.31294  0.91566  1.0000
  H   H11       1.0  0.54804  0.31302  0.41573  1.0000
  H   H12       1.0  0.23529  0.68706  0.08434  1.0000
  H   H13       1.0  0.58052  0.58892  0.31309  1.0000
  H   H14       1.0  0.99134  0.41102  0.18682  1.0000
  H   H15       1.0  0.41947  0.41108  0.68691  1.0000
  H   H16       1.0  0.00866  0.58898  0.81318  1.0000
  H   H17       1.0  0.92021  0.55671  0.50792  1.0000
  H   H18       1.0  0.36320  0.44332  0.99197  1.0000
  H   H19       1.0  0.07979  0.44329  0.49208  1.0000
  H   H20       1.0  0.63679  0.55668  0.00803  1.0000
  H   H21       1.0  0.78608  0.81850  0.01835  1.0000
  H   H22       1.0  0.96758  0.18149  0.48164  1.0000
  H   H23       1.0  0.21393  0.18150  0.98165  1.0000
  H   H24       1.0  0.03241  0.81851  0.51835  1.0000
  H   H25       1.0  0.11309  0.93078  0.09748  1.0000
  H   H26       1.0  0.18224  0.06917  0.40255  1.0000
  H   H27       1.0  0.88692  0.06921  0.90252  1.0000
  H   H28       1.0  0.81775  0.93084  0.59745  1.0000
  H   H29       1.0  0.29150  0.89770  0.83910  1.0000
  H   H30       1.0  0.39322  0.10197  0.66090  1.0000
  H   H31       1.0  0.70850  0.10230  0.16090  1.0000
  H   H32       1.0  0.60678  0.89803  0.33910  1.0000
  H   H33       1.0  0.96366  0.78772  0.77286  1.0000
  H   H34       1.0  0.17551  0.21210  0.72714  1.0000
  H   H35       1.0  0.03634  0.21228  0.22714  1.0000
  H   H36       1.0  0.82449  0.78790  0.27286  1.0000
  H   H37       1.0  0.43737  0.01839  0.09319  1.0000
  H   H38       1.0  0.41856  0.98133  0.40681  1.0000
  H   H39       1.0  0.56264  0.98161  0.90680  1.0000
  H   H40       1.0  0.58143  0.01867  0.59319  1.0000
  C   C1        1.0  0.69012  0.62262  0.55520  1.0000
  C   C2        1.0  0.06723  0.37739  0.94473  1.0000
  C   C3        1.0  0.30988  0.37738  0.44480  1.0000
  C   C4        1.0  0.93276  0.62260  0.05527  1.0000
  C   C5        1.0  0.53898  0.65385  0.53351  1.0000
  C   C6        1.0  0.88487  0.34609  0.96641  1.0000
  C   C7        1.0  0.46102  0.34616  0.46649  1.0000
  C   C8        1.0  0.11513  0.65390  0.03359  1.0000
  C   C9        1.0  0.49737  0.64040  0.44581  1.0000
  C   C10       1.0  0.85665  0.35954  0.05411  1.0000
  C   C11       1.0  0.50264  0.35961  0.55419  1.0000
  C   C12       1.0  0.14334  0.64046  0.94589  1.0000
  C   C13       1.0  0.60735  0.59565  0.38059  1.0000
  C   C14       1.0  0.01141  0.40430  0.11932  1.0000
  C   C15       1.0  0.39265  0.40435  0.61941  1.0000
  C   C16       1.0  0.98859  0.59570  0.88068  1.0000
  C   C17       1.0  0.75861  0.56444  0.40204  1.0000
  C   C18       1.0  0.19389  0.43561  0.09788  1.0000
  C   C19       1.0  0.24139  0.43556  0.59796  1.0000
  C   C20       1.0  0.80611  0.56439  0.90211  1.0000
  C   C21       1.0  0.80072  0.57839  0.48948  1.0000
  C   C22       1.0  0.22205  0.42163  0.01044  1.0000
  C   C23       1.0  0.19927  0.42161  0.51053  1.0000
  C   C24       1.0  0.77795  0.57837  0.98956  1.0000
  C   C25       1.0  0.73075  0.63220  0.64815  1.0000
  C   C26       1.0  0.09821  0.36777  0.85177  1.0000
  C   C27       1.0  0.26925  0.36780  0.35186  1.0000
  C   C28       1.0  0.90179  0.63223  0.14822  1.0000
  C   C29       1.0  0.33421  0.67219  0.42200  1.0000
  C   C30       1.0  0.66165  0.32773  0.07795  1.0000
  C   C31       1.0  0.66579  0.32782  0.57800  1.0000
  C   C32       1.0  0.33835  0.67227  0.92205  1.0000
  C   C33       1.0  0.90362  0.84068  0.98275  1.0000
  C   C34       1.0  0.06275  0.15921  0.51725  1.0000
  C   C35       1.0  0.09639  0.15932  0.01725  1.0000
  C   C36       1.0  0.93725  0.84079  0.48275  1.0000
  C   C37       1.0  0.08516  0.90234  0.02538  1.0000
  C   C38       1.0  0.18253  0.09748  0.47463  1.0000
  C   C39       1.0  0.91485  0.09765  0.97462  1.0000
  C   C40       1.0  0.81746  0.90252  0.52537  1.0000
  C   C41       1.0  0.23270  0.92586  0.97569  1.0000
  C   C42       1.0  0.30644  0.07391  0.52432  1.0000
  C   C43       1.0  0.76730  0.07414  0.02431  1.0000
  C   C44       1.0  0.69356  0.92609  0.47568  1.0000
  C   C45       1.0  0.18568  0.88514  0.88282  1.0000
  C   C46       1.0  0.30009  0.11463  0.61720  1.0000
  C   C47       1.0  0.81432  0.11486  0.11718  1.0000
  C   C48       1.0  0.69991  0.88537  0.38280  1.0000
  C   C49       1.0  0.00204  0.82428  0.84488  1.0000
  C   C50       1.0  0.17737  0.17555  0.65512  1.0000
  C   C51       1.0  0.99796  0.17572  0.15512  1.0000
  C   C52       1.0  0.82263  0.82445  0.34488  1.0000
  C   C53       1.0  0.42302  0.98854  0.02047  1.0000
  C   C54       1.0  0.43424  0.01130  0.47955  1.0000
  C   C55       1.0  0.57698  0.01146  0.97953  1.0000
  C   C56       1.0  0.56576  0.98870  0.52045  1.0000
  N   N1        1.0  0.87610  0.52790  0.33444  1.0000
  N   N2        1.0  0.34791  0.47212  0.16547  1.0000
  N   N3        1.0  0.12390  0.47211  0.66556  1.0000
  N   N4        1.0  0.65209  0.52788  0.83453  1.0000
  N   N5        1.0  0.86206  0.80145  0.89343  1.0000
  N   N6        1.0  0.06038  0.19846  0.60656  1.0000
  N   N7        1.0  0.13794  0.19855  0.10657  1.0000
  N   N8        1.0  0.93963  0.80154  0.39343  1.0000
  O   O1        1.0  0.62639  0.67931  0.70503  1.0000
  O   O2        1.0  0.94670  0.32067  0.79492  1.0000
  O   O3        1.0  0.37362  0.32069  0.29497  1.0000
  O   O4        1.0  0.05329  0.67933  0.20507  1.0000
  O   O5        1.0  0.85726  0.59662  0.66705  1.0000
  O   O6        1.0  0.26031  0.40328  0.83283  1.0000
  O   O7        1.0  0.14273  0.40338  0.33296  1.0000
  O   O8        1.0  0.73968  0.59672  0.16716  1.0000
  O   O9        1.0  0.30456  0.65730  0.33864  1.0000
  O   O10       1.0  0.64689  0.34270  0.16134  1.0000
  O   O11       1.0  0.69544  0.34270  0.66137  1.0000
  O   O12       1.0  0.35311  0.65730  0.83866  1.0000
  O   O13       1.0  0.23169  0.70998  0.47939  1.0000
  O   O14       1.0  0.52137  0.28989  0.02055  1.0000
  O   O15       1.0  0.76831  0.29002  0.52061  1.0000
  O   O16       1.0  0.47863  0.71011  0.97945  1.0000
