data_image0
_chemical_formula_structural       Zn2H24C42N24
_chemical_formula_sum              "Zn2 H24 C42 N24"
_cell_length_a       8.55775
_cell_length_b       8.80273
_cell_length_c       14.8599
_cell_angle_alpha    90.0002
_cell_angle_beta     90
_cell_angle_gamma    113.335

_space_group_name_H-M_alt    "P 1"
_space_group_IT_number       1

loop_
  _space_group_symop_operation_xyz
  'x, y, z'

loop_
  _atom_site_type_symbol
  _atom_site_label
  _atom_site_symmetry_multiplicity
  _atom_site_fract_x
  _atom_site_fract_y
  _atom_site_fract_z
  _atom_site_occupancy
  Zn  Zn1       1.0  0.67635  0.53813  0.93790  1.0000
  Zn  Zn2       1.0  0.32365  0.46187  0.43790  1.0000
  H   H1        1.0  0.39406  0.95985  0.15236  1.0000
  H   H2        1.0  0.60594  0.04015  0.65236  1.0000
  H   H3        1.0  0.70839  0.04877  0.13067  1.0000
  H   H4        1.0  0.29160  0.95122  0.63066  1.0000
  H   H5        1.0  0.81283  0.87270  0.03746  1.0000
  H   H6        1.0  0.18716  0.12730  0.53746  1.0000
  H   H7        1.0  0.32248  0.53837  0.98251  1.0000
  H   H8        1.0  0.67752  0.46163  0.48251  1.0000
  H   H9        1.0  0.66251  0.30874  0.18267  1.0000
  H   H10       1.0  0.33749  0.69126  0.68268  1.0000
  H   H11       1.0  0.44341  0.25803  0.30248  1.0000
  H   H12       1.0  0.55659  0.74197  0.80248  1.0000
  H   H13       1.0  0.59037  0.76001  0.34818  1.0000
  H   H14       1.0  0.40964  0.23999  0.84818  1.0000
  H   H15       1.0  0.81135  0.83319  0.22902  1.0000
  H   H16       1.0  0.18866  0.16680  0.72902  1.0000
  H   H17       1.0  0.10206  0.95125  0.25000  1.0000
  H   H18       1.0  0.89795  0.04875  0.75000  1.0000
  H   H19       1.0  0.19435  0.99034  0.41078  1.0000
  H   H20       1.0  0.80565  0.00966  0.91078  1.0000
  H   H21       1.0  0.27385  0.77377  0.48504  1.0000
  H   H22       1.0  0.72616  0.22623  0.98504  1.0000
  H   H23       1.0  0.16320  0.48663  0.25386  1.0000
  H   H24       1.0  0.83680  0.51337  0.75387  1.0000
  C   C1        1.0  0.44289  0.88680  0.11064  1.0000
  C   C2        1.0  0.55711  0.11320  0.61064  1.0000
  C   C3        1.0  0.61751  0.93687  0.09905  1.0000
  C   C4        1.0  0.38249  0.06313  0.59905  1.0000
  C   C5        1.0  0.67675  0.83925  0.04719  1.0000
  C   C6        1.0  0.32324  0.16075  0.54719  1.0000
  C   C7        1.0  0.40420  0.65209  0.01630  1.0000
  C   C8        1.0  0.59580  0.34791  0.51630  1.0000
  C   C9        1.0  0.33304  0.74210  0.06760  1.0000
  C   C10       1.0  0.66696  0.25790  0.56760  1.0000
  C   C11       1.0  0.14801  0.68193  0.07393  1.0000
  C   C12       1.0  0.85199  0.31807  0.57393  1.0000
  C   C13       1.0  0.89015  0.61053  0.12842  1.0000
  C   C14       1.0  0.10985  0.38947  0.62842  1.0000
  C   C15       1.0  0.75298  0.57551  0.19477  1.0000
  C   C16       1.0  0.24702  0.42449  0.69477  1.0000
  C   C17       1.0  0.64714  0.41209  0.21579  1.0000
  C   C18       1.0  0.35286  0.58791  0.71579  1.0000
  C   C19       1.0  0.52598  0.38362  0.28334  1.0000
  C   C20       1.0  0.47401  0.61638  0.78334  1.0000
  C   C21       1.0  0.60946  0.66429  0.30902  1.0000
  C   C22       1.0  0.39054  0.33571  0.80902  1.0000
  C   C23       1.0  0.73292  0.70391  0.24242  1.0000
  C   C24       1.0  0.26708  0.29609  0.74242  1.0000
  C   C25       1.0  0.12333  0.71459  0.24184  1.0000
  C   C26       1.0  0.87667  0.28541  0.74184  1.0000
  C   C27       1.0  0.13298  0.85832  0.28532  1.0000
  C   C28       1.0  0.86703  0.14168  0.78532  1.0000
  C   C29       1.0  0.18544  0.88019  0.37451  1.0000
  C   C30       1.0  0.81456  0.11982  0.87451  1.0000
  C   C31       1.0  0.23052  0.76136  0.41546  1.0000
  C   C32       1.0  0.76948  0.23864  0.91546  1.0000
  C   C33       1.0  0.17145  0.60077  0.28651  1.0000
  C   C34       1.0  0.82856  0.39923  0.78651  1.0000
  C   C35       1.0  0.99312  0.83127  0.86308  1.0000
  C   C36       1.0  0.00687  0.16872  0.36307  1.0000
  C   C37       1.0  0.28388  0.93053  0.83300  1.0000
  C   C38       1.0  0.71611  0.06946  0.33299  1.0000
  C   C39       1.0  0.36859  0.26378  0.05185  1.0000
  C   C40       1.0  0.63141  0.73623  0.55185  1.0000
  C   C41       1.0  0.11050  0.22232  0.11674  1.0000
  C   C42       1.0  0.88949  0.77768  0.61675  1.0000
  N   N1        1.0  0.57240  0.69834  0.00738  1.0000
  N   N2        1.0  0.42760  0.30166  0.50737  1.0000
  N   N3        1.0  0.03987  0.62185  0.00670  1.0000
  N   N4        1.0  0.96012  0.37814  0.50670  1.0000
  N   N5        1.0  0.87884  0.57783  0.04089  1.0000
  N   N6        1.0  0.12116  0.42216  0.54089  1.0000
  N   N7        1.0  0.05932  0.67935  0.15199  1.0000
  N   N8        1.0  0.94068  0.32065  0.65199  1.0000
  N   N9        1.0  0.50829  0.50725  0.32937  1.0000
  N   N10       1.0  0.49171  0.49275  0.82937  1.0000
  N   N11       1.0  0.22653  0.62638  0.37179  1.0000
  N   N12       1.0  0.77347  0.37363  0.87179  1.0000
  N   N13       1.0  0.84585  0.74588  0.86745  1.0000
  N   N14       1.0  0.15415  0.25413  0.36745  1.0000
  N   N15       1.0  0.14507  0.94188  0.86167  1.0000
  N   N16       1.0  0.85492  0.05812  0.36167  1.0000
  N   N17       1.0  0.41953  0.94163  0.80895  1.0000
  N   N18       1.0  0.58046  0.05837  0.30895  1.0000
  N   N19       1.0  0.49568  0.33121  0.01058  1.0000
  N   N20       1.0  0.50432  0.66879  0.51057  1.0000
  N   N21       1.0  0.23695  0.17884  0.09947  1.0000
  N   N22       1.0  0.76305  0.82117  0.59948  1.0000
  N   N23       1.0  0.99080  0.25015  0.13691  1.0000
  N   N24       1.0  0.00920  0.74985  0.63691  1.0000
