data_image0
_chemical_formula_structural       Cu2H12C16N4Cl4
_chemical_formula_sum              "Cu2 H12 C16 N4 Cl4"
_cell_length_a       6.91158
_cell_length_b       7.71928
_cell_length_c       9.1871
_cell_angle_alpha    104.688
_cell_angle_beta     89.9854
_cell_angle_gamma    116.671

_space_group_name_H-M_alt    "P 1"
_space_group_IT_number       1

loop_
  _space_group_symop_operation_xyz
  'x, y, z'

loop_
  _atom_site_type_symbol
  _atom_site_label
  _atom_site_symmetry_multiplicity
  _atom_site_fract_x
  _atom_site_fract_y
  _atom_site_fract_z
  _atom_site_occupancy
  Cu  Cu1       1.0  0.53827  0.07649  0.32855  1.0000
  Cu  Cu2       1.0  0.46173  0.92351  0.67145  1.0000
  H   H1        1.0  0.33600  0.31056  0.50451  1.0000
  H   H2        1.0  0.02485  0.68946  0.49546  1.0000
  H   H3        1.0  0.66398  0.68944  0.49550  1.0000
  H   H4        1.0  0.97513  0.31054  0.50454  1.0000
  H   H5        1.0  0.96486  0.57054  0.86268  1.0000
  H   H6        1.0  0.39528  0.42910  0.13745  1.0000
  H   H7        1.0  0.03515  0.42946  0.13732  1.0000
  H   H8        1.0  0.60474  0.57090  0.86255  1.0000
  H   H9        1.0  0.26152  0.80299  0.07310  1.0000
  H   H10       1.0  0.45902  0.19665  0.92716  1.0000
  H   H11       1.0  0.73849  0.19701  0.92691  1.0000
  H   H12       1.0  0.54098  0.80333  0.07284  1.0000
  C   C1        1.0  0.20276  0.20113  0.41514  1.0000
  C   C2        1.0  0.00126  0.79883  0.58486  1.0000
  C   C3        1.0  0.79723  0.79887  0.58486  1.0000
  C   C4        1.0  0.99873  0.20117  0.41514  1.0000
  C   C5        1.0  0.07089  0.93364  0.19632  1.0000
  C   C6        1.0  0.13758  0.06629  0.80374  1.0000
  C   C7        1.0  0.92911  0.06637  0.80368  1.0000
  C   C8        1.0  0.86242  0.93372  0.19626  1.0000
  C   C9        1.0  0.93674  0.67018  0.95770  1.0000
  C   C10       1.0  0.26734  0.32964  0.04236  1.0000
  C   C11       1.0  0.06326  0.32983  0.04229  1.0000
  C   C12       1.0  0.73267  0.67036  0.95764  1.0000
  C   C13       1.0  0.10260  0.79945  0.07466  1.0000
  C   C14       1.0  0.30369  0.20030  0.92550  1.0000
  C   C15       1.0  0.89741  0.20056  0.92534  1.0000
  C   C16       1.0  0.69630  0.79969  0.07449  1.0000
  N   N1        1.0  0.23688  0.06780  0.31046  1.0000
  N   N2        1.0  0.16902  0.93209  0.68956  1.0000
  N   N3        1.0  0.76313  0.93221  0.68955  1.0000
  N   N4        1.0  0.83098  0.06791  0.31043  1.0000
  Cl  Cl1       1.0  0.62000  0.23957  0.63313  1.0000
  Cl  Cl2       1.0  0.37999  0.76043  0.36688  1.0000
  Cl  Cl3       1.0  0.68859  0.37639  0.27400  1.0000
  Cl  Cl4       1.0  0.31141  0.62361  0.72600  1.0000
