data_image0
_chemical_formula_structural       FeH20PtC28N16
_chemical_formula_sum              "Fe1 H20 Pt1 C28 N16"
_cell_length_a       8.42568
_cell_length_b       8.94354
_cell_length_c       9.9332
_cell_angle_alpha    84.4325
_cell_angle_beta     64.9982
_cell_angle_gamma    89.2153

_space_group_name_H-M_alt    "P 1"
_space_group_IT_number       1

loop_
  _space_group_symop_operation_xyz
  'x, y, z'

loop_
  _atom_site_type_symbol
  _atom_site_label
  _atom_site_symmetry_multiplicity
  _atom_site_fract_x
  _atom_site_fract_y
  _atom_site_fract_z
  _atom_site_occupancy
  Fe  Fe1       1.0  0.00000  0.00000  1.00000  1.0000
  H   H1        1.0  0.21216  0.90830  0.17912  1.0000
  H   H2        1.0  0.78784  0.09170  0.82087  1.0000
  H   H3        1.0  0.44812  0.03333  0.22104  1.0000
  H   H4        1.0  0.55189  0.96667  0.77896  1.0000
  H   H5        1.0  0.56294  0.29038  0.09072  1.0000
  H   H6        1.0  0.43706  0.70962  0.90928  1.0000
  H   H7        1.0  0.42227  0.41707  0.93123  1.0000
  H   H8        1.0  0.57774  0.58293  0.06877  1.0000
  H   H9        1.0  0.74149  0.39446  0.69427  1.0000
  H   H10       1.0  0.25851  0.60554  0.30573  1.0000
  H   H11       1.0  0.67271  0.59487  0.53656  1.0000
  H   H12       1.0  0.32728  0.40513  0.46344  1.0000
  H   H13       1.0  0.84091  0.84187  0.46564  1.0000
  H   H14       1.0  0.15908  0.15813  0.53436  1.0000
  H   H15       1.0  0.06817  0.87843  0.56248  1.0000
  H   H16       1.0  0.93182  0.12157  0.43752  1.0000
  H   H17       1.0  0.22069  0.62538  0.73279  1.0000
  H   H18       1.0  0.77932  0.37462  0.26721  1.0000
  H   H19       1.0  0.37720  0.49517  0.70113  1.0000
  H   H20       1.0  0.62280  0.50483  0.29887  1.0000
  Pt  Pt1       1.0  0.50000  0.00000  0.50000  1.0000
  C   C1        1.0  0.70721  0.03257  0.30646  1.0000
  C   C2        1.0  0.29279  0.96743  0.69354  1.0000
  C   C3        1.0  0.25994  0.02207  0.12937  1.0000
  C   C4        1.0  0.74006  0.97793  0.87063  1.0000
  C   C5        1.0  0.39331  0.09226  0.15005  1.0000
  C   C6        1.0  0.60670  0.90774  0.84995  1.0000
  C   C7        1.0  0.51861  0.20392  0.55628  1.0000
  C   C8        1.0  0.48139  0.79608  0.44372  1.0000
  C   C9        1.0  0.45616  0.23504  0.07816  1.0000
  C   C10       1.0  0.54384  0.76496  0.92183  1.0000
  C   C11       1.0  0.38051  0.30515  0.98903  1.0000
  C   C12       1.0  0.61949  0.69485  0.01097  1.0000
  C   C13       1.0  0.24416  0.23016  0.97627  1.0000
  C   C14       1.0  0.75584  0.76984  0.02373  1.0000
  C   C15       1.0  0.13801  0.28976  0.90335  1.0000
  C   C16       1.0  0.86199  0.71024  0.09665  1.0000
  C   C17       1.0  0.99106  0.41747  0.79698  1.0000
  C   C18       1.0  0.00894  0.58253  0.20302  1.0000
  C   C19       1.0  0.94011  0.53393  0.71131  1.0000
  C   C20       1.0  0.05988  0.46607  0.28869  1.0000
  C   C21       1.0  0.80921  0.50374  0.66475  1.0000
  C   C22       1.0  0.19079  0.49626  0.33525  1.0000
  C   C23       1.0  0.77227  0.61552  0.57590  1.0000
  C   C24       1.0  0.22772  0.38448  0.42410  1.0000
  C   C25       1.0  0.86627  0.75247  0.53601  1.0000
  C   C26       1.0  0.13372  0.24753  0.46399  1.0000
  C   C27       1.0  0.99242  0.77290  0.58934  1.0000
  C   C28       1.0  0.00758  0.22710  0.41066  1.0000
  N   N1        1.0  0.82546  0.03526  0.18865  1.0000
  N   N2        1.0  0.17453  0.96474  0.81136  1.0000
  N   N3        1.0  0.18594  0.08807  0.04364  1.0000
  N   N4        1.0  0.81406  0.91193  0.95636  1.0000
  N   N5        1.0  0.00040  0.20566  0.91698  1.0000
  N   N6        1.0  0.99960  0.79435  0.08302  1.0000
  N   N7        1.0  0.51976  0.32383  0.59471  1.0000
  N   N8        1.0  0.48024  0.67618  0.40529  1.0000
  N   N9        1.0  0.90738  0.28434  0.85401  1.0000
  N   N10       1.0  0.09262  0.71566  0.14599  1.0000
  N   N11       1.0  0.13706  0.42383  0.82620  1.0000
  N   N12       1.0  0.86294  0.57617  0.17380  1.0000
  N   N13       1.0  0.26645  0.53781  0.78167  1.0000
  N   N14       1.0  0.73355  0.46219  0.21833  1.0000
  N   N15       1.0  0.02889  0.66703  0.67607  1.0000
  N   N16       1.0  0.97111  0.33297  0.32393  1.0000
