data_image0
_chemical_formula_structural       Cu8Mo12H16C16N8O40
_chemical_formula_sum              "Cu8 Mo12 H16 C16 N8 O40"
_cell_length_a       7.62393
_cell_length_b       12.3874
_cell_length_c       12.748
_cell_angle_alpha    90
_cell_angle_beta     90
_cell_angle_gamma    90

_space_group_name_H-M_alt    "P 1"
_space_group_IT_number       1

loop_
  _space_group_symop_operation_xyz
  'x, y, z'

loop_
  _atom_site_type_symbol
  _atom_site_label
  _atom_site_symmetry_multiplicity
  _atom_site_fract_x
  _atom_site_fract_y
  _atom_site_fract_z
  _atom_site_occupancy
  Cu  Cu1       1.0  0.25000  0.76912  0.78654  1.0000
  Cu  Cu2       1.0  0.75000  0.73088  0.28654  1.0000
  Cu  Cu3       1.0  0.75000  0.23088  0.21346  1.0000
  Cu  Cu4       1.0  0.25000  0.26912  0.71346  1.0000
  Cu  Cu5       1.0  0.25000  0.38988  0.17341  1.0000
  Cu  Cu6       1.0  0.75000  0.11012  0.67341  1.0000
  Cu  Cu7       1.0  0.75000  0.61013  0.82659  1.0000
  Cu  Cu8       1.0  0.25000  0.88988  0.32660  1.0000
  Mo  Mo1       1.0  0.25000  0.66367  0.51540  1.0000
  Mo  Mo2       1.0  0.75000  0.83633  0.01540  1.0000
  Mo  Mo3       1.0  0.75000  0.33633  0.48460  1.0000
  Mo  Mo4       1.0  0.25000  0.16367  0.98460  1.0000
  Mo  Mo5       1.0  0.99895  0.98700  0.86302  1.0000
  Mo  Mo6       1.0  0.00105  0.51300  0.36302  1.0000
  Mo  Mo7       1.0  0.49895  0.01300  0.13698  1.0000
  Mo  Mo8       1.0  0.50105  0.48700  0.63698  1.0000
  Mo  Mo9       1.0  0.00105  0.01300  0.13698  1.0000
  Mo  Mo10      1.0  0.99895  0.48700  0.63698  1.0000
  Mo  Mo11      1.0  0.50105  0.98700  0.86302  1.0000
  Mo  Mo12      1.0  0.49895  0.51300  0.36302  1.0000
  H   H1        1.0  0.25000  0.53227  0.80386  1.0000
  H   H2        1.0  0.75000  0.96773  0.30386  1.0000
  H   H3        1.0  0.75000  0.46773  0.19614  1.0000
  H   H4        1.0  0.25000  0.03227  0.69614  1.0000
  H   H5        1.0  0.25000  0.39697  0.94704  1.0000
  H   H6        1.0  0.75000  0.10303  0.44704  1.0000
  H   H7        1.0  0.75000  0.60303  0.05296  1.0000
  H   H8        1.0  0.25000  0.89697  0.55296  1.0000
  H   H9        1.0  0.25000  0.64550  0.16820  1.0000
  H   H10       1.0  0.75000  0.85450  0.66821  1.0000
  H   H11       1.0  0.75000  0.35450  0.83180  1.0000
  H   H12       1.0  0.25000  0.14550  0.33180  1.0000
  H   H13       1.0  0.25000  0.78144  0.02265  1.0000
  H   H14       1.0  0.75000  0.71855  0.52265  1.0000
  H   H15       1.0  0.75000  0.21855  0.97735  1.0000
  H   H16       1.0  0.25000  0.28145  0.47735  1.0000
  C   C1        1.0  0.25000  0.55820  0.88490  1.0000
  C   C2        1.0  0.75000  0.94180  0.38490  1.0000
  C   C3        1.0  0.75000  0.44180  0.11510  1.0000
  C   C4        1.0  0.25000  0.05820  0.61510  1.0000
  C   C5        1.0  0.25000  0.48286  0.96503  1.0000
  C   C6        1.0  0.75000  0.01714  0.46502  1.0000
  C   C7        1.0  0.75000  0.51714  0.03497  1.0000
  C   C8        1.0  0.25000  0.98286  0.53498  1.0000
  C   C9        1.0  0.25000  0.61961  0.08657  1.0000
  C   C10       1.0  0.75000  0.88039  0.58657  1.0000
  C   C11       1.0  0.75000  0.38039  0.91342  1.0000
  C   C12       1.0  0.25000  0.11961  0.41343  1.0000
  C   C13       1.0  0.25000  0.69545  0.00583  1.0000
  C   C14       1.0  0.75000  0.80455  0.50583  1.0000
  C   C15       1.0  0.75000  0.30455  0.99417  1.0000
  C   C16       1.0  0.25000  0.19545  0.49417  1.0000
  N   N1        1.0  0.25000  0.66535  0.90387  1.0000
  N   N2        1.0  0.75000  0.83464  0.40387  1.0000
  N   N3        1.0  0.75000  0.33465  0.09613  1.0000
  N   N4        1.0  0.25000  0.16536  0.59613  1.0000
  N   N5        1.0  0.25000  0.51254  0.06688  1.0000
  N   N6        1.0  0.75000  0.98746  0.56689  1.0000
  N   N7        1.0  0.75000  0.48746  0.93312  1.0000
  N   N8        1.0  0.25000  0.01254  0.43312  1.0000
  O   O1        1.0  0.25000  0.51634  0.61519  1.0000
  O   O2        1.0  0.75000  0.98366  0.11519  1.0000
  O   O3        1.0  0.75000  0.48366  0.38481  1.0000
  O   O4        1.0  0.25000  0.01634  0.88481  1.0000
  O   O5        1.0  0.48741  0.60735  0.50980  1.0000
  O   O6        1.0  0.51259  0.89265  0.00981  1.0000
  O   O7        1.0  0.98741  0.39265  0.49020  1.0000
  O   O8        1.0  0.01259  0.10735  0.99020  1.0000
  O   O9        1.0  0.51259  0.39265  0.49020  1.0000
  O   O10       1.0  0.48741  0.10735  0.99020  1.0000
  O   O11       1.0  0.01259  0.60735  0.50980  1.0000
  O   O12       1.0  0.98741  0.89265  0.00981  1.0000
  O   O13       1.0  0.25000  0.53771  0.39162  1.0000
  O   O14       1.0  0.75000  0.96230  0.89162  1.0000
  O   O15       1.0  0.75000  0.46230  0.60838  1.0000
  O   O16       1.0  0.25000  0.03770  0.10838  1.0000
  O   O17       1.0  0.25000  0.73728  0.63244  1.0000
  O   O18       1.0  0.75000  0.76272  0.13244  1.0000
  O   O19       1.0  0.75000  0.26272  0.36756  1.0000
  O   O20       1.0  0.25000  0.23728  0.86756  1.0000
  O   O21       1.0  0.25000  0.26292  0.08288  1.0000
  O   O22       1.0  0.75000  0.23707  0.58288  1.0000
  O   O23       1.0  0.75000  0.73708  0.91712  1.0000
  O   O24       1.0  0.25000  0.76293  0.41712  1.0000
  O   O25       1.0  0.04927  0.87219  0.78898  1.0000
  O   O26       1.0  0.95073  0.62781  0.28898  1.0000
  O   O27       1.0  0.54927  0.12781  0.21102  1.0000
  O   O28       1.0  0.45073  0.37219  0.71103  1.0000
  O   O29       1.0  0.95073  0.12780  0.21103  1.0000
  O   O30       1.0  0.04927  0.37219  0.71102  1.0000
  O   O31       1.0  0.45073  0.87219  0.78898  1.0000
  O   O32       1.0  0.54927  0.62781  0.28898  1.0000
  O   O33       1.0  0.05376  0.41439  0.26921  1.0000
  O   O34       1.0  0.94624  0.08561  0.76921  1.0000
  O   O35       1.0  0.55376  0.58561  0.73079  1.0000
  O   O36       1.0  0.44624  0.91439  0.23079  1.0000
  O   O37       1.0  0.94625  0.58561  0.73079  1.0000
  O   O38       1.0  0.05376  0.91439  0.23079  1.0000
  O   O39       1.0  0.44624  0.41439  0.26921  1.0000
  O   O40       1.0  0.55376  0.08561  0.76921  1.0000
