data_image0
_chemical_formula_structural       K4Si4B4H76C28N4
_chemical_formula_sum              "K4 Si4 B4 H76 C28 N4"
_cell_length_a       5.9822
_cell_length_b       11.3892
_cell_length_c       15.5721
_cell_angle_alpha    90.0009
_cell_angle_beta     90.0006
_cell_angle_gamma    90.0003

_space_group_name_H-M_alt    "P 1"
_space_group_IT_number       1

loop_
  _space_group_symop_operation_xyz
  'x, y, z'

loop_
  _atom_site_type_symbol
  _atom_site_label
  _atom_site_symmetry_multiplicity
  _atom_site_fract_x
  _atom_site_fract_y
  _atom_site_fract_z
  _atom_site_occupancy
  K   K1        1.0  0.45728  0.19546  0.58566  1.0000
  K   K2        1.0  0.04270  0.80453  0.08566  1.0000
  K   K3        1.0  0.54275  0.69544  0.91434  1.0000
  K   K4        1.0  0.95727  0.30454  0.41435  1.0000
  Si  Si1       1.0  0.87705  0.03279  0.71423  1.0000
  Si  Si2       1.0  0.62293  0.96722  0.21422  1.0000
  Si  Si3       1.0  0.12292  0.53278  0.78577  1.0000
  Si  Si4       1.0  0.37708  0.46723  0.28578  1.0000
  B   B1        1.0  0.91787  0.10245  0.54106  1.0000
  B   B2        1.0  0.58214  0.89754  0.04106  1.0000
  B   B3        1.0  0.08215  0.60244  0.95894  1.0000
  B   B4        1.0  0.41788  0.39756  0.45894  1.0000
  H   H1        1.0  0.60477  0.92495  0.52056  1.0000
  H   H2        1.0  0.89522  0.07506  0.02056  1.0000
  H   H3        1.0  0.39525  0.42492  0.97942  1.0000
  H   H4        1.0  0.10478  0.57507  0.47945  1.0000
  H   H5        1.0  0.77479  0.13201  0.48608  1.0000
  H   H6        1.0  0.72523  0.86799  0.98607  1.0000
  H   H7        1.0  0.22525  0.63200  0.01392  1.0000
  H   H8        1.0  0.27480  0.36800  0.51392  1.0000
  H   H9        1.0  0.65720  0.85199  0.61874  1.0000
  H   H10       1.0  0.84279  0.14802  0.11874  1.0000
  H   H11       1.0  0.34278  0.35198  0.88124  1.0000
  H   H12       1.0  0.15723  0.64803  0.38127  1.0000
  H   H13       1.0  0.86830  0.75907  0.50094  1.0000
  H   H14       1.0  0.63167  0.24092  0.00093  1.0000
  H   H15       1.0  0.13170  0.25905  0.99903  1.0000
  H   H16       1.0  0.36830  0.74093  0.49907  1.0000
  H   H17       1.0  0.98207  0.19461  0.57687  1.0000
  H   H18       1.0  0.51796  0.80538  0.07686  1.0000
  H   H19       1.0  0.01794  0.69460  0.92314  1.0000
  H   H20       1.0  0.48208  0.30540  0.42313  1.0000
  H   H21       1.0  0.05754  0.82376  0.57464  1.0000
  H   H22       1.0  0.44244  0.17624  0.07463  1.0000
  H   H23       1.0  0.94246  0.32375  0.92534  1.0000
  H   H24       1.0  0.55755  0.67626  0.42537  1.0000
  H   H25       1.0  0.90027  0.93383  0.40559  1.0000
  H   H26       1.0  0.59973  0.06616  0.90558  1.0000
  H   H27       1.0  0.09977  0.43379  0.09440  1.0000
  H   H28       1.0  0.40029  0.56618  0.59442  1.0000
  H   H29       1.0  0.16293  0.86683  0.42125  1.0000
  H   H30       1.0  0.33704  0.13315  0.92124  1.0000
  H   H31       1.0  0.83710  0.36681  0.07875  1.0000
  H   H32       1.0  0.66295  0.63317  0.57876  1.0000
  H   H33       1.0  0.19277  0.08547  0.43588  1.0000
  H   H34       1.0  0.30723  0.91450  0.93587  1.0000
  H   H35       1.0  0.80730  0.58546  0.06414  1.0000
  H   H36       1.0  0.69278  0.41453  0.56412  1.0000
  H   H37       1.0  0.25882  0.01150  0.53207  1.0000
  H   H38       1.0  0.24119  0.98848  0.03206  1.0000
  H   H39       1.0  0.74120  0.51149  0.96795  1.0000
  H   H40       1.0  0.75883  0.48851  0.46794  1.0000
  H   H41       1.0  0.59225  0.17790  0.77067  1.0000
  H   H42       1.0  0.90770  0.82210  0.27067  1.0000
  H   H43       1.0  0.40769  0.67792  0.72933  1.0000
  H   H44       1.0  0.09230  0.32211  0.22934  1.0000
  H   H45       1.0  0.81631  0.24974  0.71569  1.0000
  H   H46       1.0  0.68365  0.75026  0.21568  1.0000
  H   H47       1.0  0.18364  0.74975  0.78432  1.0000
  H   H48       1.0  0.31636  0.25027  0.28432  1.0000
  H   H49       1.0  0.85327  0.19672  0.82123  1.0000
  H   H50       1.0  0.64668  0.80328  0.32122  1.0000
  H   H51       1.0  0.14667  0.69673  0.67878  1.0000
  H   H52       1.0  0.35332  0.30329  0.17877  1.0000
  H   H53       1.0  0.79934  0.91617  0.84569  1.0000
  H   H54       1.0  0.70065  0.08385  0.34570  1.0000
  H   H55       1.0  0.20062  0.41616  0.65429  1.0000
  H   H56       1.0  0.29937  0.58384  0.15431  1.0000
  H   H57       1.0  0.83086  0.82266  0.75509  1.0000
  H   H58       1.0  0.66913  0.17735  0.25509  1.0000
  H   H59       1.0  0.16912  0.32265  0.74490  1.0000
  H   H60       1.0  0.33088  0.67736  0.24492  1.0000
  H   H61       1.0  0.57550  0.90090  0.77087  1.0000
  H   H62       1.0  0.92448  0.09910  0.27087  1.0000
  H   H63       1.0  0.42447  0.40089  0.72911  1.0000
  H   H64       1.0  0.07553  0.59911  0.22914  1.0000
  H   H65       1.0  0.28188  0.97934  0.68791  1.0000
  H   H66       1.0  0.21809  0.02068  0.18790  1.0000
  H   H67       1.0  0.71809  0.47931  0.81210  1.0000
  H   H68       1.0  0.78192  0.52069  0.31210  1.0000
  H   H69       1.0  0.25598  0.12277  0.73355  1.0000
  H   H70       1.0  0.24399  0.87726  0.23354  1.0000
  H   H71       1.0  0.74397  0.62274  0.76646  1.0000
  H   H72       1.0  0.75603  0.37727  0.26646  1.0000
  H   H73       1.0  0.22714  0.99870  0.79909  1.0000
  H   H74       1.0  0.27282  0.00135  0.29908  1.0000
  H   H75       1.0  0.77280  0.49865  0.70092  1.0000
  H   H76       1.0  0.72721  0.50134  0.20092  1.0000
  C   C1        1.0  0.73485  0.90893  0.56998  1.0000
  C   C2        1.0  0.76514  0.09107  0.06998  1.0000
  C   C3        1.0  0.26514  0.40891  0.93001  1.0000
  C   C4        1.0  0.23487  0.59108  0.43003  1.0000
  C   C5        1.0  0.92803  0.84365  0.52621  1.0000
  C   C6        1.0  0.57196  0.15634  0.02620  1.0000
  C   C7        1.0  0.07198  0.34364  0.97378  1.0000
  C   C8        1.0  0.42804  0.65635  0.47380  1.0000
  C   C9        1.0  0.03051  0.91702  0.45406  1.0000
  C   C10       1.0  0.46948  0.08297  0.95405  1.0000
  C   C11       1.0  0.96951  0.41700  0.04593  1.0000
  C   C12       1.0  0.53053  0.58298  0.54595  1.0000
  C   C13       1.0  0.11774  0.03416  0.48913  1.0000
  C   C14       1.0  0.38226  0.96582  0.98913  1.0000
  C   C15       1.0  0.88230  0.53414  0.01087  1.0000
  C   C16       1.0  0.61775  0.46585  0.51087  1.0000
  C   C17       1.0  0.77344  0.17712  0.75924  1.0000
  C   C18       1.0  0.72651  0.82288  0.25924  1.0000
  C   C19       1.0  0.22649  0.67713  0.74076  1.0000
  C   C20       1.0  0.27350  0.32289  0.24076  1.0000
  C   C21       1.0  0.75808  0.90588  0.77725  1.0000
  C   C22       1.0  0.74190  0.09413  0.27725  1.0000
  C   C23       1.0  0.24189  0.40587  0.72274  1.0000
  C   C24       1.0  0.25812  0.59414  0.22276  1.0000
  C   C25       1.0  0.18949  0.03288  0.73466  1.0000
  C   C26       1.0  0.31048  0.96715  0.23465  1.0000
  C   C27       1.0  0.81047  0.53284  0.76535  1.0000
  C   C28       1.0  0.68953  0.46715  0.26536  1.0000
  N   N1        1.0  0.80133  0.02173  0.60751  1.0000
  N   N2        1.0  0.69867  0.97827  0.10751  1.0000
  N   N3        1.0  0.19869  0.52172  0.89248  1.0000
  N   N4        1.0  0.30134  0.47828  0.39249  1.0000
