data_image0
_chemical_formula_structural       Ba2H16C8N24O10
_chemical_formula_sum              "Ba2 H16 C8 N24 O10"
_cell_length_a       7.18601
_cell_length_b       8.60672
_cell_length_c       10.9695
_cell_angle_alpha    95.8812
_cell_angle_beta     109.115
_cell_angle_gamma    90.0136

_space_group_name_H-M_alt    "P 1"
_space_group_IT_number       1

loop_
  _space_group_symop_operation_xyz
  'x, y, z'

loop_
  _atom_site_type_symbol
  _atom_site_label
  _atom_site_symmetry_multiplicity
  _atom_site_fract_x
  _atom_site_fract_y
  _atom_site_fract_z
  _atom_site_occupancy
  Ba  Ba1       1.0  0.38264  0.24997  0.99997  1.0000
  Ba  Ba2       1.0  0.61737  0.75003  0.00002  1.0000
  H   H1        1.0  0.15063  0.22803  0.55678  1.0000
  H   H2        1.0  0.59352  0.27210  0.44312  1.0000
  H   H3        1.0  0.84937  0.77198  0.44322  1.0000
  H   H4        1.0  0.40648  0.72791  0.55687  1.0000
  H   H5        1.0  0.25832  0.31089  0.45016  1.0000
  H   H6        1.0  0.80783  0.18931  0.54969  1.0000
  H   H7        1.0  0.74167  0.68911  0.54984  1.0000
  H   H8        1.0  0.19217  0.81070  0.45031  1.0000
  H   H9        1.0  0.29373  0.10957  0.47744  1.0000
  H   H10       1.0  0.81601  0.39061  0.52238  1.0000
  H   H11       1.0  0.70627  0.89043  0.52256  1.0000
  H   H12       1.0  0.18399  0.60940  0.47762  1.0000
  H   H13       1.0  0.92975  0.33332  0.03317  1.0000
  H   H14       1.0  0.89640  0.16651  0.96672  1.0000
  H   H15       1.0  0.07025  0.66669  0.96683  1.0000
  H   H16       1.0  0.10361  0.83349  0.03328  1.0000
  C   C1        1.0  0.89371  0.25629  0.27739  1.0000
  C   C2        1.0  0.61624  0.24382  0.72259  1.0000
  C   C3        1.0  0.10630  0.74371  0.72261  1.0000
  C   C4        1.0  0.38376  0.75619  0.27741  1.0000
  C   C5        1.0  0.19178  0.20539  0.46885  1.0000
  C   C6        1.0  0.72263  0.29481  0.53102  1.0000
  C   C7        1.0  0.80822  0.79461  0.53115  1.0000
  C   C8        1.0  0.27736  0.70519  0.46897  1.0000
  N   N1        1.0  0.01874  0.16160  0.35642  1.0000
  N   N2        1.0  0.66214  0.33853  0.64352  1.0000
  N   N3        1.0  0.98126  0.83840  0.64358  1.0000
  N   N4        1.0  0.33787  0.66147  0.35648  1.0000
  N   N5        1.0  0.96168  0.01180  0.31222  1.0000
  N   N6        1.0  0.64926  0.48832  0.68772  1.0000
  N   N7        1.0  0.03832  0.98821  0.68778  1.0000
  N   N8        1.0  0.35074  0.51168  0.31228  1.0000
  N   N9        1.0  0.80627  0.01501  0.20923  1.0000
  N   N10       1.0  0.59694  0.48507  0.79075  1.0000
  N   N11       1.0  0.19373  0.98500  0.79077  1.0000
  N   N12       1.0  0.40306  0.51493  0.20925  1.0000
  N   N13       1.0  0.75884  0.16342  0.18438  1.0000
  N   N14       1.0  0.57444  0.33665  0.81563  1.0000
  N   N15       1.0  0.24116  0.83659  0.81562  1.0000
  N   N16       1.0  0.42556  0.66335  0.18437  1.0000
  N   N17       1.0  0.91763  0.41435  0.30948  1.0000
  N   N18       1.0  0.60814  0.08575  0.69055  1.0000
  N   N19       1.0  0.08237  0.58565  0.69052  1.0000
  N   N20       1.0  0.39186  0.91425  0.30945  1.0000
  N   N21       1.0  0.84285  0.50458  0.21790  1.0000
  N   N22       1.0  0.62481  0.99552  0.78212  1.0000
  N   N23       1.0  0.15715  0.49542  0.78210  1.0000
  N   N24       1.0  0.37518  0.00448  0.21788  1.0000
  O   O1        1.0  0.75291  0.45191  0.09723  1.0000
  O   O2        1.0  0.65533  0.04817  0.90277  1.0000
  O   O3        1.0  0.24709  0.54809  0.90277  1.0000
  O   O4        1.0  0.34467  0.95183  0.09723  1.0000
  O   O5        1.0  0.86275  0.65028  0.24798  1.0000
  O   O6        1.0  0.61474  0.84984  0.75205  1.0000
  O   O7        1.0  0.13725  0.34972  0.75202  1.0000
  O   O8        1.0  0.38525  0.15016  0.24795  1.0000
  O   O9        1.0  0.99970  0.24989  0.99992  1.0000
  O   O10       1.0  0.00030  0.75012  0.00008  1.0000
