data_image0
_chemical_formula_structural       Fe2H36Au4C52N12
_chemical_formula_sum              "Fe2 H36 Au4 C52 N12"
_cell_length_a       10.1029
_cell_length_b       10.1028
_cell_length_c       13.9354
_cell_angle_alpha    103.15
_cell_angle_beta     106.816
_cell_angle_gamma    106.697

_space_group_name_H-M_alt    "P 1"
_space_group_IT_number       1

loop_
  _space_group_symop_operation_xyz
  'x, y, z'

loop_
  _atom_site_type_symbol
  _atom_site_label
  _atom_site_symmetry_multiplicity
  _atom_site_fract_x
  _atom_site_fract_y
  _atom_site_fract_z
  _atom_site_occupancy
  Fe  Fe1       1.0  0.00000  0.00000  0.00000  1.0000
  Fe  Fe2       1.0  0.50000  1.00000  0.50000  1.0000
  H   H1        1.0  0.44753  0.90230  0.20093  1.0000
  H   H2        1.0  0.20117  0.24629  0.29889  1.0000
  H   H3        1.0  0.55247  0.09770  0.79907  1.0000
  H   H4        1.0  0.79883  0.75371  0.70111  1.0000
  H   H5        1.0  0.17769  0.86227  0.12335  1.0000
  H   H6        1.0  0.23894  0.05421  0.37662  1.0000
  H   H7        1.0  0.82231  0.13773  0.87665  1.0000
  H   H8        1.0  0.76106  0.94578  0.62338  1.0000
  H   H9        1.0  0.63829  0.11357  0.18907  1.0000
  H   H10       1.0  0.42430  0.44904  0.31083  1.0000
  H   H11       1.0  0.36171  0.88643  0.81093  1.0000
  H   H12       1.0  0.57570  0.55096  0.68917  1.0000
  H   H13       1.0  0.27560  0.22209  0.02316  1.0000
  H   H14       1.0  0.69894  0.25253  0.47683  1.0000
  H   H15       1.0  0.72440  0.77790  0.97684  1.0000
  H   H16       1.0  0.30106  0.74747  0.52317  1.0000
  H   H17       1.0  0.71450  0.21532  0.05467  1.0000
  H   H18       1.0  0.66049  0.65982  0.44532  1.0000
  H   H19       1.0  0.28550  0.78468  0.94533  1.0000
  H   H20       1.0  0.33951  0.34018  0.55468  1.0000
  H   H21       1.0  0.85014  0.67520  0.09379  1.0000
  H   H22       1.0  0.08122  0.75622  0.40618  1.0000
  H   H23       1.0  0.14986  0.32480  0.90621  1.0000
  H   H24       1.0  0.91878  0.24378  0.59382  1.0000
  H   H25       1.0  0.88334  0.43813  0.04284  1.0000
  H   H26       1.0  0.89525  0.84045  0.45720  1.0000
  H   H27       1.0  0.11666  0.56187  0.95715  1.0000
  H   H28       1.0  0.10475  0.15955  0.54280  1.0000
  H   H29       1.0  0.63699  0.68501  0.14734  1.0000
  H   H30       1.0  0.03747  0.48954  0.35258  1.0000
  H   H31       1.0  0.36301  0.31499  0.85266  1.0000
  H   H32       1.0  0.96253  0.51046  0.64742  1.0000
  H   H33       1.0  0.45957  0.45948  0.14942  1.0000
  H   H34       1.0  0.80980  0.31004  0.35049  1.0000
  H   H35       1.0  0.54043  0.54052  0.85058  1.0000
  H   H36       1.0  0.19020  0.68996  0.64951  1.0000
  Au  Au1       1.0  0.18426  0.53490  0.19802  1.0000
  Au  Au2       1.0  0.83678  0.98625  0.30193  1.0000
  Au  Au3       1.0  0.81574  0.46510  0.80198  1.0000
  Au  Au4       1.0  0.16322  0.01375  0.69807  1.0000
  C   C1        1.0  0.09154  0.32839  0.10439  1.0000
  C   C2        1.0  0.72409  0.98720  0.39568  1.0000
  C   C3        1.0  0.90846  0.67161  0.89561  1.0000
  C   C4        1.0  0.27591  0.01280  0.60432  1.0000
  C   C5        1.0  0.57557  0.32184  0.10306  1.0000
  C   C6        1.0  0.71852  0.47245  0.39679  1.0000
  C   C7        1.0  0.42443  0.67816  0.89694  1.0000
  C   C8        1.0  0.28148  0.52755  0.60321  1.0000
  C   C9        1.0  0.41409  0.97568  0.16169  1.0000
  C   C10       1.0  0.31379  0.25209  0.33810  1.0000
  C   C11       1.0  0.58591  0.02432  0.83831  1.0000
  C   C12       1.0  0.68621  0.74791  0.66190  1.0000
  C   C13       1.0  0.26330  0.95233  0.11898  1.0000
  C   C14       1.0  0.33334  0.14418  0.38093  1.0000
  C   C15       1.0  0.73670  0.04767  0.88102  1.0000
  C   C16       1.0  0.66666  0.85582  0.61907  1.0000
  C   C17       1.0  0.51961  0.09351  0.15520  1.0000
  C   C18       1.0  0.43809  0.36419  0.34465  1.0000
  C   C19       1.0  0.48038  0.90649  0.84480  1.0000
  C   C20       1.0  0.56190  0.63581  0.65535  1.0000
  C   C21       1.0  0.31812  0.15471  0.06418  1.0000
  C   C22       1.0  0.59048  0.25395  0.43579  1.0000
  C   C23       1.0  0.68188  0.84529  0.93581  1.0000
  C   C24       1.0  0.40952  0.74605  0.56421  1.0000
  C   C25       1.0  0.47185  0.18862  0.10763  1.0000
  C   C26       1.0  0.58081  0.36412  0.39227  1.0000
  C   C27       1.0  0.52815  0.81138  0.89237  1.0000
  C   C28       1.0  0.41919  0.63588  0.60773  1.0000
  C   C29       1.0  0.69689  0.31799  0.07439  1.0000
  C   C30       1.0  0.74338  0.62246  0.42553  1.0000
  C   C31       1.0  0.30311  0.68201  0.92561  1.0000
  C   C32       1.0  0.25662  0.37754  0.57447  1.0000
  C   C33       1.0  0.77251  0.57642  0.09581  1.0000
  C   C34       1.0  0.98034  0.67654  0.40405  1.0000
  C   C35       1.0  0.22749  0.42358  0.90419  1.0000
  C   C36       1.0  0.01966  0.32346  0.59595  1.0000
  C   C37       1.0  0.79234  0.44371  0.06844  1.0000
  C   C38       1.0  0.87509  0.72382  0.43152  1.0000
  C   C39       1.0  0.20766  0.55630  0.93156  1.0000
  C   C40       1.0  0.12491  0.27618  0.56848  1.0000
  C   C41       1.0  0.65322  0.58173  0.12573  1.0000
  C   C42       1.0  0.95574  0.52735  0.37412  1.0000
  C   C43       1.0  0.34678  0.41827  0.87427  1.0000
  C   C44       1.0  0.04426  0.47265  0.62588  1.0000
  C   C45       1.0  0.55388  0.45488  0.12751  1.0000
  C   C46       1.0  0.82709  0.42626  0.37232  1.0000
  C   C47       1.0  0.44612  0.54512  0.87249  1.0000
  C   C48       1.0  0.17291  0.57374  0.62768  1.0000
  C   C49       1.0  0.92908  0.98481  0.19583  1.0000
  C   C50       1.0  0.28883  0.73342  0.30406  1.0000
  C   C51       1.0  0.07091  0.01519  0.80417  1.0000
  C   C52       1.0  0.71117  0.26658  0.69594  1.0000
  N   N1        1.0  0.04582  0.20248  0.05664  1.0000
  N   N2        1.0  0.64587  0.98915  0.44339  1.0000
  N   N3        1.0  0.95418  0.79752  0.94336  1.0000
  N   N4        1.0  0.35413  0.01085  0.55661  1.0000
  N   N5        1.0  0.21559  0.03932  0.06880  1.0000
  N   N6        1.0  0.47054  0.14677  0.43119  1.0000
  N   N7        1.0  0.78441  0.96068  0.93120  1.0000
  N   N8        1.0  0.52946  0.85323  0.56881  1.0000
  N   N9        1.0  0.96666  0.98426  0.12371  1.0000
  N   N10       1.0  0.36050  0.84302  0.37626  1.0000
  N   N11       1.0  0.03334  0.01574  0.87629  1.0000
  N   N12       1.0  0.63950  0.15698  0.62374  1.0000
