data_image0
_chemical_formula_structural       Cs4H28C24O28
_chemical_formula_sum              "Cs4 H28 C24 O28"
_cell_length_a       5.05797
_cell_length_b       9.40141
_cell_length_c       19.6437
_cell_angle_alpha    89.9981
_cell_angle_beta     90.0004
_cell_angle_gamma    89.9996

_space_group_name_H-M_alt    "P 1"
_space_group_IT_number       1

loop_
  _space_group_symop_operation_xyz
  'x, y, z'

loop_
  _atom_site_type_symbol
  _atom_site_label
  _atom_site_symmetry_multiplicity
  _atom_site_fract_x
  _atom_site_fract_y
  _atom_site_fract_z
  _atom_site_occupancy
  Cs  Cs1       1.0  0.81018  0.98937  0.19112  1.0000
  Cs  Cs2       1.0  0.31018  0.51063  0.69113  1.0000
  Cs  Cs3       1.0  0.81017  0.48936  0.30887  1.0000
  Cs  Cs4       1.0  0.31018  0.01064  0.80888  1.0000
  H   H1        1.0  0.22313  0.39476  0.98920  1.0000
  H   H2        1.0  0.72314  0.10522  0.48921  1.0000
  H   H3        1.0  0.22312  0.89475  0.51079  1.0000
  H   H4        1.0  0.72315  0.60522  0.01080  1.0000
  H   H5        1.0  0.95960  0.33179  0.04162  1.0000
  H   H6        1.0  0.45961  0.16823  0.54163  1.0000
  H   H7        1.0  0.95955  0.83175  0.45838  1.0000
  H   H8        1.0  0.45956  0.66822  0.95838  1.0000
  H   H9        1.0  0.66343  0.36724  0.12886  1.0000
  H   H10       1.0  0.16343  0.13278  0.62886  1.0000
  H   H11       1.0  0.66338  0.86723  0.37114  1.0000
  H   H12       1.0  0.16340  0.63276  0.87114  1.0000
  H   H13       1.0  0.21628  0.60889  0.04628  1.0000
  H   H14       1.0  0.71631  0.89111  0.54629  1.0000
  H   H15       1.0  0.21625  0.10888  0.45371  1.0000
  H   H16       1.0  0.71628  0.39112  0.95373  1.0000
  H   H17       1.0  0.97093  0.55615  0.10551  1.0000
  H   H18       1.0  0.47091  0.94387  0.60553  1.0000
  H   H19       1.0  0.97088  0.05613  0.39448  1.0000
  H   H20       1.0  0.47087  0.44386  0.89448  1.0000
  H   H21       1.0  0.33939  0.68895  0.25032  1.0000
  H   H22       1.0  0.83941  0.81106  0.75034  1.0000
  H   H23       1.0  0.33935  0.18893  0.24966  1.0000
  H   H24       1.0  0.83938  0.31104  0.74968  1.0000
  H   H25       1.0  0.54201  0.06898  0.97927  1.0000
  H   H26       1.0  0.04205  0.43099  0.47926  1.0000
  H   H27       1.0  0.54205  0.56898  0.52073  1.0000
  H   H28       1.0  0.04203  0.93102  0.02073  1.0000
  C   C1        1.0  0.26410  0.18205  0.02494  1.0000
  C   C2        1.0  0.76410  0.31795  0.52493  1.0000
  C   C3        1.0  0.26409  0.68206  0.47506  1.0000
  C   C4        1.0  0.76409  0.81795  0.97507  1.0000
  C   C5        1.0  0.17462  0.33269  0.03473  1.0000
  C   C6        1.0  0.67461  0.16733  0.53472  1.0000
  C   C7        1.0  0.17458  0.83267  0.46527  1.0000
  C   C8        1.0  0.67458  0.66733  0.96529  1.0000
  C   C9        1.0  0.29941  0.40978  0.09712  1.0000
  C   C10       1.0  0.79940  0.09023  0.59713  1.0000
  C   C11       1.0  0.29937  0.90977  0.40288  1.0000
  C   C12       1.0  0.79937  0.59022  0.90288  1.0000
  C   C13       1.0  0.18538  0.56187  0.09653  1.0000
  C   C14       1.0  0.68537  0.93812  0.59654  1.0000
  C   C15       1.0  0.18533  0.06186  0.40346  1.0000
  C   C16       1.0  0.68533  0.43813  0.90347  1.0000
  C   C17       1.0  0.30465  0.65897  0.14934  1.0000
  C   C18       1.0  0.80465  0.84104  0.64936  1.0000
  C   C19       1.0  0.30461  0.15896  0.35064  1.0000
  C   C20       1.0  0.80462  0.34105  0.85066  1.0000
  C   C21       1.0  0.22182  0.32806  0.16245  1.0000
  C   C22       1.0  0.72187  0.17195  0.66245  1.0000
  C   C23       1.0  0.22183  0.82806  0.33755  1.0000
  C   C24       1.0  0.72181  0.67196  0.83756  1.0000
  O   O1        1.0  0.47747  0.17011  0.98633  1.0000
  O   O2        1.0  0.97744  0.32988  0.48632  1.0000
  O   O3        1.0  0.47744  0.67011  0.51368  1.0000
  O   O4        1.0  0.97746  0.82990  0.01367  1.0000
  O   O5        1.0  0.14681  0.07909  0.05101  1.0000
  O   O6        1.0  0.64688  0.42092  0.55101  1.0000
  O   O7        1.0  0.14685  0.57908  0.44899  1.0000
  O   O8        1.0  0.64682  0.92093  0.94899  1.0000
  O   O9        1.0  0.98317  0.31887  0.17937  1.0000
  O   O10       1.0  0.48317  0.18116  0.67937  1.0000
  O   O11       1.0  0.98313  0.81884  0.32063  1.0000
  O   O12       1.0  0.48317  0.68113  0.82063  1.0000
  O   O13       1.0  0.41650  0.27033  0.19426  1.0000
  O   O14       1.0  0.91652  0.22967  0.69426  1.0000
  O   O15       1.0  0.41646  0.77033  0.30574  1.0000
  O   O16       1.0  0.91649  0.72969  0.80574  1.0000
  O   O17       1.0  0.27836  0.61080  0.21264  1.0000
  O   O18       1.0  0.77836  0.88922  0.71265  1.0000
  O   O19       1.0  0.27834  0.11079  0.28735  1.0000
  O   O20       1.0  0.77833  0.38920  0.78736  1.0000
  O   O21       1.0  0.41008  0.77416  0.13539  1.0000
  O   O22       1.0  0.91007  0.72585  0.63542  1.0000
  O   O23       1.0  0.41007  0.27415  0.36459  1.0000
  O   O24       1.0  0.91009  0.22586  0.86460  1.0000
  O   O25       1.0  0.57877  0.41772  0.09021  1.0000
  O   O26       1.0  0.07878  0.08230  0.59022  1.0000
  O   O27       1.0  0.57870  0.91770  0.40978  1.0000
  O   O28       1.0  0.07874  0.58228  0.90979  1.0000
