data_image0
_chemical_formula_structural       Cs4H28C24O28
_chemical_formula_sum              "Cs4 H28 C24 O28"
_cell_length_a       5.054
_cell_length_b       9.4051
_cell_length_c       19.6256
_cell_angle_alpha    90.0004
_cell_angle_beta     90.0004
_cell_angle_gamma    89.9999

_space_group_name_H-M_alt    "P 1"
_space_group_IT_number       1

loop_
  _space_group_symop_operation_xyz
  'x, y, z'

loop_
  _atom_site_type_symbol
  _atom_site_label
  _atom_site_symmetry_multiplicity
  _atom_site_fract_x
  _atom_site_fract_y
  _atom_site_fract_z
  _atom_site_occupancy
  Cs  Cs1       1.0  0.81072  0.98978  0.19112  1.0000
  Cs  Cs2       1.0  0.31072  0.51022  0.69113  1.0000
  Cs  Cs3       1.0  0.81073  0.48977  0.30888  1.0000
  Cs  Cs4       1.0  0.31072  0.01022  0.80888  1.0000
  H   H1        1.0  0.22370  0.39463  0.98908  1.0000
  H   H2        1.0  0.72369  0.10538  0.48908  1.0000
  H   H3        1.0  0.22371  0.89462  0.51092  1.0000
  H   H4        1.0  0.72369  0.60537  0.01092  1.0000
  H   H5        1.0  0.96009  0.33137  0.04144  1.0000
  H   H6        1.0  0.46009  0.16864  0.54144  1.0000
  H   H7        1.0  0.96010  0.83136  0.45856  1.0000
  H   H8        1.0  0.46008  0.66864  0.95856  1.0000
  H   H9        1.0  0.66354  0.36638  0.12873  1.0000
  H   H10       1.0  0.16352  0.13363  0.62874  1.0000
  H   H11       1.0  0.66353  0.86637  0.37127  1.0000
  H   H12       1.0  0.16352  0.63362  0.87127  1.0000
  H   H13       1.0  0.21752  0.60887  0.04626  1.0000
  H   H14       1.0  0.71756  0.89114  0.54625  1.0000
  H   H15       1.0  0.21751  0.10886  0.45374  1.0000
  H   H16       1.0  0.71753  0.39114  0.95374  1.0000
  H   H17       1.0  0.97145  0.55609  0.10542  1.0000
  H   H18       1.0  0.47149  0.94390  0.60543  1.0000
  H   H19       1.0  0.97147  0.05608  0.39457  1.0000
  H   H20       1.0  0.47146  0.44391  0.89457  1.0000
  H   H21       1.0  0.33998  0.68902  0.25042  1.0000
  H   H22       1.0  0.83996  0.81098  0.75041  1.0000
  H   H23       1.0  0.33996  0.18903  0.24958  1.0000
  H   H24       1.0  0.83996  0.31098  0.74959  1.0000
  H   H25       1.0  0.54286  0.06886  0.97903  1.0000
  H   H26       1.0  0.04284  0.43115  0.47903  1.0000
  H   H27       1.0  0.54287  0.56886  0.52096  1.0000
  H   H28       1.0  0.04285  0.93114  0.02097  1.0000
  C   C1        1.0  0.26481  0.18195  0.02486  1.0000
  C   C2        1.0  0.76481  0.31807  0.52486  1.0000
  C   C3        1.0  0.26482  0.68194  0.47514  1.0000
  C   C4        1.0  0.76480  0.81806  0.97514  1.0000
  C   C5        1.0  0.17525  0.33246  0.03461  1.0000
  C   C6        1.0  0.67525  0.16754  0.53461  1.0000
  C   C7        1.0  0.17526  0.83247  0.46539  1.0000
  C   C8        1.0  0.67525  0.66755  0.96539  1.0000
  C   C9        1.0  0.29982  0.40970  0.09707  1.0000
  C   C10       1.0  0.79983  0.09031  0.59706  1.0000
  C   C11       1.0  0.29982  0.90969  0.40294  1.0000
  C   C12       1.0  0.79986  0.59030  0.90294  1.0000
  C   C13       1.0  0.18607  0.56170  0.09648  1.0000
  C   C14       1.0  0.68612  0.93830  0.59648  1.0000
  C   C15       1.0  0.18607  0.06169  0.40351  1.0000
  C   C16       1.0  0.68607  0.43830  0.90352  1.0000
  C   C17       1.0  0.30560  0.65880  0.14927  1.0000
  C   C18       1.0  0.80566  0.84121  0.64927  1.0000
  C   C19       1.0  0.30562  0.15878  0.35073  1.0000
  C   C20       1.0  0.80562  0.34121  0.85073  1.0000
  C   C21       1.0  0.22244  0.32794  0.16248  1.0000
  C   C22       1.0  0.72246  0.17206  0.66248  1.0000
  C   C23       1.0  0.22245  0.82793  0.33752  1.0000
  C   C24       1.0  0.72245  0.67206  0.83752  1.0000
  O   O1        1.0  0.47788  0.16991  0.98607  1.0000
  O   O2        1.0  0.97785  0.33010  0.48606  1.0000
  O   O3        1.0  0.47789  0.66991  0.51393  1.0000
  O   O4        1.0  0.97787  0.83009  0.01393  1.0000
  O   O5        1.0  0.14774  0.07909  0.05113  1.0000
  O   O6        1.0  0.64775  0.42092  0.55114  1.0000
  O   O7        1.0  0.14776  0.57909  0.44886  1.0000
  O   O8        1.0  0.64776  0.92091  0.94887  1.0000
  O   O9        1.0  0.98377  0.31840  0.17950  1.0000
  O   O10       1.0  0.48378  0.18160  0.67951  1.0000
  O   O11       1.0  0.98378  0.81838  0.32050  1.0000
  O   O12       1.0  0.48377  0.68160  0.82050  1.0000
  O   O13       1.0  0.41756  0.27040  0.19433  1.0000
  O   O14       1.0  0.91755  0.22960  0.69433  1.0000
  O   O15       1.0  0.41757  0.77039  0.30567  1.0000
  O   O16       1.0  0.91755  0.72959  0.80567  1.0000
  O   O17       1.0  0.27847  0.61091  0.21265  1.0000
  O   O18       1.0  0.77847  0.88908  0.71264  1.0000
  O   O19       1.0  0.27846  0.11091  0.28735  1.0000
  O   O20       1.0  0.77846  0.38909  0.78736  1.0000
  O   O21       1.0  0.41158  0.77379  0.13524  1.0000
  O   O22       1.0  0.91171  0.72623  0.63524  1.0000
  O   O23       1.0  0.41165  0.27378  0.36476  1.0000
  O   O24       1.0  0.91160  0.22620  0.86476  1.0000
  O   O25       1.0  0.57953  0.41771  0.09021  1.0000
  O   O26       1.0  0.07955  0.08231  0.59021  1.0000
  O   O27       1.0  0.57953  0.91770  0.40979  1.0000
  O   O28       1.0  0.07952  0.58230  0.90978  1.0000
