data_image0
_chemical_formula_structural       Li4H8C8O12
_chemical_formula_sum              "Li4 H8 C8 O12"
_cell_length_a       4.9779
_cell_length_b       7.96299
_cell_length_c       8.20465
_cell_angle_alpha    88.1202
_cell_angle_beta     72.3224
_cell_angle_gamma    71.8189

_space_group_name_H-M_alt    "P 1"
_space_group_IT_number       1

loop_
  _space_group_symop_operation_xyz
  'x, y, z'

loop_
  _atom_site_type_symbol
  _atom_site_label
  _atom_site_symmetry_multiplicity
  _atom_site_fract_x
  _atom_site_fract_y
  _atom_site_fract_z
  _atom_site_occupancy
  Li  Li1       1.0  0.02035  0.92707  0.58096  1.0000
  Li  Li2       1.0  0.52834  0.07287  0.41875  1.0000
  Li  Li3       1.0  0.42823  0.41090  0.05561  1.0000
  Li  Li4       1.0  0.89433  0.58918  0.94472  1.0000
  H   H1        1.0  0.76372  0.10475  0.88583  1.0000
  H   H2        1.0  0.75403  0.89555  0.11390  1.0000
  H   H3        1.0  0.06373  0.60088  0.61895  1.0000
  H   H4        1.0  0.28345  0.39897  0.38127  1.0000
  H   H5        1.0  0.61655  0.68126  0.50085  1.0000
  H   H6        1.0  0.79817  0.31837  0.49957  1.0000
  H   H7        1.0  0.12627  0.17997  0.00908  1.0000
  H   H8        1.0  0.31544  0.82002  0.99055  1.0000
  C   C1        1.0  0.52860  0.55836  0.73645  1.0000
  C   C2        1.0  0.82338  0.44149  0.26402  1.0000
  C   C3        1.0  0.49267  0.58996  0.55752  1.0000
  C   C4        1.0  0.63998  0.40976  0.44283  1.0000
  C   C5        1.0  0.35724  0.03939  0.76796  1.0000
  C   C6        1.0  0.16454  0.96078  0.23157  1.0000
  C   C7        1.0  0.34911  0.08649  0.94865  1.0000
  C   C8        1.0  0.38433  0.91361  0.05093  1.0000
  O   O1        1.0  0.31145  0.54955  0.86297  1.0000
  O   O2        1.0  0.72391  0.45059  0.13758  1.0000
  O   O3        1.0  0.78520  0.53946  0.74842  1.0000
  O   O4        1.0  0.07311  0.46034  0.25202  1.0000
  O   O5        1.0  0.19631  0.67098  0.55808  1.0000
  O   O6        1.0  0.42509  0.32883  0.44220  1.0000
  O   O7        1.0  0.59549  0.00941  0.64325  1.0000
  O   O8        1.0  0.24805  0.99060  0.35635  1.0000
  O   O9        1.0  0.11602  0.02762  0.75445  1.0000
  O   O10       1.0  0.89791  0.97281  0.24501  1.0000
  O   O11       1.0  0.55566  0.17074  0.95765  1.0000
  O   O12       1.0  0.68393  0.82943  0.04205  1.0000
