data_image0
_chemical_formula_structural       Nd2H42C24O20
_chemical_formula_sum              "Nd2 H42 C24 O20"
_cell_length_a       8.62028
_cell_length_b       9.84757
_cell_length_c       11.8043
_cell_angle_alpha    74.9683
_cell_angle_beta     69.2912
_cell_angle_gamma    86.5919

_space_group_name_H-M_alt    "P 1"
_space_group_IT_number       1

loop_
  _space_group_symop_operation_xyz
  'x, y, z'

loop_
  _atom_site_type_symbol
  _atom_site_label
  _atom_site_symmetry_multiplicity
  _atom_site_fract_x
  _atom_site_fract_y
  _atom_site_fract_z
  _atom_site_occupancy
  Nd  Nd1       1.0  0.75169  0.48597  0.50169  1.0000
  Nd  Nd2       1.0  0.24831  0.51403  0.49831  1.0000
  H   H1        1.0  0.22987  0.27575  0.86118  1.0000
  H   H2        1.0  0.77013  0.72425  0.13882  1.0000
  H   H3        1.0  0.19269  0.45578  0.83587  1.0000
  H   H4        1.0  0.80731  0.54422  0.16413  1.0000
  H   H5        1.0  0.39495  0.47393  0.95171  1.0000
  H   H6        1.0  0.60504  0.52606  0.04830  1.0000
  H   H7        1.0  0.39244  0.28908  0.99484  1.0000
  H   H8        1.0  0.60756  0.71092  0.00516  1.0000
  H   H9        1.0  0.08964  0.47337  0.05861  1.0000
  H   H10       1.0  0.91035  0.52662  0.94139  1.0000
  H   H11       1.0  0.07830  0.28817  0.10390  1.0000
  H   H12       1.0  0.92170  0.71183  0.89611  1.0000
  H   H13       1.0  0.29575  0.46739  0.17256  1.0000
  H   H14       1.0  0.70424  0.53261  0.82744  1.0000
  H   H15       1.0  0.25309  0.28489  0.23281  1.0000
  H   H16       1.0  0.74690  0.71511  0.76720  1.0000
  H   H17       1.0  0.70546  0.97252  0.55204  1.0000
  H   H18       1.0  0.29454  0.02749  0.44796  1.0000
  H   H19       1.0  0.69896  0.97850  0.70217  1.0000
  H   H20       1.0  0.30103  0.02150  0.29782  1.0000
  H   H21       1.0  0.95236  0.86085  0.60137  1.0000
  H   H22       1.0  0.04763  0.13916  0.39863  1.0000
  H   H23       1.0  0.00662  0.01973  0.62303  1.0000
  H   H24       1.0  0.99338  0.98028  0.37697  1.0000
  H   H25       1.0  0.96967  0.69836  0.25695  1.0000
  H   H26       1.0  0.03033  0.30163  0.74305  1.0000
  H   H27       1.0  0.52716  0.74774  0.52166  1.0000
  H   H28       1.0  0.47283  0.25226  0.47834  1.0000
  H   H29       1.0  0.55366  0.70057  0.64995  1.0000
  H   H30       1.0  0.44634  0.29943  0.35005  1.0000
  H   H31       1.0  0.98028  0.73965  0.37163  1.0000
  H   H32       1.0  0.01972  0.26035  0.62836  1.0000
  H   H33       1.0  0.74832  0.94297  0.98235  1.0000
  H   H34       1.0  0.25169  0.05703  0.01765  1.0000
  H   H35       1.0  0.65452  0.02267  0.10488  1.0000
  H   H36       1.0  0.34549  0.97734  0.89512  1.0000
  H   H37       1.0  0.94566  0.10846  0.07853  1.0000
  H   H38       1.0  0.05435  0.89153  0.92148  1.0000
  H   H39       1.0  0.90353  0.92532  0.13771  1.0000
  H   H40       1.0  0.09647  0.07468  0.86229  1.0000
  H   H41       1.0  0.62860  0.26261  0.82918  1.0000
  H   H42       1.0  0.37141  0.73740  0.17082  1.0000
  C   C1        1.0  0.43530  0.40882  0.73475  1.0000
  C   C2        1.0  0.56469  0.59117  0.26525  1.0000
  C   C3        1.0  0.28444  0.37805  0.85252  1.0000
  C   C4        1.0  0.71556  0.62195  0.14748  1.0000
  C   C5        1.0  0.31812  0.37941  0.97078  1.0000
  C   C6        1.0  0.68187  0.62059  0.02922  1.0000
  C   C7        1.0  0.16000  0.38024  0.08230  1.0000
  C   C8        1.0  0.84000  0.61976  0.91771  1.0000
  C   C9        1.0  0.20063  0.38480  0.19680  1.0000
  C   C10       1.0  0.79936  0.61520  0.80320  1.0000
  C   C11       1.0  0.05558  0.41303  0.30461  1.0000
  C   C12       1.0  0.94441  0.58697  0.69539  1.0000
  C   C13       1.0  0.74949  0.17587  0.57175  1.0000
  C   C14       1.0  0.25050  0.82414  0.42825  1.0000
  C   C15       1.0  0.76790  0.01822  0.60080  1.0000
  C   C16       1.0  0.23210  0.98178  0.39920  1.0000
  C   C17       1.0  0.94909  0.97583  0.56995  1.0000
  C   C18       1.0  0.05092  0.02418  0.43005  1.0000
  C   C19       1.0  0.76099  0.16646  0.92854  1.0000
  C   C20       1.0  0.23904  0.83355  0.07145  1.0000
  C   C21       1.0  0.76648  0.02900  0.02085  1.0000
  C   C22       1.0  0.23354  0.97100  0.97915  1.0000
  C   C23       1.0  0.92370  0.01280  0.05356  1.0000
  C   C24       1.0  0.07631  0.98720  0.94644  1.0000
  O   O1        1.0  0.58189  0.39787  0.73939  1.0000
  O   O2        1.0  0.41810  0.60213  0.26061  1.0000
  O   O3        1.0  0.41938  0.45067  0.62779  1.0000
  O   O4        1.0  0.58061  0.54933  0.37221  1.0000
  O   O5        1.0  0.90820  0.40512  0.30726  1.0000
  O   O6        1.0  0.09179  0.59488  0.69274  1.0000
  O   O7        1.0  0.08395  0.44659  0.39404  1.0000
  O   O8        1.0  0.91605  0.55342  0.60596  1.0000
  O   O9        1.0  0.85060  0.25226  0.58836  1.0000
  O   O10       1.0  0.14940  0.74775  0.41164  1.0000
  O   O11       1.0  0.63547  0.23461  0.53268  1.0000
  O   O12       1.0  0.36452  0.76539  0.46732  1.0000
  O   O13       1.0  0.89884  0.70708  0.34081  1.0000
  O   O14       1.0  0.10117  0.29292  0.65918  1.0000
  O   O15       1.0  0.61247  0.71358  0.56066  1.0000
  O   O16       1.0  0.38753  0.28642  0.43934  1.0000
  O   O17       1.0  0.63687  0.16679  0.88594  1.0000
  O   O18       1.0  0.36314  0.83321  0.11407  1.0000
  O   O19       1.0  0.85813  0.26800  0.89733  1.0000
  O   O20       1.0  0.14188  0.73199  0.10268  1.0000
