data_image0
_chemical_formula_structural       Hg2H20C44N12O4F12
_chemical_formula_sum              "Hg2 H20 C44 N12 O4 F12"
_cell_length_a       8.13294
_cell_length_b       10.5463
_cell_length_c       12.5837
_cell_angle_alpha    99.1671
_cell_angle_beta     90.0001
_cell_angle_gamma    89.9999

_space_group_name_H-M_alt    "P 1"
_space_group_IT_number       1

loop_
  _space_group_symop_operation_xyz
  'x, y, z'

loop_
  _atom_site_type_symbol
  _atom_site_label
  _atom_site_symmetry_multiplicity
  _atom_site_fract_x
  _atom_site_fract_y
  _atom_site_fract_z
  _atom_site_occupancy
  Hg  Hg1       1.0  0.00000  0.50000  1.00000  1.0000
  Hg  Hg2       1.0  0.50000  1.00000  0.00000  1.0000
  H   H1        1.0  0.04994  0.61699  0.30602  1.0000
  H   H2        1.0  0.54994  0.88301  0.69398  1.0000
  H   H3        1.0  0.95006  0.38301  0.69398  1.0000
  H   H4        1.0  0.45006  0.11699  0.30602  1.0000
  H   H5        1.0  0.11246  0.83288  0.41619  1.0000
  H   H6        1.0  0.61246  0.66712  0.58381  1.0000
  H   H7        1.0  0.88754  0.16712  0.58381  1.0000
  H   H8        1.0  0.38754  0.33288  0.41619  1.0000
  H   H9        1.0  0.19034  0.98469  0.13544  1.0000
  H   H10       1.0  0.69034  0.51531  0.86456  1.0000
  H   H11       1.0  0.80966  0.01531  0.86456  1.0000
  H   H12       1.0  0.30966  0.48469  0.13544  1.0000
  H   H13       1.0  0.33540  0.43685  0.61931  1.0000
  H   H14       1.0  0.83540  0.06314  0.38069  1.0000
  H   H15       1.0  0.66460  0.56315  0.38069  1.0000
  H   H16       1.0  0.16460  0.93686  0.61931  1.0000
  H   H17       1.0  0.29922  0.47519  0.82011  1.0000
  H   H18       1.0  0.79922  0.02481  0.17989  1.0000
  H   H19       1.0  0.70078  0.52481  0.17989  1.0000
  H   H20       1.0  0.20078  0.97519  0.82011  1.0000
  C   C1        1.0  0.08075  0.69955  0.26769  1.0000
  C   C2        1.0  0.58075  0.80045  0.73231  1.0000
  C   C3        1.0  0.91925  0.30045  0.73231  1.0000
  C   C4        1.0  0.41925  0.19955  0.26769  1.0000
  C   C5        1.0  0.11569  0.81943  0.32838  1.0000
  C   C6        1.0  0.61569  0.68057  0.67162  1.0000
  C   C7        1.0  0.88431  0.18057  0.67162  1.0000
  C   C8        1.0  0.38431  0.31943  0.32838  1.0000
  C   C9        1.0  0.16024  0.90258  0.17451  1.0000
  C   C10       1.0  0.66024  0.59742  0.82549  1.0000
  C   C11       1.0  0.83976  0.09742  0.82549  1.0000
  C   C12       1.0  0.33976  0.40258  0.17451  1.0000
  C   C13       1.0  0.12926  0.78226  0.11258  1.0000
  C   C14       1.0  0.62926  0.71774  0.88742  1.0000
  C   C15       1.0  0.87073  0.21774  0.88742  1.0000
  C   C16       1.0  0.37074  0.28226  0.11258  1.0000
  C   C17       1.0  0.15152  0.76640  0.99226  1.0000
  C   C18       1.0  0.65152  0.73360  0.00774  1.0000
  C   C19       1.0  0.84848  0.23360  0.00774  1.0000
  C   C20       1.0  0.34848  0.26640  0.99226  1.0000
  C   C21       1.0  0.13391  0.63370  0.82078  1.0000
  C   C22       1.0  0.63391  0.86630  0.17922  1.0000
  C   C23       1.0  0.86609  0.36631  0.17921  1.0000
  C   C24       1.0  0.36609  0.13370  0.82078  1.0000
  C   C25       1.0  0.05092  0.70919  0.75575  1.0000
  C   C26       1.0  0.55092  0.79080  0.24425  1.0000
  C   C27       1.0  0.94908  0.29081  0.24425  1.0000
  C   C28       1.0  0.44908  0.20919  0.75575  1.0000
  C   C29       1.0  0.06521  0.68520  0.64400  1.0000
  C   C30       1.0  0.56521  0.81480  0.35600  1.0000
  C   C31       1.0  0.93479  0.31480  0.35600  1.0000
  C   C32       1.0  0.43479  0.18520  0.64400  1.0000
  C   C33       1.0  0.16746  0.58639  0.59608  1.0000
  C   C34       1.0  0.66746  0.91361  0.40392  1.0000
  C   C35       1.0  0.83254  0.41361  0.40392  1.0000
  C   C36       1.0  0.33254  0.08639  0.59608  1.0000
  C   C37       1.0  0.25350  0.51163  0.65839  1.0000
  C   C38       1.0  0.75350  0.98837  0.34161  1.0000
  C   C39       1.0  0.74650  0.48838  0.34161  1.0000
  C   C40       1.0  0.24650  0.01163  0.65839  1.0000
  C   C41       1.0  0.23566  0.53503  0.77005  1.0000
  C   C42       1.0  0.73566  0.96497  0.22996  1.0000
  C   C43       1.0  0.76434  0.46497  0.22995  1.0000
  C   C44       1.0  0.26434  0.03503  0.77005  1.0000
  N   N1        1.0  0.08760  0.68178  0.16022  1.0000
  N   N2        1.0  0.58760  0.81822  0.83978  1.0000
  N   N3        1.0  0.91240  0.31822  0.83978  1.0000
  N   N4        1.0  0.41240  0.18178  0.16022  1.0000
  N   N5        1.0  0.15433  0.92135  0.28212  1.0000
  N   N6        1.0  0.65433  0.57865  0.71788  1.0000
  N   N7        1.0  0.84567  0.07865  0.71788  1.0000
  N   N8        1.0  0.34567  0.42135  0.28212  1.0000
  N   N9        1.0  0.10952  0.65261  0.93353  1.0000
  N   N10       1.0  0.60951  0.84739  0.06648  1.0000
  N   N11       1.0  0.89048  0.34739  0.06647  1.0000
  N   N12       1.0  0.39048  0.15261  0.93353  1.0000
  O   O1        1.0  0.21210  0.85799  0.95294  1.0000
  O   O2        1.0  0.71210  0.64201  0.04706  1.0000
  O   O3        1.0  0.78790  0.14201  0.04706  1.0000
  O   O4        1.0  0.28790  0.35800  0.95294  1.0000
  F   F1        1.0  0.94975  0.80488  0.80008  1.0000
  F   F2        1.0  0.44975  0.69512  0.19992  1.0000
  F   F3        1.0  0.05025  0.19512  0.19992  1.0000
  F   F4        1.0  0.55025  0.30488  0.80008  1.0000
  F   F5        1.0  0.97951  0.75704  0.58262  1.0000
  F   F6        1.0  0.47951  0.74296  0.41738  1.0000
  F   F7        1.0  0.02048  0.24296  0.41738  1.0000
  F   F8        1.0  0.52049  0.25704  0.58262  1.0000
  F   F9        1.0  0.18106  0.56548  0.48710  1.0000
  F   F10       1.0  0.68107  0.93452  0.51290  1.0000
  F   F11       1.0  0.81893  0.43453  0.51289  1.0000
  F   F12       1.0  0.31893  0.06548  0.48711  1.0000
