data_image0
_chemical_formula_structural       Hg2H16C44N12O4F16
_chemical_formula_sum              "Hg2 H16 C44 N12 O4 F16"
_cell_length_a       8.35989
_cell_length_b       10.4626
_cell_length_c       12.4936
_cell_angle_alpha    98.1124
_cell_angle_beta     90.0001
_cell_angle_gamma    89.9993

_space_group_name_H-M_alt    "P 1"
_space_group_IT_number       1

loop_
  _space_group_symop_operation_xyz
  'x, y, z'

loop_
  _atom_site_type_symbol
  _atom_site_label
  _atom_site_symmetry_multiplicity
  _atom_site_fract_x
  _atom_site_fract_y
  _atom_site_fract_z
  _atom_site_occupancy
  Hg  Hg1       1.0  0.00000  1.00000  0.00000  1.0000
  Hg  Hg2       1.0  0.50000  0.50000  1.00000  1.0000
  H   H1        1.0  0.03341  0.87601  0.69489  1.0000
  H   H2        1.0  0.53341  0.62399  0.30511  1.0000
  H   H3        1.0  0.96659  0.12399  0.30511  1.0000
  H   H4        1.0  0.46659  0.37601  0.69489  1.0000
  H   H5        1.0  0.09714  0.65887  0.58730  1.0000
  H   H6        1.0  0.59714  0.84113  0.41270  1.0000
  H   H7        1.0  0.90286  0.34113  0.41270  1.0000
  H   H8        1.0  0.40286  0.15887  0.58730  1.0000
  H   H9        1.0  0.19033  0.51159  0.87247  1.0000
  H   H10       1.0  0.69033  0.98841  0.12753  1.0000
  H   H11       1.0  0.80967  0.48841  0.12752  1.0000
  H   H12       1.0  0.30968  0.01159  0.87247  1.0000
  H   H13       1.0  0.29654  0.01666  0.18749  1.0000
  H   H14       1.0  0.79654  0.48334  0.81251  1.0000
  H   H15       1.0  0.70346  0.98334  0.81251  1.0000
  H   H16       1.0  0.20346  0.51666  0.18749  1.0000
  C   C1        1.0  0.06755  0.79398  0.73472  1.0000
  C   C2        1.0  0.56755  0.70601  0.26529  1.0000
  C   C3        1.0  0.93245  0.20602  0.26528  1.0000
  C   C4        1.0  0.43245  0.29399  0.73471  1.0000
  C   C5        1.0  0.10330  0.67374  0.67543  1.0000
  C   C6        1.0  0.60329  0.82625  0.32457  1.0000
  C   C7        1.0  0.89670  0.32626  0.32457  1.0000
  C   C8        1.0  0.39670  0.17375  0.67543  1.0000
  C   C9        1.0  0.15611  0.59292  0.83176  1.0000
  C   C10       1.0  0.65610  0.90708  0.16824  1.0000
  C   C11       1.0  0.84390  0.40708  0.16824  1.0000
  C   C12       1.0  0.34390  0.09292  0.83176  1.0000
  C   C13       1.0  0.12330  0.71349  0.89207  1.0000
  C   C14       1.0  0.62330  0.78651  0.10793  1.0000
  C   C15       1.0  0.87670  0.28651  0.10793  1.0000
  C   C16       1.0  0.37669  0.21349  0.89207  1.0000
  C   C17       1.0  0.14630  0.73080  0.01284  1.0000
  C   C18       1.0  0.64629  0.76918  0.98716  1.0000
  C   C19       1.0  0.85370  0.26920  0.98716  1.0000
  C   C20       1.0  0.35370  0.23082  0.01284  1.0000
  C   C21       1.0  0.12255  0.86290  0.18322  1.0000
  C   C22       1.0  0.62255  0.63710  0.81678  1.0000
  C   C23       1.0  0.87745  0.13710  0.81678  1.0000
  C   C24       1.0  0.37745  0.36290  0.18322  1.0000
  C   C25       1.0  0.02971  0.79103  0.24666  1.0000
  C   C26       1.0  0.52971  0.70898  0.75334  1.0000
  C   C27       1.0  0.97029  0.20897  0.75334  1.0000
  C   C28       1.0  0.47029  0.29102  0.24666  1.0000
  C   C29       1.0  0.03531  0.81414  0.35922  1.0000
  C   C30       1.0  0.53531  0.68586  0.64078  1.0000
  C   C31       1.0  0.96469  0.18586  0.64078  1.0000
  C   C32       1.0  0.46470  0.31413  0.35922  1.0000
  C   C33       1.0  0.14106  0.90622  0.41005  1.0000
  C   C34       1.0  0.64106  0.59379  0.58996  1.0000
  C   C35       1.0  0.85894  0.09378  0.58995  1.0000
  C   C36       1.0  0.35894  0.40621  0.41005  1.0000
  C   C37       1.0  0.23489  0.97661  0.34706  1.0000
  C   C38       1.0  0.73489  0.52339  0.65295  1.0000
  C   C39       1.0  0.76511  0.02339  0.65294  1.0000
  C   C40       1.0  0.26511  0.47661  0.34705  1.0000
  C   C41       1.0  0.22654  0.95707  0.23513  1.0000
  C   C42       1.0  0.72654  0.54293  0.76487  1.0000
  C   C43       1.0  0.77346  0.04293  0.76487  1.0000
  C   C44       1.0  0.27346  0.45707  0.23513  1.0000
  N   N1        1.0  0.07768  0.81319  0.84248  1.0000
  N   N2        1.0  0.57768  0.68680  0.15752  1.0000
  N   N3        1.0  0.92232  0.18681  0.15752  1.0000
  N   N4        1.0  0.42232  0.31320  0.84248  1.0000
  N   N5        1.0  0.14734  0.57281  0.72371  1.0000
  N   N6        1.0  0.64734  0.92718  0.27629  1.0000
  N   N7        1.0  0.85266  0.42719  0.27629  1.0000
  N   N8        1.0  0.35266  0.07282  0.72371  1.0000
  N   N9        1.0  0.10398  0.84549  0.06957  1.0000
  N   N10       1.0  0.60398  0.65451  0.93043  1.0000
  N   N11       1.0  0.89602  0.15451  0.93043  1.0000
  N   N12       1.0  0.39602  0.34549  0.06957  1.0000
  O   O1        1.0  0.20654  0.63982  0.05460  1.0000
  O   O2        1.0  0.70655  0.86019  0.94540  1.0000
  O   O3        1.0  0.79346  0.36018  0.94540  1.0000
  O   O4        1.0  0.29345  0.13981  0.05460  1.0000
  F   F1        1.0  0.92779  0.70009  0.19910  1.0000
  F   F2        1.0  0.42779  0.79991  0.80091  1.0000
  F   F3        1.0  0.07221  0.29991  0.80090  1.0000
  F   F4        1.0  0.57221  0.20009  0.19909  1.0000
  F   F5        1.0  0.93792  0.75037  0.41948  1.0000
  F   F6        1.0  0.43791  0.74964  0.58052  1.0000
  F   F7        1.0  0.06209  0.24963  0.58052  1.0000
  F   F8        1.0  0.56209  0.25036  0.41948  1.0000
  F   F9        1.0  0.14960  0.92800  0.51903  1.0000
  F   F10       1.0  0.64960  0.57200  0.48097  1.0000
  F   F11       1.0  0.85040  0.07200  0.48097  1.0000
  F   F12       1.0  0.35040  0.42800  0.51902  1.0000
  F   F13       1.0  0.33390  0.06760  0.39919  1.0000
  F   F14       1.0  0.83390  0.43240  0.60081  1.0000
  F   F15       1.0  0.66610  0.93240  0.60081  1.0000
  F   F16       1.0  0.16610  0.56760  0.39919  1.0000
