data_image0
_chemical_formula_structural       Hg2H24C44N12O4F8
_chemical_formula_sum              "Hg2 H24 C44 N12 O4 F8"
_cell_length_a       8.36994
_cell_length_b       10.4538
_cell_length_c       12.1762
_cell_angle_alpha    104.305
_cell_angle_beta     89.9998
_cell_angle_gamma    90.0001

_space_group_name_H-M_alt    "P 1"
_space_group_IT_number       1

loop_
  _space_group_symop_operation_xyz
  'x, y, z'

loop_
  _atom_site_type_symbol
  _atom_site_label
  _atom_site_symmetry_multiplicity
  _atom_site_fract_x
  _atom_site_fract_y
  _atom_site_fract_z
  _atom_site_occupancy
  Hg  Hg1       1.0  0.00000  0.00000  0.00000  1.0000
  Hg  Hg2       1.0  0.50000  0.50000  1.00000  1.0000
  H   H1        1.0  0.03366  0.04717  0.32605  1.0000
  H   H2        1.0  0.53365  0.45283  0.67395  1.0000
  H   H3        1.0  0.96633  0.95282  0.67396  1.0000
  H   H4        1.0  0.46634  0.54717  0.32604  1.0000
  H   H5        1.0  0.09965  0.89211  0.45003  1.0000
  H   H6        1.0  0.59965  0.60789  0.54998  1.0000
  H   H7        1.0  0.90035  0.10789  0.54998  1.0000
  H   H8        1.0  0.40035  0.39211  0.45002  1.0000
  H   H9        1.0  0.20075  0.59477  0.16269  1.0000
  H   H10       1.0  0.70075  0.90523  0.83731  1.0000
  H   H11       1.0  0.79926  0.40523  0.83731  1.0000
  H   H12       1.0  0.29926  0.09477  0.16269  1.0000
  H   H13       1.0  0.96665  0.54430  0.59937  1.0000
  H   H14       1.0  0.46665  0.95570  0.40063  1.0000
  H   H15       1.0  0.03335  0.45571  0.40063  1.0000
  H   H16       1.0  0.53335  0.04429  0.59937  1.0000
  H   H17       1.0  0.14778  0.66449  0.48922  1.0000
  H   H18       1.0  0.64778  0.83551  0.51078  1.0000
  H   H19       1.0  0.85222  0.33551  0.51078  1.0000
  H   H20       1.0  0.35222  0.16449  0.48922  1.0000
  H   H21       1.0  0.30296  0.92134  0.80598  1.0000
  H   H22       1.0  0.80296  0.57866  0.19401  1.0000
  H   H23       1.0  0.69705  0.07866  0.19402  1.0000
  H   H24       1.0  0.19705  0.42134  0.80598  1.0000
  C   C1        1.0  0.07066  0.94530  0.28971  1.0000
  C   C2        1.0  0.57066  0.55470  0.71029  1.0000
  C   C3        1.0  0.92933  0.05469  0.71029  1.0000
  C   C4        1.0  0.42933  0.44531  0.28971  1.0000
  C   C5        1.0  0.10697  0.85947  0.35772  1.0000
  C   C6        1.0  0.60697  0.64053  0.64227  1.0000
  C   C7        1.0  0.89303  0.14053  0.64228  1.0000
  C   C8        1.0  0.39303  0.35947  0.35772  1.0000
  C   C9        1.0  0.16401  0.69596  0.20058  1.0000
  C   C10       1.0  0.66401  0.80404  0.79942  1.0000
  C   C11       1.0  0.83599  0.30404  0.79943  1.0000
  C   C12       1.0  0.33599  0.19596  0.20057  1.0000
  C   C13       1.0  0.13024  0.78176  0.13127  1.0000
  C   C14       1.0  0.63024  0.71824  0.86873  1.0000
  C   C15       1.0  0.86975  0.21824  0.86874  1.0000
  C   C16       1.0  0.36976  0.28176  0.13126  1.0000
  C   C17       1.0  0.15527  0.73326  0.00514  1.0000
  C   C18       1.0  0.65528  0.76674  0.99486  1.0000
  C   C19       1.0  0.84472  0.26674  0.99486  1.0000
  C   C20       1.0  0.34473  0.23326  0.00514  1.0000
  C   C21       1.0  0.13293  0.77071  0.82118  1.0000
  C   C22       1.0  0.63293  0.72929  0.17883  1.0000
  C   C23       1.0  0.86707  0.22929  0.17883  1.0000
  C   C24       1.0  0.36707  0.27071  0.82117  1.0000
  C   C25       1.0  0.04278  0.66394  0.75924  1.0000
  C   C26       1.0  0.54278  0.83606  0.24076  1.0000
  C   C27       1.0  0.95722  0.33606  0.24076  1.0000
  C   C28       1.0  0.45722  0.16394  0.75924  1.0000
  C   C29       1.0  0.04380  0.62498  0.64202  1.0000
  C   C30       1.0  0.54380  0.87502  0.35798  1.0000
  C   C31       1.0  0.95621  0.37502  0.35798  1.0000
  C   C32       1.0  0.45620  0.12498  0.64202  1.0000
  C   C33       1.0  0.14313  0.69037  0.58168  1.0000
  C   C34       1.0  0.64313  0.80962  0.41832  1.0000
  C   C35       1.0  0.85688  0.30963  0.41833  1.0000
  C   C36       1.0  0.35687  0.19037  0.58167  1.0000
  C   C37       1.0  0.23608  0.79352  0.64329  1.0000
  C   C38       1.0  0.73608  0.70648  0.35671  1.0000
  C   C39       1.0  0.76392  0.20648  0.35671  1.0000
  C   C40       1.0  0.26392  0.29352  0.64329  1.0000
  C   C41       1.0  0.23293  0.83670  0.76072  1.0000
  C   C42       1.0  0.73293  0.66331  0.23928  1.0000
  C   C43       1.0  0.76707  0.16330  0.23929  1.0000
  C   C44       1.0  0.26707  0.33669  0.76072  1.0000
  N   N1        1.0  0.08205  0.90582  0.17686  1.0000
  N   N2        1.0  0.58205  0.59418  0.82314  1.0000
  N   N3        1.0  0.91794  0.09418  0.82315  1.0000
  N   N4        1.0  0.41795  0.40582  0.17685  1.0000
  N   N5        1.0  0.15273  0.73445  0.31355  1.0000
  N   N6        1.0  0.65273  0.76556  0.68645  1.0000
  N   N7        1.0  0.84728  0.26555  0.68645  1.0000
  N   N8        1.0  0.34728  0.23445  0.31355  1.0000
  N   N9        1.0  0.11587  0.81561  0.93988  1.0000
  N   N10       1.0  0.61586  0.68439  0.06012  1.0000
  N   N11       1.0  0.88413  0.18439  0.06012  1.0000
  N   N12       1.0  0.38414  0.31561  0.93988  1.0000
  O   O1        1.0  0.21468  0.62086  0.96750  1.0000
  O   O2        1.0  0.71469  0.87913  0.03249  1.0000
  O   O3        1.0  0.78532  0.37914  0.03250  1.0000
  O   O4        1.0  0.28532  0.12086  0.96750  1.0000
  F   F1        1.0  0.94525  0.59869  0.81690  1.0000
  F   F2        1.0  0.44525  0.90131  0.18310  1.0000
  F   F3        1.0  0.05475  0.40131  0.18310  1.0000
  F   F4        1.0  0.55475  0.09869  0.81689  1.0000
  F   F5        1.0  0.33368  0.85738  0.58373  1.0000
  F   F6        1.0  0.83368  0.64262  0.41627  1.0000
  F   F7        1.0  0.66632  0.14262  0.41627  1.0000
  F   F8        1.0  0.16632  0.35738  0.58373  1.0000
