data_image0
_chemical_formula_structural       Hg2H28C44N12O4F4
_chemical_formula_sum              "Hg2 H28 C44 N12 O4 F4"
_cell_length_a       7.89601
_cell_length_b       10.3409
_cell_length_c       12.1728
_cell_angle_alpha    101.463
_cell_angle_beta     89.9999
_cell_angle_gamma    90.0001

_space_group_name_H-M_alt    "P 1"
_space_group_IT_number       1

loop_
  _space_group_symop_operation_xyz
  'x, y, z'

loop_
  _atom_site_type_symbol
  _atom_site_label
  _atom_site_symmetry_multiplicity
  _atom_site_fract_x
  _atom_site_fract_y
  _atom_site_fract_z
  _atom_site_occupancy
  Hg  Hg1       1.0  0.00000  1.00000  0.50000  1.0000
  Hg  Hg2       1.0  0.50000  0.50000  0.50000  1.0000
  H   H1        1.0  0.04247  0.86368  0.18229  1.0000
  H   H2        1.0  0.54247  0.63632  0.81771  1.0000
  H   H3        1.0  0.95753  0.13633  0.81771  1.0000
  H   H4        1.0  0.45753  0.36367  0.18229  1.0000
  H   H5        1.0  0.11241  0.64019  0.06640  1.0000
  H   H6        1.0  0.61241  0.85981  0.93360  1.0000
  H   H7        1.0  0.88759  0.35981  0.93360  1.0000
  H   H8        1.0  0.38760  0.14019  0.06640  1.0000
  H   H9        1.0  0.18391  0.49510  0.35801  1.0000
  H   H10       1.0  0.68391  0.00490  0.64199  1.0000
  H   H11       1.0  0.81609  0.50490  0.64199  1.0000
  H   H12       1.0  0.31609  0.99510  0.35801  1.0000
  H   H13       1.0  0.94220  0.70874  0.71906  1.0000
  H   H14       1.0  0.44220  0.79126  0.28094  1.0000
  H   H15       1.0  0.05780  0.29126  0.28094  1.0000
  H   H16       1.0  0.55780  0.20874  0.71906  1.0000
  H   H17       1.0  0.18217  0.93586  0.01279  1.0000
  H   H18       1.0  0.68217  0.56414  0.98721  1.0000
  H   H19       1.0  0.81783  0.06414  0.98721  1.0000
  H   H20       1.0  0.31783  0.43586  0.01279  1.0000
  H   H21       1.0  0.33327  0.06885  0.89088  1.0000
  H   H22       1.0  0.83327  0.43115  0.10912  1.0000
  H   H23       1.0  0.66673  0.93116  0.10912  1.0000
  H   H24       1.0  0.16673  0.56885  0.89088  1.0000
  H   H25       1.0  0.28423  0.02478  0.68589  1.0000
  H   H26       1.0  0.78423  0.47522  0.31411  1.0000
  H   H27       1.0  0.71577  0.97522  0.31411  1.0000
  H   H28       1.0  0.21577  0.52479  0.68589  1.0000
  C   C1        1.0  0.07467  0.78071  0.22130  1.0000
  C   C2        1.0  0.57467  0.71929  0.77870  1.0000
  C   C3        1.0  0.92532  0.21929  0.77870  1.0000
  C   C4        1.0  0.42532  0.28071  0.22131  1.0000
  C   C5        1.0  0.11379  0.65646  0.15756  1.0000
  C   C6        1.0  0.61379  0.84354  0.84244  1.0000
  C   C7        1.0  0.88620  0.34354  0.84244  1.0000
  C   C8        1.0  0.38621  0.15646  0.15756  1.0000
  C   C9        1.0  0.15336  0.57681  0.31704  1.0000
  C   C10       1.0  0.65336  0.92319  0.68296  1.0000
  C   C11       1.0  0.84664  0.42319  0.68296  1.0000
  C   C12       1.0  0.34664  0.07681  0.31704  1.0000
  C   C13       1.0  0.11595  0.70115  0.38242  1.0000
  C   C14       1.0  0.61595  0.79885  0.61757  1.0000
  C   C15       1.0  0.88405  0.29885  0.61757  1.0000
  C   C16       1.0  0.38404  0.20115  0.38243  1.0000
  C   C17       1.0  0.12705  0.71971  0.50826  1.0000
  C   C18       1.0  0.62705  0.78029  0.49174  1.0000
  C   C19       1.0  0.87295  0.28029  0.49174  1.0000
  C   C20       1.0  0.37295  0.21971  0.50826  1.0000
  C   C21       1.0  0.11285  0.86310  0.68820  1.0000
  C   C22       1.0  0.61285  0.63690  0.31180  1.0000
  C   C23       1.0  0.88716  0.13690  0.31180  1.0000
  C   C24       1.0  0.38715  0.36310  0.68820  1.0000
  C   C25       1.0  0.02816  0.78791  0.75527  1.0000
  C   C26       1.0  0.52815  0.71208  0.24473  1.0000
  C   C27       1.0  0.97185  0.21209  0.24473  1.0000
  C   C28       1.0  0.47184  0.28792  0.75527  1.0000
  C   C29       1.0  0.05411  0.81877  0.87025  1.0000
  C   C30       1.0  0.55411  0.68123  0.12975  1.0000
  C   C31       1.0  0.94590  0.18123  0.12976  1.0000
  C   C32       1.0  0.44589  0.31878  0.87025  1.0000
  C   C33       1.0  0.16294  0.91756  0.92243  1.0000
  C   C34       1.0  0.66294  0.58244  0.07757  1.0000
  C   C35       1.0  0.83706  0.08244  0.07757  1.0000
  C   C36       1.0  0.33706  0.41756  0.92243  1.0000
  C   C37       1.0  0.24583  0.99096  0.85398  1.0000
  C   C38       1.0  0.74583  0.50904  0.14601  1.0000
  C   C39       1.0  0.75417  0.00904  0.14601  1.0000
  C   C40       1.0  0.25417  0.49096  0.85399  1.0000
  C   C41       1.0  0.22087  0.96547  0.73826  1.0000
  C   C42       1.0  0.72086  0.53453  0.26173  1.0000
  C   C43       1.0  0.77914  0.03453  0.26173  1.0000
  C   C44       1.0  0.27913  0.46548  0.73827  1.0000
  N   N1        1.0  0.07754  0.80257  0.33323  1.0000
  N   N2        1.0  0.57754  0.69743  0.66677  1.0000
  N   N3        1.0  0.92246  0.19743  0.66677  1.0000
  N   N4        1.0  0.42245  0.30257  0.33323  1.0000
  N   N5        1.0  0.15454  0.55431  0.20498  1.0000
  N   N6        1.0  0.65454  0.94569  0.79502  1.0000
  N   N7        1.0  0.84546  0.44569  0.79502  1.0000
  N   N8        1.0  0.34546  0.05430  0.20498  1.0000
  N   N9        1.0  0.08830  0.83941  0.56998  1.0000
  N   N10       1.0  0.58830  0.66059  0.43002  1.0000
  N   N11       1.0  0.91170  0.16059  0.43002  1.0000
  N   N12       1.0  0.41170  0.33941  0.56998  1.0000
  O   O1        1.0  0.17719  0.62343  0.54819  1.0000
  O   O2        1.0  0.67719  0.87657  0.45180  1.0000
  O   O3        1.0  0.82281  0.37657  0.45180  1.0000
  O   O4        1.0  0.32281  0.12343  0.54820  1.0000
  F   F1        1.0  0.96593  0.74818  0.93613  1.0000
  F   F2        1.0  0.46593  0.75183  0.06387  1.0000
  F   F3        1.0  0.03407  0.25183  0.06387  1.0000
  F   F4        1.0  0.53407  0.24818  0.93613  1.0000
