data_image0
_chemical_formula_structural       Hg2H20C44N12O4F12
_chemical_formula_sum              "Hg2 H20 C44 N12 O4 F12"
_cell_length_a       8.12079
_cell_length_b       10.2607
_cell_length_c       12.5837
_cell_angle_alpha    96.8902
_cell_angle_beta     90.0002
_cell_angle_gamma    89.9999

_space_group_name_H-M_alt    "P 1"
_space_group_IT_number       1

loop_
  _space_group_symop_operation_xyz
  'x, y, z'

loop_
  _atom_site_type_symbol
  _atom_site_label
  _atom_site_symmetry_multiplicity
  _atom_site_fract_x
  _atom_site_fract_y
  _atom_site_fract_z
  _atom_site_occupancy
  Hg  Hg1       1.0  1.00000  0.50000  0.50000  1.0000
  Hg  Hg2       1.0  0.50000  1.00000  0.50000  1.0000
  H   H1        1.0  0.06006  0.62857  0.80200  1.0000
  H   H2        1.0  0.56005  0.87143  0.19800  1.0000
  H   H3        1.0  0.93995  0.37143  0.19800  1.0000
  H   H4        1.0  0.43994  0.12857  0.80200  1.0000
  H   H5        1.0  0.09292  0.85696  0.90022  1.0000
  H   H6        1.0  0.59291  0.64304  0.09978  1.0000
  H   H7        1.0  0.90708  0.14304  0.09978  1.0000
  H   H8        1.0  0.40708  0.35696  0.90022  1.0000
  H   H9        1.0  0.15246  0.00399  0.60885  1.0000
  H   H10       1.0  0.65245  0.49601  0.39116  1.0000
  H   H11       1.0  0.84755  0.99601  0.39116  1.0000
  H   H12       1.0  0.34755  0.50399  0.60884  1.0000
  H   H13       1.0  0.27089  0.48351  0.30624  1.0000
  H   H14       1.0  0.77088  0.01649  0.69376  1.0000
  H   H15       1.0  0.72911  0.51649  0.69376  1.0000
  H   H16       1.0  0.22911  0.98351  0.30624  1.0000
  H   H17       1.0  0.92317  0.80138  0.28694  1.0000
  H   H18       1.0  0.42317  0.69862  0.71306  1.0000
  H   H19       1.0  0.07683  0.19862  0.71306  1.0000
  H   H20       1.0  0.57683  0.30138  0.28694  1.0000
  C   C1        1.0  0.07947  0.71322  0.75902  1.0000
  C   C2        1.0  0.57946  0.78678  0.24098  1.0000
  C   C3        1.0  0.92053  0.28678  0.24099  1.0000
  C   C4        1.0  0.42054  0.21322  0.75902  1.0000
  C   C5        1.0  0.09826  0.83973  0.81302  1.0000
  C   C6        1.0  0.59825  0.66027  0.18698  1.0000
  C   C7        1.0  0.90174  0.16027  0.18698  1.0000
  C   C8        1.0  0.40175  0.33973  0.81302  1.0000
  C   C9        1.0  0.13246  0.92075  0.65367  1.0000
  C   C10       1.0  0.63245  0.57925  0.34633  1.0000
  C   C11       1.0  0.86754  0.07925  0.34633  1.0000
  C   C12       1.0  0.36755  0.42075  0.65367  1.0000
  C   C13       1.0  0.11537  0.79441  0.59848  1.0000
  C   C14       1.0  0.61537  0.70559  0.40152  1.0000
  C   C15       1.0  0.88463  0.20559  0.40152  1.0000
  C   C16       1.0  0.38463  0.29441  0.59848  1.0000
  C   C17       1.0  0.13188  0.77700  0.47841  1.0000
  C   C18       1.0  0.63187  0.72300  0.52159  1.0000
  C   C19       1.0  0.86812  0.22300  0.52159  1.0000
  C   C20       1.0  0.36813  0.27700  0.47841  1.0000
  C   C21       1.0  0.09712  0.64557  0.31043  1.0000
  C   C22       1.0  0.59711  0.85443  0.68956  1.0000
  C   C23       1.0  0.90288  0.35443  0.68957  1.0000
  C   C24       1.0  0.40289  0.14557  0.31043  1.0000
  C   C25       1.0  0.20069  0.54771  0.26005  1.0000
  C   C26       1.0  0.70069  0.95229  0.73994  1.0000
  C   C27       1.0  0.79931  0.45229  0.73995  1.0000
  C   C28       1.0  0.29931  0.04772  0.26005  1.0000
  C   C29       1.0  0.21015  0.53203  0.14917  1.0000
  C   C30       1.0  0.71015  0.96797  0.85083  1.0000
  C   C31       1.0  0.78985  0.46797  0.85084  1.0000
  C   C32       1.0  0.28985  0.03204  0.14917  1.0000
  C   C33       1.0  0.11968  0.61004  0.08734  1.0000
  C   C34       1.0  0.61968  0.88996  0.91266  1.0000
  C   C35       1.0  0.88032  0.38995  0.91266  1.0000
  C   C36       1.0  0.38032  0.11005  0.08734  1.0000
  C   C37       1.0  0.01471  0.70468  0.13890  1.0000
  C   C38       1.0  0.51472  0.79532  0.86109  1.0000
  C   C39       1.0  0.98529  0.29532  0.86110  1.0000
  C   C40       1.0  0.48529  0.20468  0.13890  1.0000
  C   C41       1.0  0.00376  0.72467  0.24965  1.0000
  C   C42       1.0  0.50376  0.77533  0.75035  1.0000
  C   C43       1.0  0.99624  0.27533  0.75035  1.0000
  C   C44       1.0  0.49624  0.22467  0.24965  1.0000
  N   N1        1.0  0.08795  0.69119  0.65221  1.0000
  N   N2        1.0  0.58795  0.80881  0.34779  1.0000
  N   N3        1.0  0.91205  0.30881  0.34779  1.0000
  N   N4        1.0  0.41205  0.19119  0.65221  1.0000
  N   N5        1.0  0.12439  0.94392  0.76035  1.0000
  N   N6        1.0  0.62438  0.55607  0.23964  1.0000
  N   N7        1.0  0.87561  0.05608  0.23965  1.0000
  N   N8        1.0  0.37561  0.44392  0.76035  1.0000
  N   N9        1.0  0.08394  0.66186  0.42416  1.0000
  N   N10       1.0  0.58394  0.83814  0.57584  1.0000
  N   N11       1.0  0.91606  0.33814  0.57584  1.0000
  N   N12       1.0  0.41606  0.16186  0.42416  1.0000
  O   O1        1.0  0.19031  0.87131  0.43548  1.0000
  O   O2        1.0  0.69031  0.62869  0.56452  1.0000
  O   O3        1.0  0.80969  0.12869  0.56452  1.0000
  O   O4        1.0  0.30970  0.37131  0.43548  1.0000
  F   F1        1.0  0.30725  0.43760  0.09685  1.0000
  F   F2        1.0  0.80724  0.06240  0.90315  1.0000
  F   F3        1.0  0.69275  0.56240  0.90315  1.0000
  F   F4        1.0  0.19275  0.93761  0.09685  1.0000
  F   F5        1.0  0.13037  0.59172  0.97934  1.0000
  F   F6        1.0  0.63036  0.90828  0.02065  1.0000
  F   F7        1.0  0.86964  0.40828  0.02066  1.0000
  F   F8        1.0  0.36964  0.09172  0.97934  1.0000
  F   F9        1.0  0.92155  0.77515  0.07717  1.0000
  F   F10       1.0  0.42155  0.72485  0.92283  1.0000
  F   F11       1.0  0.07846  0.22485  0.92284  1.0000
  F   F12       1.0  0.57846  0.27515  0.07717  1.0000
