data_image0
_chemical_formula_structural       Hg2H28C44N12O4F4
_chemical_formula_sum              "Hg2 H28 C44 N12 O4 F4"
_cell_length_a       8.25589
_cell_length_b       10.3731
_cell_length_c       12.1
_cell_angle_alpha    104.751
_cell_angle_beta     89.9993
_cell_angle_gamma    90.0002

_space_group_name_H-M_alt    "P 1"
_space_group_IT_number       1

loop_
  _space_group_symop_operation_xyz
  'x, y, z'

loop_
  _atom_site_type_symbol
  _atom_site_label
  _atom_site_symmetry_multiplicity
  _atom_site_fract_x
  _atom_site_fract_y
  _atom_site_fract_z
  _atom_site_occupancy
  Hg  Hg1       1.0  0.00000  1.00000  0.00000  1.0000
  Hg  Hg2       1.0  0.50000  0.50000  1.00000  1.0000
  H   H1        1.0  0.03141  0.94627  0.66940  1.0000
  H   H2        1.0  0.53141  0.55373  0.33060  1.0000
  H   H3        1.0  0.96859  0.05373  0.33060  1.0000
  H   H4        1.0  0.46859  0.44627  0.66940  1.0000
  H   H5        1.0  0.11060  0.09652  0.54258  1.0000
  H   H6        1.0  0.61060  0.40349  0.45742  1.0000
  H   H7        1.0  0.88939  0.90349  0.45742  1.0000
  H   H8        1.0  0.38940  0.59651  0.54258  1.0000
  H   H9        1.0  0.21168  0.40128  0.83084  1.0000
  H   H10       1.0  0.71167  0.09872  0.16916  1.0000
  H   H11       1.0  0.78832  0.59872  0.16916  1.0000
  H   H12       1.0  0.28833  0.90128  0.83084  1.0000
  H   H13       1.0  0.99349  0.47355  0.40522  1.0000
  H   H14       1.0  0.49350  0.02645  0.59478  1.0000
  H   H15       1.0  0.00651  0.52645  0.59478  1.0000
  H   H16       1.0  0.50650  0.97355  0.40522  1.0000
  H   H17       1.0  0.17563  0.34713  0.51104  1.0000
  H   H18       1.0  0.67564  0.15287  0.48896  1.0000
  H   H19       1.0  0.82437  0.65287  0.48896  1.0000
  H   H20       1.0  0.32436  0.84713  0.51104  1.0000
  H   H21       1.0  0.33186  0.15318  0.39976  1.0000
  H   H22       1.0  0.83187  0.34683  0.60024  1.0000
  H   H23       1.0  0.66814  0.84682  0.60024  1.0000
  H   H24       1.0  0.16813  0.65317  0.39976  1.0000
  H   H25       1.0  0.30125  0.07709  0.18721  1.0000
  H   H26       1.0  0.80125  0.42291  0.81279  1.0000
  H   H27       1.0  0.69875  0.92291  0.81279  1.0000
  H   H28       1.0  0.19875  0.57709  0.18720  1.0000
  C   C1        1.0  0.07170  0.04868  0.70521  1.0000
  C   C2        1.0  0.57170  0.45132  0.29479  1.0000
  C   C3        1.0  0.92830  0.95131  0.29479  1.0000
  C   C4        1.0  0.42830  0.54868  0.70521  1.0000
  C   C5        1.0  0.11535  0.13181  0.63570  1.0000
  C   C6        1.0  0.61534  0.36820  0.36430  1.0000
  C   C7        1.0  0.88465  0.86820  0.36431  1.0000
  C   C8        1.0  0.38466  0.63180  0.63569  1.0000
  C   C9        1.0  0.17210  0.29947  0.79331  1.0000
  C   C10       1.0  0.67210  0.20053  0.20668  1.0000
  C   C11       1.0  0.82790  0.70053  0.20669  1.0000
  C   C12       1.0  0.32790  0.79947  0.79332  1.0000
  C   C13       1.0  0.13063  0.21649  0.86423  1.0000
  C   C14       1.0  0.63063  0.28351  0.13577  1.0000
  C   C15       1.0  0.86937  0.78351  0.13577  1.0000
  C   C16       1.0  0.36937  0.71649  0.86423  1.0000
  C   C17       1.0  0.15272  0.26886  0.99158  1.0000
  C   C18       1.0  0.65272  0.23115  0.00842  1.0000
  C   C19       1.0  0.84728  0.73114  0.00842  1.0000
  C   C20       1.0  0.34728  0.76885  0.99158  1.0000
  C   C21       1.0  0.13667  0.23384  0.17793  1.0000
  C   C22       1.0  0.63667  0.26616  0.82207  1.0000
  C   C23       1.0  0.86333  0.76616  0.82207  1.0000
  C   C24       1.0  0.36333  0.73384  0.17793  1.0000
  C   C25       1.0  0.05362  0.34552  0.24269  1.0000
  C   C26       1.0  0.55362  0.15448  0.75731  1.0000
  C   C27       1.0  0.94638  0.65448  0.75731  1.0000
  C   C28       1.0  0.44638  0.84552  0.24269  1.0000
  C   C29       1.0  0.06518  0.38783  0.36073  1.0000
  C   C30       1.0  0.56519  0.11218  0.63927  1.0000
  C   C31       1.0  0.93482  0.61217  0.63927  1.0000
  C   C32       1.0  0.43481  0.88782  0.36073  1.0000
  C   C33       1.0  0.16580  0.31792  0.41797  1.0000
  C   C34       1.0  0.66581  0.18209  0.58203  1.0000
  C   C35       1.0  0.83420  0.68208  0.58203  1.0000
  C   C36       1.0  0.33419  0.81791  0.41797  1.0000
  C   C37       1.0  0.25217  0.20717  0.35546  1.0000
  C   C38       1.0  0.75218  0.29283  0.64454  1.0000
  C   C39       1.0  0.74783  0.79283  0.64454  1.0000
  C   C40       1.0  0.24782  0.70717  0.35545  1.0000
  C   C41       1.0  0.23739  0.16497  0.23682  1.0000
  C   C42       1.0  0.73740  0.33504  0.76318  1.0000
  C   C43       1.0  0.76261  0.83503  0.76318  1.0000
  C   C44       1.0  0.26260  0.66496  0.23682  1.0000
  N   N1        1.0  0.07939  0.09156  0.81907  1.0000
  N   N2        1.0  0.57939  0.40844  0.18093  1.0000
  N   N3        1.0  0.92061  0.90844  0.18093  1.0000
  N   N4        1.0  0.42061  0.59156  0.81907  1.0000
  N   N5        1.0  0.16496  0.25754  0.67938  1.0000
  N   N6        1.0  0.66496  0.24246  0.32062  1.0000
  N   N7        1.0  0.83504  0.74246  0.32062  1.0000
  N   N8        1.0  0.33504  0.75754  0.67938  1.0000
  N   N9        1.0  0.11384  0.18769  0.05854  1.0000
  N   N10       1.0  0.61385  0.31231  0.94146  1.0000
  N   N11       1.0  0.88616  0.81231  0.94146  1.0000
  N   N12       1.0  0.38615  0.68769  0.05854  1.0000
  O   O1        1.0  0.21114  0.38332  0.02850  1.0000
  O   O2        1.0  0.71114  0.11669  0.97150  1.0000
  O   O3        1.0  0.78886  0.61668  0.97150  1.0000
  O   O4        1.0  0.28886  0.88331  0.02850  1.0000
  F   F1        1.0  0.95196  0.41270  0.18818  1.0000
  F   F2        1.0  0.45197  0.08730  0.81182  1.0000
  F   F3        1.0  0.04804  0.58730  0.81182  1.0000
  F   F4        1.0  0.54803  0.91270  0.18818  1.0000
