data_image0
_chemical_formula_structural       Dy4H32C24O40
_chemical_formula_sum              "Dy4 H32 C24 O40"
_cell_length_a       10.4249
_cell_length_b       10.7532
_cell_length_c       10.7532
_cell_angle_alpha    70.6373
_cell_angle_beta     61.005
_cell_angle_gamma    61.005

_space_group_name_H-M_alt    "P 1"
_space_group_IT_number       1

loop_
  _space_group_symop_operation_xyz
  'x, y, z'

loop_
  _atom_site_type_symbol
  _atom_site_label
  _atom_site_symmetry_multiplicity
  _atom_site_fract_x
  _atom_site_fract_y
  _atom_site_fract_z
  _atom_site_occupancy
  Dy  Dy1       1.0  0.85174  0.12010  0.38156  1.0000
  Dy  Dy2       1.0  0.35339  0.87990  0.61844  1.0000
  Dy  Dy3       1.0  0.35174  0.38156  0.12010  1.0000
  Dy  Dy4       1.0  0.85339  0.61844  0.87990  1.0000
  H   H1        1.0  0.79384  0.76541  0.11517  1.0000
  H   H2        1.0  0.67442  0.23459  0.88483  1.0000
  H   H3        1.0  0.29384  0.11517  0.76541  1.0000
  H   H4        1.0  0.17442  0.88483  0.23459  1.0000
  H   H5        1.0  0.08178  0.31474  0.16962  1.0000
  H   H6        1.0  0.56614  0.68526  0.83038  1.0000
  H   H7        1.0  0.58178  0.16962  0.31474  1.0000
  H   H8        1.0  0.06614  0.83038  0.68526  1.0000
  H   H9        1.0  0.82760  0.00274  0.17024  1.0000
  H   H10       1.0  0.00058  0.99726  0.82976  1.0000
  H   H11       1.0  0.32760  0.17024  0.00274  1.0000
  H   H12       1.0  0.50058  0.82976  0.99726  1.0000
  H   H13       1.0  0.93900  0.21772  0.55311  1.0000
  H   H14       1.0  0.70983  0.78228  0.44689  1.0000
  H   H15       1.0  0.43900  0.55311  0.21772  1.0000
  H   H16       1.0  0.20983  0.44689  0.78228  1.0000
  H   H17       1.0  0.09777  0.11949  0.44607  1.0000
  H   H18       1.0  0.66334  0.88051  0.55393  1.0000
  H   H19       1.0  0.59777  0.44607  0.11950  1.0000
  H   H20       1.0  0.16334  0.55393  0.88051  1.0000
  H   H21       1.0  0.71114  0.62974  0.30953  1.0000
  H   H22       1.0  0.65041  0.37026  0.69047  1.0000
  H   H23       1.0  0.21114  0.30953  0.62974  1.0000
  H   H24       1.0  0.15041  0.69047  0.37026  1.0000
  H   H25       1.0  0.92770  0.43402  0.37013  1.0000
  H   H26       1.0  0.73185  0.56598  0.62987  1.0000
  H   H27       1.0  0.42770  0.37013  0.43402  1.0000
  H   H28       1.0  0.23185  0.62987  0.56598  1.0000
  H   H29       1.0  0.94552  0.15073  0.96310  1.0000
  H   H30       1.0  0.05935  0.84927  0.03690  1.0000
  H   H31       1.0  0.44552  0.96310  0.15073  1.0000
  H   H32       1.0  0.55935  0.03690  0.84927  1.0000
  C   C1        1.0  0.77554  0.45854  0.20605  1.0000
  C   C2        1.0  0.44014  0.54146  0.79395  1.0000
  C   C3        1.0  0.27554  0.20605  0.45854  1.0000
  C   C4        1.0  0.94014  0.79395  0.54146  1.0000
  C   C5        1.0  0.81529  0.56972  0.22219  1.0000
  C   C6        1.0  0.60721  0.43028  0.77781  1.0000
  C   C7        1.0  0.31529  0.22219  0.56972  1.0000
  C   C8        1.0  0.10721  0.77781  0.43028  1.0000
  C   C9        1.0  0.95970  0.49646  0.26331  1.0000
  C   C10       1.0  0.71947  0.50354  0.73669  1.0000
  C   C11       1.0  0.45970  0.26331  0.49646  1.0000
  C   C12       1.0  0.21947  0.73669  0.50354  1.0000
  C   C13       1.0  0.00395  0.60954  0.27188  1.0000
  C   C14       1.0  0.88536  0.39046  0.72813  1.0000
  C   C15       1.0  0.50395  0.27188  0.60954  1.0000
  C   C16       1.0  0.38536  0.72813  0.39046  1.0000
  C   C17       1.0  0.10009  0.13642  0.04595  1.0000
  C   C18       1.0  0.28245  0.86358  0.95405  1.0000
  C   C19       1.0  0.60009  0.04595  0.13642  1.0000
  C   C20       1.0  0.78245  0.95405  0.86358  1.0000
  C   C21       1.0  0.00492  0.07077  0.03463  1.0000
  C   C22       1.0  0.11031  0.92924  0.96537  1.0000
  C   C23       1.0  0.50492  0.03462  0.07077  1.0000
  C   C24       1.0  0.61031  0.96538  0.92923  1.0000
  O   O1        1.0  0.74950  0.36521  0.31201  1.0000
  O   O2        1.0  0.42671  0.63479  0.68799  1.0000
  O   O3        1.0  0.24950  0.31201  0.36521  1.0000
  O   O4        1.0  0.92671  0.68799  0.63479  1.0000
  O   O5        1.0  0.77436  0.46426  0.08589  1.0000
  O   O6        1.0  0.32450  0.53574  0.91411  1.0000
  O   O7        1.0  0.27436  0.08589  0.46426  1.0000
  O   O8        1.0  0.82450  0.91411  0.53574  1.0000
  O   O9        1.0  0.84365  0.66536  0.09172  1.0000
  O   O10       1.0  0.60073  0.33464  0.90828  1.0000
  O   O11       1.0  0.34365  0.09172  0.66536  1.0000
  O   O12       1.0  0.10073  0.90828  0.33464  1.0000
  O   O13       1.0  0.09641  0.40307  0.16162  1.0000
  O   O14       1.0  0.66110  0.59693  0.83838  1.0000
  O   O15       1.0  0.59641  0.16162  0.40307  1.0000
  O   O16       1.0  0.16110  0.83838  0.59693  1.0000
  O   O17       1.0  0.15115  0.59028  0.20990  1.0000
  O   O18       1.0  0.95132  0.40972  0.79010  1.0000
  O   O19       1.0  0.65114  0.20990  0.59028  1.0000
  O   O20       1.0  0.45132  0.79010  0.40972  1.0000
  O   O21       1.0  0.89455  0.71384  0.33821  1.0000
  O   O22       1.0  0.94660  0.28616  0.66179  1.0000
  O   O23       1.0  0.39455  0.33821  0.71384  1.0000
  O   O24       1.0  0.44660  0.66179  0.28616  1.0000
  O   O25       1.0  0.88862  0.05043  0.17385  1.0000
  O   O26       1.0  0.11290  0.94957  0.82615  1.0000
  O   O27       1.0  0.38862  0.17385  0.05043  1.0000
  O   O28       1.0  0.61290  0.82615  0.94957  1.0000
  O   O29       1.0  0.05159  0.17510  0.16652  1.0000
  O   O30       1.0  0.39321  0.82490  0.83348  1.0000
  O   O31       1.0  0.55159  0.16652  0.17510  1.0000
  O   O32       1.0  0.89321  0.83348  0.82490  1.0000
  O   O33       1.0  0.22015  0.15004  0.93751  1.0000
  O   O34       1.0  0.30769  0.84996  0.06249  1.0000
  O   O35       1.0  0.72015  0.93751  0.15004  1.0000
  O   O36       1.0  0.80769  0.06249  0.84996  1.0000
  O   O37       1.0  0.98112  0.16327  0.47235  1.0000
  O   O38       1.0  0.61675  0.83673  0.52765  1.0000
  O   O39       1.0  0.48112  0.47235  0.16327  1.0000
  O   O40       1.0  0.11674  0.52765  0.83673  1.0000
