data_image0
_chemical_formula_structural       Nd4H16C24O32
_chemical_formula_sum              "Nd4 H16 C24 O32"
_cell_length_a       6.97068
_cell_length_b       7.08329
_cell_length_c       16.8234
_cell_angle_alpha    90.0002
_cell_angle_beta     89.9999
_cell_angle_gamma    100.853

_space_group_name_H-M_alt    "P 1"
_space_group_IT_number       1

loop_
  _space_group_symop_operation_xyz
  'x, y, z'

loop_
  _atom_site_type_symbol
  _atom_site_label
  _atom_site_symmetry_multiplicity
  _atom_site_fract_x
  _atom_site_fract_y
  _atom_site_fract_z
  _atom_site_occupancy
  Nd  Nd1       1.0  0.50985  0.25793  0.41967  1.0000
  Nd  Nd2       1.0  0.99015  0.74207  0.91967  1.0000
  Nd  Nd3       1.0  0.49015  0.74207  0.58033  1.0000
  Nd  Nd4       1.0  0.00985  0.25793  0.08033  1.0000
  H   H1        1.0  0.84675  0.59417  0.38164  1.0000
  H   H2        1.0  0.65325  0.40583  0.88164  1.0000
  H   H3        1.0  0.15325  0.40583  0.61836  1.0000
  H   H4        1.0  0.34675  0.59417  0.11836  1.0000
  H   H5        1.0  0.94953  0.41989  0.41243  1.0000
  H   H6        1.0  0.55047  0.58010  0.91242  1.0000
  H   H7        1.0  0.05047  0.58010  0.58757  1.0000
  H   H8        1.0  0.44953  0.41989  0.08757  1.0000
  H   H9        1.0  0.77387  0.01272  0.32112  1.0000
  H   H10       1.0  0.72613  0.98728  0.82112  1.0000
  H   H11       1.0  0.22613  0.98727  0.67888  1.0000
  H   H12       1.0  0.27387  0.01273  0.17888  1.0000
  H   H13       1.0  0.81139  0.22395  0.28409  1.0000
  H   H14       1.0  0.68861  0.77605  0.78409  1.0000
  H   H15       1.0  0.18861  0.77605  0.71591  1.0000
  H   H16       1.0  0.31139  0.22395  0.21591  1.0000
  C   C1        1.0  0.35271  0.83146  0.32967  1.0000
  C   C2        1.0  0.14729  0.16854  0.82967  1.0000
  C   C3        1.0  0.64728  0.16854  0.67033  1.0000
  C   C4        1.0  0.85271  0.83147  0.17033  1.0000
  C   C5        1.0  0.35475  0.72662  0.25325  1.0000
  C   C6        1.0  0.14524  0.27337  0.75325  1.0000
  C   C7        1.0  0.64524  0.27338  0.74675  1.0000
  C   C8        1.0  0.85475  0.72663  0.24675  1.0000
  C   C9        1.0  0.40259  0.56138  0.29761  1.0000
  C   C10       1.0  0.09741  0.43861  0.79761  1.0000
  C   C11       1.0  0.59741  0.43862  0.70239  1.0000
  C   C12       1.0  0.90259  0.56138  0.20239  1.0000
  C   C13       1.0  0.40710  0.66754  0.37145  1.0000
  C   C14       1.0  0.09290  0.33246  0.87145  1.0000
  C   C15       1.0  0.59290  0.33246  0.62855  1.0000
  C   C16       1.0  0.90710  0.66754  0.12855  1.0000
  C   C17       1.0  0.86027  0.01980  0.49044  1.0000
  C   C18       1.0  0.63973  0.98020  0.99044  1.0000
  C   C19       1.0  0.13972  0.98020  0.50956  1.0000
  C   C20       1.0  0.36028  0.01980  0.00956  1.0000
  C   C21       1.0  0.94571  0.87603  0.53286  1.0000
  C   C22       1.0  0.55429  0.12398  0.03286  1.0000
  C   C23       1.0  0.05429  0.12398  0.46714  1.0000
  C   C24       1.0  0.44571  0.87602  0.96714  1.0000
  O   O1        1.0  0.32388  0.99609  0.34635  1.0000
  O   O2        1.0  0.17612  0.00391  0.84635  1.0000
  O   O3        1.0  0.67612  0.00391  0.65365  1.0000
  O   O4        1.0  0.82388  0.99609  0.15365  1.0000
  O   O5        1.0  0.33578  0.77342  0.18202  1.0000
  O   O6        1.0  0.16422  0.22658  0.68202  1.0000
  O   O7        1.0  0.66422  0.22659  0.81798  1.0000
  O   O8        1.0  0.83578  0.77342  0.31798  1.0000
  O   O9        1.0  0.44227  0.39601  0.28568  1.0000
  O   O10       1.0  0.05773  0.60398  0.78568  1.0000
  O   O11       1.0  0.55772  0.60399  0.71432  1.0000
  O   O12       1.0  0.94228  0.39601  0.21432  1.0000
  O   O13       1.0  0.45521  0.61691  0.44039  1.0000
  O   O14       1.0  0.04478  0.38309  0.94039  1.0000
  O   O15       1.0  0.54478  0.38309  0.55961  1.0000
  O   O16       1.0  0.95521  0.61691  0.05961  1.0000
  O   O17       1.0  0.68092  0.02698  0.48337  1.0000
  O   O18       1.0  0.81908  0.97302  0.98337  1.0000
  O   O19       1.0  0.31907  0.97302  0.51663  1.0000
  O   O20       1.0  0.18092  0.02698  0.01663  1.0000
  O   O21       1.0  0.86423  0.72890  0.57076  1.0000
  O   O22       1.0  0.63578  0.27110  0.07076  1.0000
  O   O23       1.0  0.13578  0.27110  0.42924  1.0000
  O   O24       1.0  0.36423  0.72890  0.92924  1.0000
  O   O25       1.0  0.73540  0.14016  0.32451  1.0000
  O   O26       1.0  0.76460  0.85984  0.82451  1.0000
  O   O27       1.0  0.26460  0.85984  0.67549  1.0000
  O   O28       1.0  0.23540  0.14016  0.17549  1.0000
  O   O29       1.0  0.83047  0.47704  0.41627  1.0000
  O   O30       1.0  0.66953  0.52296  0.91627  1.0000
  O   O31       1.0  0.16953  0.52296  0.58373  1.0000
  O   O32       1.0  0.33047  0.47704  0.08373  1.0000
