data_image0
_chemical_formula_structural       Pr4H16C24O32
_chemical_formula_sum              "Pr4 H16 C24 O32"
_cell_length_a       6.9964
_cell_length_b       7.10612
_cell_length_c       16.8768
_cell_angle_alpha    89.9999
_cell_angle_beta     90.0002
_cell_angle_gamma    100.785

_space_group_name_H-M_alt    "P 1"
_space_group_IT_number       1

loop_
  _space_group_symop_operation_xyz
  'x, y, z'

loop_
  _atom_site_type_symbol
  _atom_site_label
  _atom_site_symmetry_multiplicity
  _atom_site_fract_x
  _atom_site_fract_y
  _atom_site_fract_z
  _atom_site_occupancy
  Pr  Pr1       1.0  0.50895  0.75801  0.58037  1.0000
  Pr  Pr2       1.0  0.99105  0.24199  0.08037  1.0000
  Pr  Pr3       1.0  0.49105  0.24199  0.41963  1.0000
  Pr  Pr4       1.0  0.00895  0.75802  0.91963  1.0000
  H   H1        1.0  0.84761  0.09487  0.61827  1.0000
  H   H2        1.0  0.65239  0.90513  0.11827  1.0000
  H   H3        1.0  0.15239  0.90513  0.38173  1.0000
  H   H4        1.0  0.34761  0.09487  0.88173  1.0000
  H   H5        1.0  0.77477  0.51310  0.67894  1.0000
  H   H6        1.0  0.72523  0.48690  0.17894  1.0000
  H   H7        1.0  0.22523  0.48691  0.32106  1.0000
  H   H8        1.0  0.27477  0.51310  0.82106  1.0000
  H   H9        1.0  0.81205  0.72403  0.71555  1.0000
  H   H10       1.0  0.68795  0.27598  0.21555  1.0000
  H   H11       1.0  0.18795  0.27598  0.28445  1.0000
  H   H12       1.0  0.31205  0.72402  0.78445  1.0000
  H   H13       1.0  0.94938  0.92055  0.58749  1.0000
  H   H14       1.0  0.55061  0.07945  0.08749  1.0000
  H   H15       1.0  0.05062  0.07945  0.41251  1.0000
  H   H16       1.0  0.44938  0.92055  0.91251  1.0000
  C   C1        1.0  0.40664  0.16758  0.62941  1.0000
  C   C2        1.0  0.09336  0.83242  0.12942  1.0000
  C   C3        1.0  0.59336  0.83242  0.37059  1.0000
  C   C4        1.0  0.90664  0.16758  0.87058  1.0000
  C   C5        1.0  0.35257  0.33120  0.67098  1.0000
  C   C6        1.0  0.14744  0.66881  0.17098  1.0000
  C   C7        1.0  0.64744  0.66880  0.32902  1.0000
  C   C8        1.0  0.85257  0.33119  0.82902  1.0000
  C   C9        1.0  0.35518  0.22719  0.74727  1.0000
  C   C10       1.0  0.14482  0.77281  0.24726  1.0000
  C   C11       1.0  0.64482  0.77281  0.25273  1.0000
  C   C12       1.0  0.85518  0.22719  0.75274  1.0000
  C   C13       1.0  0.05302  0.62362  0.53285  1.0000
  C   C14       1.0  0.44698  0.37637  0.03285  1.0000
  C   C15       1.0  0.94698  0.37638  0.46715  1.0000
  C   C16       1.0  0.55302  0.62363  0.96715  1.0000
  C   C17       1.0  0.86037  0.51866  0.50950  1.0000
  C   C18       1.0  0.63964  0.48134  0.00950  1.0000
  C   C19       1.0  0.13963  0.48134  0.49050  1.0000
  C   C20       1.0  0.36036  0.51866  0.99050  1.0000
  C   C21       1.0  0.40282  0.06216  0.70316  1.0000
  C   C22       1.0  0.09718  0.93783  0.20316  1.0000
  C   C23       1.0  0.59718  0.93783  0.29684  1.0000
  C   C24       1.0  0.90282  0.06218  0.79685  1.0000
  O   O1        1.0  0.83101  0.97814  0.58376  1.0000
  O   O2        1.0  0.66900  0.02186  0.08376  1.0000
  O   O3        1.0  0.16899  0.02186  0.41624  1.0000
  O   O4        1.0  0.33100  0.97814  0.91624  1.0000
  O   O5        1.0  0.13273  0.77043  0.57080  1.0000
  O   O6        1.0  0.36727  0.22957  0.07079  1.0000
  O   O7        1.0  0.86727  0.22957  0.42920  1.0000
  O   O8        1.0  0.63273  0.77043  0.92921  1.0000
  O   O9        1.0  0.68137  0.52481  0.51659  1.0000
  O   O10       1.0  0.81863  0.47520  0.01659  1.0000
  O   O11       1.0  0.31863  0.47519  0.48341  1.0000
  O   O12       1.0  0.18137  0.52480  0.98341  1.0000
  O   O13       1.0  0.32280  0.49491  0.65414  1.0000
  O   O14       1.0  0.17721  0.50507  0.15414  1.0000
  O   O15       1.0  0.67720  0.50508  0.34586  1.0000
  O   O16       1.0  0.82279  0.49493  0.84586  1.0000
  O   O17       1.0  0.33606  0.27395  0.81824  1.0000
  O   O18       1.0  0.16394  0.72605  0.31824  1.0000
  O   O19       1.0  0.66394  0.72605  0.18176  1.0000
  O   O20       1.0  0.83607  0.27395  0.68176  1.0000
  O   O21       1.0  0.73594  0.63996  0.67557  1.0000
  O   O22       1.0  0.76406  0.36004  0.17557  1.0000
  O   O23       1.0  0.26406  0.36004  0.32443  1.0000
  O   O24       1.0  0.23594  0.63996  0.82443  1.0000
  O   O25       1.0  0.45332  0.11711  0.56048  1.0000
  O   O26       1.0  0.04668  0.88289  0.06048  1.0000
  O   O27       1.0  0.54668  0.88289  0.43952  1.0000
  O   O28       1.0  0.95332  0.11711  0.93952  1.0000
  O   O29       1.0  0.44183  0.89717  0.71532  1.0000
  O   O30       1.0  0.05817  0.10284  0.21532  1.0000
  O   O31       1.0  0.55817  0.10283  0.28468  1.0000
  O   O32       1.0  0.94183  0.89717  0.78468  1.0000
