data_image0
_chemical_formula_structural       Ho4H16C24O32
_chemical_formula_sum              "Ho4 H16 C24 O32"
_cell_length_a       6.7341
_cell_length_b       7.13838
_cell_length_c       16.6997
_cell_angle_alpha    90
_cell_angle_beta     90.0001
_cell_angle_gamma    100.227

_space_group_name_H-M_alt    "P 1"
_space_group_IT_number       1

loop_
  _space_group_symop_operation_xyz
  'x, y, z'

loop_
  _atom_site_type_symbol
  _atom_site_label
  _atom_site_symmetry_multiplicity
  _atom_site_fract_x
  _atom_site_fract_y
  _atom_site_fract_z
  _atom_site_occupancy
  Ho  Ho1       1.0  0.46999  0.21488  0.58519  1.0000
  Ho  Ho2       1.0  0.03000  0.78512  0.08519  1.0000
  Ho  Ho3       1.0  0.53000  0.78512  0.41481  1.0000
  Ho  Ho4       1.0  0.97000  0.21489  0.91481  1.0000
  H   H1        1.0  0.21008  0.45614  0.68303  1.0000
  H   H2        1.0  0.28992  0.54386  0.18303  1.0000
  H   H3        1.0  0.78992  0.54386  0.31697  1.0000
  H   H4        1.0  0.71008  0.45614  0.81697  1.0000
  H   H5        1.0  0.17192  0.24784  0.72131  1.0000
  H   H6        1.0  0.32808  0.75216  0.22131  1.0000
  H   H7        1.0  0.82808  0.75216  0.27869  1.0000
  H   H8        1.0  0.67192  0.24784  0.77869  1.0000
  H   H9        1.0  0.13649  0.88857  0.62215  1.0000
  H   H10       1.0  0.36351  0.11143  0.12215  1.0000
  H   H11       1.0  0.86351  0.11142  0.37785  1.0000
  H   H12       1.0  0.63649  0.88857  0.87785  1.0000
  H   H13       1.0  0.03477  0.06426  0.58972  1.0000
  H   H14       1.0  0.46523  0.93574  0.08972  1.0000
  H   H15       1.0  0.96523  0.93574  0.41028  1.0000
  H   H16       1.0  0.53477  0.06426  0.91028  1.0000
  C   C1        1.0  0.58734  0.91595  0.69695  1.0000
  C   C2        1.0  0.91266  0.08406  0.19695  1.0000
  C   C3        1.0  0.41266  0.08405  0.30305  1.0000
  C   C4        1.0  0.08734  0.91595  0.80305  1.0000
  C   C5        1.0  0.58195  0.81473  0.62193  1.0000
  C   C6        1.0  0.91805  0.18527  0.12193  1.0000
  C   C7        1.0  0.41805  0.18527  0.37807  1.0000
  C   C8        1.0  0.08195  0.81473  0.87807  1.0000
  C   C9        1.0  0.62834  0.64560  0.66327  1.0000
  C   C10       1.0  0.87166  0.35439  0.16327  1.0000
  C   C11       1.0  0.37166  0.35440  0.33673  1.0000
  C   C12       1.0  0.12834  0.64561  0.83673  1.0000
  C   C13       1.0  0.63056  0.74927  0.74115  1.0000
  C   C14       1.0  0.86943  0.25073  0.24115  1.0000
  C   C15       1.0  0.36943  0.25073  0.25885  1.0000
  C   C16       1.0  0.13057  0.74927  0.75885  1.0000
  C   C17       1.0  0.92515  0.37713  0.52897  1.0000
  C   C18       1.0  0.57485  0.62287  0.02897  1.0000
  C   C19       1.0  0.07486  0.62287  0.47103  1.0000
  C   C20       1.0  0.42515  0.37713  0.97103  1.0000
  C   C21       1.0  0.13628  0.45903  0.51106  1.0000
  C   C22       1.0  0.36372  0.54097  0.01106  1.0000
  C   C23       1.0  0.86372  0.54098  0.48894  1.0000
  C   C24       1.0  0.63628  0.45903  0.98894  1.0000
  O   O1        1.0  0.54533  0.08057  0.70937  1.0000
  O   O2        1.0  0.95466  0.91943  0.20937  1.0000
  O   O3        1.0  0.45466  0.91943  0.29063  1.0000
  O   O4        1.0  0.04534  0.08058  0.79063  1.0000
  O   O5        1.0  0.53376  0.87463  0.55385  1.0000
  O   O6        1.0  0.96624  0.12537  0.05385  1.0000
  O   O7        1.0  0.46624  0.12537  0.44615  1.0000
  O   O8        1.0  0.03376  0.87463  0.94615  1.0000
  O   O9        1.0  0.64593  0.47918  0.64601  1.0000
  O   O10       1.0  0.85407  0.52083  0.14601  1.0000
  O   O11       1.0  0.35407  0.52082  0.35399  1.0000
  O   O12       1.0  0.14594  0.47918  0.85399  1.0000
  O   O13       1.0  0.64679  0.70244  0.81301  1.0000
  O   O14       1.0  0.85321  0.29756  0.31301  1.0000
  O   O15       1.0  0.35321  0.29756  0.18700  1.0000
  O   O16       1.0  0.14679  0.70244  0.68699  1.0000
  O   O17       1.0  0.82918  0.23009  0.56296  1.0000
  O   O18       1.0  0.67081  0.76992  0.06296  1.0000
  O   O19       1.0  0.17082  0.76992  0.43704  1.0000
  O   O20       1.0  0.32918  0.23008  0.93704  1.0000
  O   O21       1.0  0.30753  0.41706  0.52241  1.0000
  O   O22       1.0  0.19247  0.58294  0.02241  1.0000
  O   O23       1.0  0.69247  0.58294  0.47759  1.0000
  O   O24       1.0  0.80753  0.41706  0.97759  1.0000
  O   O25       1.0  0.25147  0.33029  0.68094  1.0000
  O   O26       1.0  0.24854  0.66971  0.18093  1.0000
  O   O27       1.0  0.74853  0.66971  0.31906  1.0000
  O   O28       1.0  0.75147  0.33029  0.81906  1.0000
  O   O29       1.0  0.15692  0.00594  0.58818  1.0000
  O   O30       1.0  0.34308  0.99406  0.08818  1.0000
  O   O31       1.0  0.84308  0.99406  0.41182  1.0000
  O   O32       1.0  0.65692  0.00594  0.91182  1.0000
