data_image0
_chemical_formula_structural       La4H16C24O32
_chemical_formula_sum              "La4 H16 C24 O32"
_cell_length_a       7.03667
_cell_length_b       7.14457
_cell_length_c       17.0217
_cell_angle_alpha    90
_cell_angle_beta     90
_cell_angle_gamma    100.644

_space_group_name_H-M_alt    "P 1"
_space_group_IT_number       1

loop_
  _space_group_symop_operation_xyz
  'x, y, z'

loop_
  _atom_site_type_symbol
  _atom_site_label
  _atom_site_symmetry_multiplicity
  _atom_site_fract_x
  _atom_site_fract_y
  _atom_site_fract_z
  _atom_site_occupancy
  La  La1       1.0  0.50840  0.25652  0.41906  1.0000
  La  La2       1.0  0.99160  0.74347  0.91906  1.0000
  La  La3       1.0  0.49160  0.74348  0.58094  1.0000
  La  La4       1.0  0.00840  0.25652  0.08095  1.0000
  H   H1        1.0  0.94893  0.42070  0.41184  1.0000
  H   H2        1.0  0.55108  0.57930  0.91184  1.0000
  H   H3        1.0  0.05108  0.57930  0.58816  1.0000
  H   H4        1.0  0.44892  0.42070  0.08816  1.0000
  H   H5        1.0  0.84838  0.59417  0.37996  1.0000
  H   H6        1.0  0.65162  0.40583  0.87996  1.0000
  H   H7        1.0  0.15162  0.40583  0.62004  1.0000
  H   H8        1.0  0.34838  0.59417  0.12004  1.0000
  H   H9        1.0  0.77452  0.01015  0.31998  1.0000
  H   H10       1.0  0.72548  0.98985  0.81998  1.0000
  H   H11       1.0  0.22548  0.98985  0.68002  1.0000
  H   H12       1.0  0.27452  0.01015  0.18002  1.0000
  H   H13       1.0  0.81112  0.22106  0.28457  1.0000
  H   H14       1.0  0.68889  0.77894  0.78457  1.0000
  H   H15       1.0  0.18888  0.77894  0.71543  1.0000
  H   H16       1.0  0.31112  0.22106  0.21543  1.0000
  C   C1        1.0  0.59686  0.33498  0.62951  1.0000
  C   C2        1.0  0.90314  0.66502  0.12951  1.0000
  C   C3        1.0  0.40314  0.66502  0.37049  1.0000
  C   C4        1.0  0.09686  0.33497  0.87049  1.0000
  C   C5        1.0  0.64993  0.17190  0.67064  1.0000
  C   C6        1.0  0.85007  0.82810  0.17064  1.0000
  C   C7        1.0  0.35007  0.82810  0.32936  1.0000
  C   C8        1.0  0.14993  0.17190  0.82936  1.0000
  C   C9        1.0  0.64758  0.27456  0.74636  1.0000
  C   C10       1.0  0.85242  0.72544  0.24636  1.0000
  C   C11       1.0  0.35241  0.72544  0.25364  1.0000
  C   C12       1.0  0.14758  0.27455  0.75364  1.0000
  C   C13       1.0  0.60094  0.43970  0.70294  1.0000
  C   C14       1.0  0.89906  0.56030  0.20295  1.0000
  C   C15       1.0  0.39906  0.56030  0.29705  1.0000
  C   C16       1.0  0.10094  0.43970  0.79705  1.0000
  C   C17       1.0  0.86074  0.01754  0.49063  1.0000
  C   C18       1.0  0.63926  0.98246  0.99063  1.0000
  C   C19       1.0  0.13927  0.98247  0.50937  1.0000
  C   C20       1.0  0.36073  0.01753  0.00937  1.0000
  C   C21       1.0  0.94855  0.87699  0.53280  1.0000
  C   C22       1.0  0.55145  0.12302  0.03280  1.0000
  C   C23       1.0  0.05146  0.12302  0.46720  1.0000
  C   C24       1.0  0.44854  0.87698  0.96720  1.0000
  O   O1        1.0  0.55058  0.38288  0.56086  1.0000
  O   O2        1.0  0.94942  0.61713  0.06086  1.0000
  O   O3        1.0  0.44943  0.61713  0.43914  1.0000
  O   O4        1.0  0.05057  0.38287  0.93914  1.0000
  O   O5        1.0  0.67828  0.00868  0.65331  1.0000
  O   O6        1.0  0.82173  0.99132  0.15331  1.0000
  O   O7        1.0  0.32172  0.99132  0.34669  1.0000
  O   O8        1.0  0.17828  0.00868  0.84669  1.0000
  O   O9        1.0  0.66622  0.22780  0.81674  1.0000
  O   O10       1.0  0.83377  0.77221  0.31674  1.0000
  O   O11       1.0  0.33377  0.77220  0.18326  1.0000
  O   O12       1.0  0.16623  0.22779  0.68326  1.0000
  O   O13       1.0  0.56314  0.60370  0.71612  1.0000
  O   O14       1.0  0.93687  0.39629  0.21612  1.0000
  O   O15       1.0  0.43687  0.39630  0.28388  1.0000
  O   O16       1.0  0.06314  0.60371  0.78388  1.0000
  O   O17       1.0  0.83125  0.47856  0.41440  1.0000
  O   O18       1.0  0.66875  0.52144  0.91440  1.0000
  O   O19       1.0  0.16875  0.52144  0.58560  1.0000
  O   O20       1.0  0.33125  0.47855  0.08560  1.0000
  O   O21       1.0  0.73553  0.13621  0.32373  1.0000
  O   O22       1.0  0.76447  0.86379  0.82373  1.0000
  O   O23       1.0  0.26447  0.86379  0.67627  1.0000
  O   O24       1.0  0.23553  0.13621  0.17627  1.0000
  O   O25       1.0  0.68294  0.02425  0.48329  1.0000
  O   O26       1.0  0.81706  0.97575  0.98329  1.0000
  O   O27       1.0  0.31707  0.97576  0.51671  1.0000
  O   O28       1.0  0.18293  0.02425  0.01671  1.0000
  O   O29       1.0  0.87194  0.73069  0.57069  1.0000
  O   O30       1.0  0.62806  0.26931  0.07069  1.0000
  O   O31       1.0  0.12806  0.26932  0.42931  1.0000
  O   O32       1.0  0.37194  0.73068  0.92931  1.0000
