data_image0
_chemical_formula_structural       Zn4H36C48I4N8O16
_chemical_formula_sum              "Zn4 H36 C48 I4 N8 O16"
_cell_length_a       7.80058
_cell_length_b       12.0635
_cell_length_c       13.875
_cell_angle_alpha    90.0001
_cell_angle_beta     90
_cell_angle_gamma    89.9698

_space_group_name_H-M_alt    "P 1"
_space_group_IT_number       1

loop_
  _space_group_symop_operation_xyz
  'x, y, z'

loop_
  _atom_site_type_symbol
  _atom_site_label
  _atom_site_symmetry_multiplicity
  _atom_site_fract_x
  _atom_site_fract_y
  _atom_site_fract_z
  _atom_site_occupancy
  Zn  Zn1       1.0  0.60593  0.75277  0.43699  1.0000
  Zn  Zn2       1.0  0.10593  0.25277  0.06300  1.0000
  Zn  Zn3       1.0  0.39407  0.24722  0.56300  1.0000
  Zn  Zn4       1.0  0.89407  0.74723  0.93700  1.0000
  H   H1        1.0  0.18516  0.49894  0.88488  1.0000
  H   H2        1.0  0.68516  0.99894  0.61512  1.0000
  H   H3        1.0  0.81484  0.50106  0.11512  1.0000
  H   H4        1.0  0.31484  0.00106  0.38488  1.0000
  H   H5        1.0  0.12172  0.24203  0.28059  1.0000
  H   H6        1.0  0.62172  0.74203  0.21941  1.0000
  H   H7        1.0  0.87828  0.75797  0.71941  1.0000
  H   H8        1.0  0.37828  0.25797  0.78059  1.0000
  H   H9        1.0  0.99073  0.12934  0.41232  1.0000
  H   H10       1.0  0.49073  0.62934  0.08768  1.0000
  H   H11       1.0  0.00927  0.87066  0.58768  1.0000
  H   H12       1.0  0.50926  0.37066  0.91232  1.0000
  H   H13       1.0  0.70034  0.95612  0.19417  1.0000
  H   H14       1.0  0.20034  0.45612  0.30582  1.0000
  H   H15       1.0  0.29966  0.04388  0.80582  1.0000
  H   H16       1.0  0.79966  0.54388  0.69418  1.0000
  H   H17       1.0  0.84115  0.07604  0.07128  1.0000
  H   H18       1.0  0.34115  0.57604  0.42871  1.0000
  H   H19       1.0  0.15885  0.92395  0.92871  1.0000
  H   H20       1.0  0.65886  0.42395  0.57128  1.0000
  H   H21       1.0  0.23429  0.58939  0.59479  1.0000
  H   H22       1.0  0.73429  0.08939  0.90521  1.0000
  H   H23       1.0  0.76571  0.41061  0.40521  1.0000
  H   H24       1.0  0.26571  0.91061  0.09479  1.0000
  H   H25       1.0  0.11463  0.46400  0.72474  1.0000
  H   H26       1.0  0.61463  0.96400  0.77526  1.0000
  H   H27       1.0  0.88537  0.53600  0.27526  1.0000
  H   H28       1.0  0.38537  0.03600  0.22474  1.0000
  H   H29       1.0  0.34630  0.64621  0.94084  1.0000
  H   H30       1.0  0.84630  0.14621  0.55916  1.0000
  H   H31       1.0  0.65370  0.35380  0.05916  1.0000
  H   H32       1.0  0.15370  0.85379  0.44084  1.0000
  H   H33       1.0  0.47982  0.77832  0.82052  1.0000
  H   H34       1.0  0.97983  0.27832  0.67948  1.0000
  H   H35       1.0  0.52017  0.22168  0.17948  1.0000
  H   H36       1.0  0.02018  0.72168  0.32052  1.0000
  C   C1        1.0  0.02627  0.17869  0.26472  1.0000
  C   C2        1.0  0.52627  0.67869  0.23528  1.0000
  C   C3        1.0  0.97373  0.82131  0.73528  1.0000
  C   C4        1.0  0.47373  0.32132  0.76472  1.0000
  C   C5        1.0  0.95158  0.11630  0.33785  1.0000
  C   C6        1.0  0.45158  0.61630  0.16215  1.0000
  C   C7        1.0  0.04842  0.88370  0.66215  1.0000
  C   C8        1.0  0.54842  0.38370  0.83785  1.0000
  C   C9        1.0  0.83124  0.03502  0.31390  1.0000
  C   C10       1.0  0.33124  0.53502  0.18610  1.0000
  C   C11       1.0  0.16876  0.96497  0.68610  1.0000
  C   C12       1.0  0.66876  0.46498  0.81390  1.0000
  C   C13       1.0  0.79084  0.01965  0.21660  1.0000
  C   C14       1.0  0.29085  0.51965  0.28340  1.0000
  C   C15       1.0  0.20915  0.98035  0.78340  1.0000
  C   C16       1.0  0.70916  0.48035  0.71660  1.0000
  C   C17       1.0  0.86992  0.08537  0.14768  1.0000
  C   C18       1.0  0.36992  0.58537  0.35232  1.0000
  C   C19       1.0  0.13008  0.91463  0.85232  1.0000
  C   C20       1.0  0.63008  0.41463  0.64768  1.0000
  C   C21       1.0  0.75099  0.96341  0.39114  1.0000
  C   C22       1.0  0.25099  0.46341  0.10886  1.0000
  C   C23       1.0  0.24900  0.03659  0.60886  1.0000
  C   C24       1.0  0.74901  0.53659  0.89114  1.0000
  C   C25       1.0  0.45558  0.76657  0.62396  1.0000
  C   C26       1.0  0.95559  0.26657  0.87604  1.0000
  C   C27       1.0  0.54441  0.23343  0.37604  1.0000
  C   C28       1.0  0.04442  0.73343  0.12396  1.0000
  C   C29       1.0  0.36675  0.69385  0.69814  1.0000
  C   C30       1.0  0.86676  0.19385  0.80186  1.0000
  C   C31       1.0  0.63325  0.30615  0.30186  1.0000
  C   C32       1.0  0.13325  0.80615  0.19813  1.0000
  C   C33       1.0  0.26135  0.60543  0.67035  1.0000
  C   C34       1.0  0.76135  0.10544  0.82965  1.0000
  C   C35       1.0  0.73865  0.39457  0.32965  1.0000
  C   C36       1.0  0.23865  0.89457  0.17035  1.0000
  C   C37       1.0  0.19355  0.53606  0.74003  1.0000
  C   C38       1.0  0.69356  0.03606  0.75997  1.0000
  C   C39       1.0  0.80644  0.46394  0.25997  1.0000
  C   C40       1.0  0.30644  0.96394  0.24003  1.0000
  C   C41       1.0  0.32667  0.63993  0.86355  1.0000
  C   C42       1.0  0.82668  0.13993  0.63645  1.0000
  C   C43       1.0  0.67332  0.36007  0.13645  1.0000
  C   C44       1.0  0.17333  0.86007  0.36355  1.0000
  C   C45       1.0  0.39757  0.71108  0.79619  1.0000
  C   C46       1.0  0.89758  0.21108  0.70381  1.0000
  C   C47       1.0  0.60242  0.28892  0.20381  1.0000
  C   C48       1.0  0.10243  0.78892  0.29619  1.0000
  I   I1        1.0  0.87001  0.64525  0.49699  1.0000
  I   I2        1.0  0.37001  0.14525  0.00301  1.0000
  I   I3        1.0  0.12999  0.35475  0.50301  1.0000
  I   I4        1.0  0.62999  0.85475  0.99699  1.0000
  N   N1        1.0  0.98593  0.16376  0.17112  1.0000
  N   N2        1.0  0.48593  0.66376  0.32888  1.0000
  N   N3        1.0  0.01407  0.83623  0.82888  1.0000
  N   N4        1.0  0.51407  0.33624  0.67112  1.0000
  N   N5        1.0  0.22877  0.55464  0.83375  1.0000
  N   N6        1.0  0.72877  0.05464  0.66625  1.0000
  N   N7        1.0  0.77123  0.44536  0.16625  1.0000
  N   N8        1.0  0.27123  0.94536  0.33375  1.0000
  O   O1        1.0  0.65778  0.88317  0.35785  1.0000
  O   O2        1.0  0.15778  0.38317  0.14215  1.0000
  O   O3        1.0  0.34222  0.11683  0.64215  1.0000
  O   O4        1.0  0.84222  0.61683  0.85785  1.0000
  O   O5        1.0  0.42427  0.73934  0.53553  1.0000
  O   O6        1.0  0.92427  0.23934  0.96447  1.0000
  O   O7        1.0  0.57573  0.26066  0.46447  1.0000
  O   O8        1.0  0.07573  0.76065  0.03553  1.0000
  O   O9        1.0  0.78011  0.98326  0.47768  1.0000
  O   O10       1.0  0.28012  0.48326  0.02233  1.0000
  O   O11       1.0  0.21988  0.01674  0.52232  1.0000
  O   O12       1.0  0.71988  0.51674  0.97767  1.0000
  O   O13       1.0  0.55214  0.84201  0.65246  1.0000
  O   O14       1.0  0.05215  0.34201  0.84754  1.0000
  O   O15       1.0  0.44785  0.15799  0.34754  1.0000
  O   O16       1.0  0.94785  0.65799  0.15246  1.0000
