data_image0
_chemical_formula_structural       Zn4H44C56N8O16
_chemical_formula_sum              "Zn4 H44 C56 N8 O16"
_cell_length_a       7.49262
_cell_length_b       13.256
_cell_length_c       16.3336
_cell_angle_alpha    112.95
_cell_angle_beta     90.0181
_cell_angle_gamma    106.412

_space_group_name_H-M_alt    "P 1"
_space_group_IT_number       1

loop_
  _space_group_symop_operation_xyz
  'x, y, z'

loop_
  _atom_site_type_symbol
  _atom_site_label
  _atom_site_symmetry_multiplicity
  _atom_site_fract_x
  _atom_site_fract_y
  _atom_site_fract_z
  _atom_site_occupancy
  Zn  Zn1       1.0  0.05181  0.67446  0.82321  1.0000
  Zn  Zn2       1.0  0.37714  0.32551  0.67676  1.0000
  Zn  Zn3       1.0  0.94820  0.32555  0.17679  1.0000
  Zn  Zn4       1.0  0.62285  0.67449  0.32323  1.0000
  H   H1        1.0  0.79722  0.47181  0.77290  1.0000
  H   H2        1.0  0.32524  0.52822  0.72726  1.0000
  H   H3        1.0  0.20278  0.52820  0.22710  1.0000
  H   H4        1.0  0.67475  0.47178  0.27274  1.0000
  H   H5        1.0  0.96099  0.48606  0.84953  1.0000
  H   H6        1.0  0.47446  0.51391  0.65054  1.0000
  H   H7        1.0  0.03902  0.51394  0.15047  1.0000
  H   H8        1.0  0.52553  0.48609  0.34947  1.0000
  H   H9        1.0  0.45621  0.69043  0.08429  1.0000
  H   H10       1.0  0.76560  0.30962  0.41555  1.0000
  H   H11       1.0  0.54379  0.30956  0.91571  1.0000
  H   H12       1.0  0.23440  0.69037  0.58445  1.0000
  H   H13       1.0  0.91940  0.55655  0.00817  1.0000
  H   H14       1.0  0.36261  0.44377  0.49212  1.0000
  H   H15       1.0  0.08060  0.44346  0.99183  1.0000
  H   H16       1.0  0.63739  0.55623  0.50788  1.0000
  H   H17       1.0  0.58325  0.58944  0.81224  1.0000
  H   H18       1.0  0.99314  0.41032  0.68767  1.0000
  H   H19       1.0  0.41675  0.41056  0.18776  1.0000
  H   H20       1.0  0.00685  0.58967  0.31233  1.0000
  H   H21       1.0  0.83843  0.80042  0.77670  1.0000
  H   H22       1.0  0.03836  0.19919  0.72309  1.0000
  H   H23       1.0  0.16157  0.19958  0.22330  1.0000
  H   H24       1.0  0.96164  0.80081  0.27691  1.0000
  H   H25       1.0  0.63095  0.91751  0.84630  1.0000
  H   H26       1.0  0.71390  0.08188  0.65349  1.0000
  H   H27       1.0  0.36906  0.08250  0.15370  1.0000
  H   H28       1.0  0.28610  0.91811  0.34651  1.0000
  H   H29       1.0  0.82058  0.92946  0.10054  1.0000
  H   H30       1.0  0.89079  0.07071  0.39935  1.0000
  H   H31       1.0  0.17942  0.07054  0.89946  1.0000
  H   H32       1.0  0.10921  0.92930  0.60065  1.0000
  H   H33       1.0  0.02789  0.81359  0.01951  1.0000
  H   H34       1.0  0.21408  0.18661  0.48037  1.0000
  H   H35       1.0  0.97212  0.18641  0.98049  1.0000
  H   H36       1.0  0.78592  0.81339  0.51963  1.0000
  H   H37       1.0  0.54541  0.98601  0.08638  1.0000
  H   H38       1.0  0.55910  0.01384  0.41353  1.0000
  H   H39       1.0  0.45459  0.01399  0.91362  1.0000
  H   H40       1.0  0.44091  0.98617  0.58647  1.0000
  H   H41       1.0  0.67302  0.09842  0.05704  1.0000
  H   H42       1.0  0.57426  0.90146  0.44293  1.0000
  H   H43       1.0  0.32699  0.90158  0.94296  1.0000
  H   H44       1.0  0.42574  0.09854  0.55707  1.0000
  C   C1        1.0  0.50011  0.64188  0.94521  1.0000
  C   C2        1.0  0.85776  0.35806  0.55466  1.0000
  C   C3        1.0  0.49988  0.35811  0.05479  1.0000
  C   C4        1.0  0.14223  0.64193  0.44534  1.0000
  C   C5        1.0  0.54171  0.65588  0.03331  1.0000
  C   C6        1.0  0.88558  0.34417  0.46660  1.0000
  C   C7        1.0  0.45829  0.34411  0.96669  1.0000
  C   C8        1.0  0.11443  0.65582  0.53340  1.0000
  C   C9        1.0  0.69137  0.62388  0.05527  1.0000
  C   C10       1.0  0.06732  0.37625  0.44479  1.0000
  C   C11       1.0  0.30863  0.37612  0.94473  1.0000
  C   C12       1.0  0.93268  0.62375  0.55522  1.0000
  C   C13       1.0  0.80074  0.57851  0.98944  1.0000
  C   C14       1.0  0.22191  0.42165  0.51072  1.0000
  C   C15       1.0  0.19926  0.42149  0.01056  1.0000
  C   C16       1.0  0.77810  0.57835  0.48928  1.0000
  C   C17       1.0  0.75898  0.56419  0.90168  1.0000
  C   C18       1.0  0.19435  0.43590  0.59843  1.0000
  C   C19       1.0  0.24103  0.43582  0.09832  1.0000
  C   C20       1.0  0.80564  0.56410  0.40157  1.0000
  C   C21       1.0  0.60897  0.59600  0.87992  1.0000
  C   C22       1.0  0.01245  0.40389  0.62004  1.0000
  C   C23       1.0  0.39103  0.40400  0.12008  1.0000
  C   C24       1.0  0.98755  0.59610  0.37996  1.0000
  C   C25       1.0  0.33894  0.67505  0.92138  1.0000
  C   C26       1.0  0.66331  0.32484  0.57835  1.0000
  C   C27       1.0  0.66106  0.32496  0.07862  1.0000
  C   C28       1.0  0.33668  0.67516  0.42164  1.0000
  C   C29       1.0  0.73251  0.63446  0.14871  1.0000
  C   C30       1.0  0.09812  0.36570  0.35140  1.0000
  C   C31       1.0  0.26749  0.36554  0.85129  1.0000
  C   C32       1.0  0.90188  0.63429  0.64860  1.0000
  C   C33       1.0  0.83406  0.83356  0.84871  1.0000
  C   C34       1.0  0.00074  0.16610  0.65108  1.0000
  C   C35       1.0  0.16594  0.16644  0.15129  1.0000
  C   C36       1.0  0.99926  0.83389  0.34892  1.0000
  C   C37       1.0  0.71694  0.89846  0.88855  1.0000
  C   C38       1.0  0.81877  0.10112  0.61124  1.0000
  C   C39       1.0  0.28306  0.10154  0.11145  1.0000
  C   C40       1.0  0.18123  0.89888  0.38875  1.0000
  C   C41       1.0  0.70822  0.93548  0.98085  1.0000
  C   C42       1.0  0.77273  0.06433  0.51899  1.0000
  C   C43       1.0  0.29178  0.06452  0.01915  1.0000
  C   C44       1.0  0.22726  0.93567  0.48101  1.0000
  C   C45       1.0  0.82268  0.90439  0.02862  1.0000
  C   C46       1.0  0.91811  0.09556  0.47123  1.0000
  C   C47       1.0  0.17732  0.09561  0.97138  1.0000
  C   C48       1.0  0.08188  0.90444  0.52877  1.0000
  C   C49       1.0  0.93803  0.84017  0.98484  1.0000
  C   C50       1.0  0.09776  0.15981  0.51501  1.0000
  C   C51       1.0  0.06197  0.15982  0.01516  1.0000
  C   C52       1.0  0.90224  0.84020  0.48499  1.0000
  C   C53       1.0  0.58647  0.00714  0.02896  1.0000
  C   C54       1.0  0.57919  0.99279  0.47097  1.0000
  C   C55       1.0  0.41353  0.99286  0.97104  1.0000
  C   C56       1.0  0.42081  0.00721  0.52902  1.0000
  N   N1        1.0  0.87620  0.52724  0.83417  1.0000
  N   N2        1.0  0.34856  0.47277  0.66594  1.0000
  N   N3        1.0  0.12381  0.47277  0.16583  1.0000
  N   N4        1.0  0.65144  0.52723  0.33406  1.0000
  N   N5        1.0  0.94319  0.80421  0.89555  1.0000
  N   N6        1.0  0.13907  0.19570  0.60428  1.0000
  N   N7        1.0  0.05681  0.19579  0.10445  1.0000
  N   N8        1.0  0.86093  0.80430  0.39572  1.0000
  O   O1        1.0  0.30339  0.65551  0.83725  1.0000
  O   O2        1.0  0.64732  0.34414  0.66245  1.0000
  O   O3        1.0  0.69661  0.34449  0.16275  1.0000
  O   O4        1.0  0.35268  0.65588  0.33755  1.0000
  O   O5        1.0  0.24327  0.71893  0.98007  1.0000
  O   O6        1.0  0.52383  0.28119  0.51963  1.0000
  O   O7        1.0  0.75674  0.28108  0.01993  1.0000
  O   O8        1.0  0.47617  0.71881  0.48037  1.0000
  O   O9        1.0  0.62734  0.68107  0.20523  1.0000
  O   O10       1.0  0.94650  0.31887  0.29472  1.0000
  O   O11       1.0  0.37265  0.31893  0.79477  1.0000
  O   O12       1.0  0.05351  0.68114  0.70528  1.0000
  O   O13       1.0  0.85988  0.60008  0.16813  1.0000
  O   O14       1.0  0.25995  0.40036  0.33214  1.0000
  O   O15       1.0  0.14012  0.39994  0.83188  1.0000
  O   O16       1.0  0.74006  0.59964  0.66786  1.0000
