data_image0
_chemical_formula_structural       Cd2P2H26C30N4O10
_chemical_formula_sum              "Cd2 P2 H26 C30 N4 O10"
_cell_length_a       8.17058
_cell_length_b       9.48213
_cell_length_c       11.0781
_cell_angle_alpha    101.668
_cell_angle_beta     99.9395
_cell_angle_gamma    113.417

_space_group_name_H-M_alt    "P 1"
_space_group_IT_number       1

loop_
  _space_group_symop_operation_xyz
  'x, y, z'

loop_
  _atom_site_type_symbol
  _atom_site_label
  _atom_site_symmetry_multiplicity
  _atom_site_fract_x
  _atom_site_fract_y
  _atom_site_fract_z
  _atom_site_occupancy
  Cd  Cd1       1.0  0.88315  0.42526  0.82999  1.0000
  Cd  Cd2       1.0  0.11685  0.57474  0.17001  1.0000
  P   P1        1.0  0.06601  0.21135  0.97722  1.0000
  P   P2        1.0  0.93398  0.78865  0.02278  1.0000
  H   H1        1.0  0.07481  0.07523  0.12220  1.0000
  H   H2        1.0  0.92519  0.92477  0.87780  1.0000
  H   H3        1.0  0.41100  0.57034  0.43597  1.0000
  H   H4        1.0  0.58900  0.42966  0.56403  1.0000
  H   H5        1.0  0.66037  0.05915  0.62758  1.0000
  H   H6        1.0  0.33964  0.94085  0.37242  1.0000
  H   H7        1.0  0.25797  0.78257  0.92691  1.0000
  H   H8        1.0  0.74204  0.21743  0.07309  1.0000
  H   H9        1.0  0.17612  0.29417  0.31765  1.0000
  H   H10       1.0  0.82388  0.70584  0.68235  1.0000
  H   H11       1.0  0.39611  0.32997  0.05042  1.0000
  H   H12       1.0  0.60389  0.67004  0.94958  1.0000
  H   H13       1.0  0.30124  0.12927  0.95014  1.0000
  H   H14       1.0  0.69876  0.87073  0.04986  1.0000
  H   H15       1.0  0.52656  0.93812  0.84770  1.0000
  H   H16       1.0  0.47344  0.06188  0.15230  1.0000
  H   H17       1.0  0.55345  0.80484  0.63813  1.0000
  H   H18       1.0  0.44656  0.19516  0.36187  1.0000
  H   H19       1.0  0.22299  0.22279  0.75685  1.0000
  H   H20       1.0  0.77701  0.77720  0.24315  1.0000
  H   H21       1.0  0.32761  0.42143  0.85770  1.0000
  H   H22       1.0  0.67238  0.57857  0.14230  1.0000
  H   H23       1.0  0.65956  0.90343  0.41377  1.0000
  H   H24       1.0  0.34045  0.09657  0.58623  1.0000
  H   H25       1.0  0.90419  0.04346  0.31030  1.0000
  H   H26       1.0  0.09581  0.95654  0.68970  1.0000
  C   C1        1.0  0.02038  0.34323  0.58613  1.0000
  C   C2        1.0  0.97962  0.65677  0.41387  1.0000
  C   C3        1.0  0.51853  0.32632  0.82583  1.0000
  C   C4        1.0  0.48147  0.67368  0.17417  1.0000
  C   C5        1.0  0.03244  0.26564  0.46609  1.0000
  C   C6        1.0  0.96756  0.73436  0.53391  1.0000
  C   C7        1.0  0.30487  0.50619  0.47885  1.0000
  C   C8        1.0  0.69513  0.49381  0.52115  1.0000
  C   C9        1.0  0.76278  0.11394  0.57853  1.0000
  C   C10       1.0  0.23722  0.88607  0.42147  1.0000
  C   C11       1.0  0.27308  0.73065  0.83490  1.0000
  C   C12       1.0  0.72692  0.26935  0.16510  1.0000
  C   C13       1.0  0.30152  0.58627  0.60182  1.0000
  C   C14       1.0  0.69848  0.41373  0.39818  1.0000
  C   C15       1.0  0.17523  0.35192  0.41305  1.0000
  C   C16       1.0  0.82477  0.64808  0.58695  1.0000
  C   C17       1.0  0.29319  0.24397  0.96025  1.0000
  C   C18       1.0  0.70682  0.75603  0.03975  1.0000
  C   C19       1.0  0.42368  0.81635  0.79103  1.0000
  C   C20       1.0  0.57632  0.18365  0.20897  1.0000
  C   C21       1.0  0.43743  0.74344  0.67457  1.0000
  C   C22       1.0  0.56257  0.25656  0.32543  1.0000
  C   C23       1.0  0.15662  0.50766  0.65483  1.0000
  C   C24       1.0  0.84338  0.49234  0.34516  1.0000
  C   C25       1.0  0.33204  0.30543  0.84620  1.0000
  C   C26       1.0  0.66796  0.69456  0.15380  1.0000
  C   C27       1.0  0.76433  0.02779  0.45994  1.0000
  C   C28       1.0  0.23567  0.97221  0.54006  1.0000
  C   C29       1.0  0.89857  0.10450  0.40313  1.0000
  C   C30       1.0  0.10143  0.89550  0.59687  1.0000
  N   N1        1.0  0.14426  0.58144  0.76892  1.0000
  N   N2        1.0  0.85574  0.41856  0.23108  1.0000
  N   N3        1.0  0.88574  0.26651  0.63870  1.0000
  N   N4        1.0  0.11425  0.73349  0.36130  1.0000
  O   O1        1.0  0.04531  0.36720  0.98588  1.0000
  O   O2        1.0  0.95468  0.63280  0.01412  1.0000
  O   O3        1.0  0.06190  0.18035  0.11168  1.0000
  O   O4        1.0  0.93809  0.81965  0.88832  1.0000
  O   O5        1.0  0.91848  0.06829  0.86515  1.0000
  O   O6        1.0  0.08152  0.93171  0.13485  1.0000
  O   O7        1.0  0.59611  0.43233  0.77146  1.0000
  O   O8        1.0  0.40389  0.56767  0.22854  1.0000
  O   O9        1.0  0.59282  0.24208  0.86365  1.0000
  O   O10       1.0  0.40718  0.75792  0.13635  1.0000
