data_image0
_chemical_formula_structural       Cd2H12C20Br8N4Cl4
_chemical_formula_sum              "Cd2 H12 C20 Br8 N4 Cl4"
_cell_length_a       3.85984
_cell_length_b       14.0163
_cell_length_c       14.0163
_cell_angle_alpha    90.0007
_cell_angle_beta     89.9992
_cell_angle_gamma    90.0005

_space_group_name_H-M_alt    "P 1"
_space_group_IT_number       1

loop_
  _space_group_symop_operation_xyz
  'x, y, z'

loop_
  _atom_site_type_symbol
  _atom_site_label
  _atom_site_symmetry_multiplicity
  _atom_site_fract_x
  _atom_site_fract_y
  _atom_site_fract_z
  _atom_site_occupancy
  Cd  Cd1       1.0  0.50000  0.50000  1.00000  1.0000
  Cd  Cd2       1.0  0.50000  0.00000  0.50000  1.0000
  H   H1        1.0  0.73208  0.52954  0.21853  1.0000
  H   H2        1.0  0.73206  0.47046  0.78146  1.0000
  H   H3        1.0  0.26794  0.21853  0.47047  1.0000
  H   H4        1.0  0.26795  0.78147  0.52953  1.0000
  H   H5        1.0  0.73205  0.02953  0.28147  1.0000
  H   H6        1.0  0.73206  0.97046  0.71853  1.0000
  H   H7        1.0  0.26795  0.71853  0.02954  1.0000
  H   H8        1.0  0.26794  0.28147  0.97046  1.0000
  H   H9        1.0  0.49998  0.81613  0.31613  1.0000
  H   H10       1.0  0.50001  0.18387  0.68388  1.0000
  H   H11       1.0  0.50000  0.31612  0.18388  1.0000
  H   H12       1.0  0.49999  0.68388  0.81612  1.0000
  C   C1        1.0  0.62751  0.60091  0.20742  1.0000
  C   C2        1.0  0.62750  0.39910  0.79259  1.0000
  C   C3        1.0  0.37249  0.20741  0.39911  1.0000
  C   C4        1.0  0.37250  0.79259  0.60089  1.0000
  C   C5        1.0  0.62750  0.10090  0.29259  1.0000
  C   C6        1.0  0.62750  0.89910  0.70740  1.0000
  C   C7        1.0  0.37249  0.70741  0.10091  1.0000
  C   C8        1.0  0.37250  0.29258  0.89910  1.0000
  C   C9        1.0  0.62845  0.66992  0.27908  1.0000
  C   C10       1.0  0.62846  0.33008  0.72092  1.0000
  C   C11       1.0  0.37155  0.27908  0.33008  1.0000
  C   C12       1.0  0.37156  0.72092  0.66992  1.0000
  C   C13       1.0  0.62845  0.16992  0.22092  1.0000
  C   C14       1.0  0.62844  0.83007  0.77908  1.0000
  C   C15       1.0  0.37155  0.77909  0.16992  1.0000
  C   C16       1.0  0.37155  0.22092  0.83008  1.0000
  C   C17       1.0  0.50000  0.76123  0.26123  1.0000
  C   C18       1.0  0.50001  0.23877  0.73877  1.0000
  C   C19       1.0  0.49998  0.26122  0.23878  1.0000
  C   C20       1.0  0.50003  0.73878  0.76122  1.0000
  Br  Br1       1.0  0.80391  0.63803  0.40171  1.0000
  Br  Br2       1.0  0.80391  0.36197  0.59829  1.0000
  Br  Br3       1.0  0.19607  0.40171  0.36198  1.0000
  Br  Br4       1.0  0.19609  0.59829  0.63801  1.0000
  Br  Br5       1.0  0.80390  0.13802  0.09829  1.0000
  Br  Br6       1.0  0.80392  0.86198  0.90171  1.0000
  Br  Br7       1.0  0.19607  0.90171  0.13802  1.0000
  Br  Br8       1.0  0.19609  0.09829  0.86198  1.0000
  N   N1        1.0  0.50001  0.62051  0.12051  1.0000
  N   N2        1.0  0.49999  0.37949  0.87949  1.0000
  N   N3        1.0  0.50000  0.12051  0.37949  1.0000
  N   N4        1.0  0.50000  0.87948  0.62051  1.0000
  Cl  Cl1       1.0  0.00000  0.40841  0.09159  1.0000
  Cl  Cl2       1.0  0.00001  0.59159  0.90840  1.0000
  Cl  Cl3       1.0  0.00000  0.09160  0.59160  1.0000
  Cl  Cl4       1.0  0.00000  0.90841  0.40840  1.0000
