data_image0
_chemical_formula_structural       Cd2H36C28N4Cl4
_chemical_formula_sum              "Cd2 H36 C28 N4 Cl4"
_cell_length_a       3.84767
_cell_length_b       14.0013
_cell_length_c       14.0011
_cell_angle_alpha    90.0006
_cell_angle_beta     90.0005
_cell_angle_gamma    90.0006

_space_group_name_H-M_alt    "P 1"
_space_group_IT_number       1

loop_
  _space_group_symop_operation_xyz
  'x, y, z'

loop_
  _atom_site_type_symbol
  _atom_site_label
  _atom_site_symmetry_multiplicity
  _atom_site_fract_x
  _atom_site_fract_y
  _atom_site_fract_z
  _atom_site_occupancy
  Cd  Cd1       1.0  0.49998  0.50000  0.00000  1.0000
  Cd  Cd2       1.0  0.50000  0.00000  0.50000  1.0000
  H   H1        1.0  0.72839  0.52825  0.21690  1.0000
  H   H2        1.0  0.72847  0.47176  0.78311  1.0000
  H   H3        1.0  0.27156  0.21689  0.47175  1.0000
  H   H4        1.0  0.27155  0.78310  0.52825  1.0000
  H   H5        1.0  0.72846  0.02825  0.28311  1.0000
  H   H6        1.0  0.72847  0.97174  0.71689  1.0000
  H   H7        1.0  0.27158  0.71689  0.02824  1.0000
  H   H8        1.0  0.27158  0.28311  0.97175  1.0000
  H   H9        1.0  0.49998  0.81385  0.31384  1.0000
  H   H10       1.0  0.50003  0.18616  0.68616  1.0000
  H   H11       1.0  0.49999  0.31384  0.18616  1.0000
  H   H12       1.0  0.50002  0.68615  0.81384  1.0000
  H   H13       1.0  0.55618  0.62240  0.42601  1.0000
  H   H14       1.0  0.55625  0.37760  0.57400  1.0000
  H   H15       1.0  0.44379  0.42599  0.37761  1.0000
  H   H16       1.0  0.44377  0.57400  0.62239  1.0000
  H   H17       1.0  0.55622  0.12239  0.07400  1.0000
  H   H18       1.0  0.55623  0.87760  0.92600  1.0000
  H   H19       1.0  0.44376  0.92599  0.12239  1.0000
  H   H20       1.0  0.44377  0.07400  0.87760  1.0000
  H   H21       1.0  0.89581  0.70603  0.40914  1.0000
  H   H22       1.0  0.89588  0.29398  0.59087  1.0000
  H   H23       1.0  0.10416  0.40913  0.29398  1.0000
  H   H24       1.0  0.10416  0.59087  0.70602  1.0000
  H   H25       1.0  0.89584  0.20602  0.09087  1.0000
  H   H26       1.0  0.89585  0.79398  0.90914  1.0000
  H   H27       1.0  0.10414  0.90913  0.20601  1.0000
  H   H28       1.0  0.10417  0.09087  0.79397  1.0000
  H   H29       1.0  0.95301  0.58420  0.37394  1.0000
  H   H30       1.0  0.95308  0.41581  0.62606  1.0000
  H   H31       1.0  0.04695  0.37394  0.41581  1.0000
  H   H32       1.0  0.04696  0.62606  0.58419  1.0000
  H   H33       1.0  0.95304  0.08419  0.12606  1.0000
  H   H34       1.0  0.95304  0.91580  0.87394  1.0000
  H   H35       1.0  0.04695  0.87394  0.08419  1.0000
  H   H36       1.0  0.04696  0.12606  0.91580  1.0000
  C   C1        1.0  0.62440  0.60007  0.20663  1.0000
  C   C2        1.0  0.62447  0.39993  0.79338  1.0000
  C   C3        1.0  0.37552  0.20662  0.39994  1.0000
  C   C4        1.0  0.37554  0.79338  0.60006  1.0000
  C   C5        1.0  0.62446  0.10007  0.29338  1.0000
  C   C6        1.0  0.62448  0.89993  0.70662  1.0000
  C   C7        1.0  0.37551  0.70662  0.10006  1.0000
  C   C8        1.0  0.37555  0.29338  0.89994  1.0000
  C   C9        1.0  0.62928  0.66785  0.27984  1.0000
  C   C10       1.0  0.62936  0.33216  0.72016  1.0000
  C   C11       1.0  0.37067  0.27983  0.33216  1.0000
  C   C12       1.0  0.37071  0.72017  0.66783  1.0000
  C   C13       1.0  0.62930  0.16784  0.22017  1.0000
  C   C14       1.0  0.62933  0.83216  0.77983  1.0000
  C   C15       1.0  0.37070  0.77983  0.16783  1.0000
  C   C16       1.0  0.37072  0.22017  0.83216  1.0000
  C   C17       1.0  0.49996  0.75879  0.25880  1.0000
  C   C18       1.0  0.50001  0.24121  0.74120  1.0000
  C   C19       1.0  0.49998  0.25878  0.24121  1.0000
  C   C20       1.0  0.50002  0.74121  0.75879  1.0000
  C   C21       1.0  0.76735  0.64364  0.37729  1.0000
  C   C22       1.0  0.76742  0.35637  0.62271  1.0000
  C   C23       1.0  0.23261  0.37728  0.35638  1.0000
  C   C24       1.0  0.23261  0.62271  0.64362  1.0000
  C   C25       1.0  0.76738  0.14362  0.12271  1.0000
  C   C26       1.0  0.76740  0.85637  0.87730  1.0000
  C   C27       1.0  0.23258  0.87729  0.14362  1.0000
  C   C28       1.0  0.23262  0.12271  0.85637  1.0000
  N   N1        1.0  0.49999  0.61908  0.11908  1.0000
  N   N2        1.0  0.50001  0.38092  0.88092  1.0000
  N   N3        1.0  0.50000  0.11908  0.38092  1.0000
  N   N4        1.0  0.50002  0.88092  0.61908  1.0000
  Cl  Cl1       1.0  0.99998  0.40642  0.09359  1.0000
  Cl  Cl2       1.0  0.99998  0.59358  0.90642  1.0000
  Cl  Cl3       1.0  0.00001  0.09358  0.59359  1.0000
  Cl  Cl4       1.0  0.00000  0.90642  0.40642  1.0000
