data_image0
_chemical_formula_structural       Cd4P8H36C28N4O28
_chemical_formula_sum              "Cd4 P8 H36 C28 N4 O28"
_cell_length_a       5.66835
_cell_length_b       12.746
_cell_length_c       15.9811
_cell_angle_alpha    90.0006
_cell_angle_beta     90.0003
_cell_angle_gamma    102.101

_space_group_name_H-M_alt    "P 1"
_space_group_IT_number       1

loop_
  _space_group_symop_operation_xyz
  'x, y, z'

loop_
  _atom_site_type_symbol
  _atom_site_label
  _atom_site_symmetry_multiplicity
  _atom_site_fract_x
  _atom_site_fract_y
  _atom_site_fract_z
  _atom_site_occupancy
  Cd  Cd1       1.0  0.80630  0.04024  0.42031  1.0000
  Cd  Cd2       1.0  0.19371  0.45975  0.92031  1.0000
  Cd  Cd3       1.0  0.19372  0.95976  0.57970  1.0000
  Cd  Cd4       1.0  0.80628  0.54024  0.07970  1.0000
  P   P1        1.0  0.25411  0.90429  0.36936  1.0000
  P   P2        1.0  0.74590  0.59571  0.86936  1.0000
  P   P3        1.0  0.74592  0.09571  0.63064  1.0000
  P   P4        1.0  0.25407  0.40429  0.13064  1.0000
  P   P5        1.0  0.31997  0.14499  0.33252  1.0000
  P   P6        1.0  0.68004  0.35501  0.83252  1.0000
  P   P7        1.0  0.68006  0.85501  0.66748  1.0000
  P   P8        1.0  0.31995  0.64498  0.16748  1.0000
  H   H1        1.0  0.46271  0.26185  0.95913  1.0000
  H   H2        1.0  0.53728  0.23816  0.45913  1.0000
  H   H3        1.0  0.53726  0.73816  0.04086  1.0000
  H   H4        1.0  0.46275  0.76184  0.54086  1.0000
  H   H5        1.0  0.27966  0.75435  0.27695  1.0000
  H   H6        1.0  0.72035  0.74565  0.77695  1.0000
  H   H7        1.0  0.72037  0.24566  0.72305  1.0000
  H   H8        1.0  0.27962  0.25434  0.22305  1.0000
  H   H9        1.0  0.94013  0.90792  0.26094  1.0000
  H   H10       1.0  0.05988  0.59208  0.76094  1.0000
  H   H11       1.0  0.05988  0.09208  0.73907  1.0000
  H   H12       1.0  0.94012  0.40792  0.23907  1.0000
  H   H13       1.0  0.05544  0.00796  0.10090  1.0000
  H   H14       1.0  0.94458  0.49205  0.60091  1.0000
  H   H15       1.0  0.94457  0.99204  0.89910  1.0000
  H   H16       1.0  0.05543  0.50794  0.39910  1.0000
  H   H17       1.0  0.09739  0.14002  0.98081  1.0000
  H   H18       1.0  0.90262  0.35999  0.48080  1.0000
  H   H19       1.0  0.90263  0.85998  0.01920  1.0000
  H   H20       1.0  0.09740  0.64001  0.51920  1.0000
  H   H21       1.0  0.81065  0.26742  0.04006  1.0000
  H   H22       1.0  0.18932  0.23259  0.54004  1.0000
  H   H23       1.0  0.18929  0.73258  0.95995  1.0000
  H   H24       1.0  0.81069  0.76743  0.45995  1.0000
  H   H25       1.0  0.80102  0.14290  0.16153  1.0000
  H   H26       1.0  0.19896  0.35711  0.66152  1.0000
  H   H27       1.0  0.19893  0.85710  0.83848  1.0000
  H   H28       1.0  0.80104  0.64290  0.33848  1.0000
  H   H29       1.0  0.59655  0.99674  0.24020  1.0000
  H   H30       1.0  0.40344  0.50326  0.74019  1.0000
  H   H31       1.0  0.40345  0.00327  0.75979  1.0000
  H   H32       1.0  0.59654  0.49673  0.25980  1.0000
  H   H33       1.0  0.35383  0.90608  0.19385  1.0000
  H   H34       1.0  0.64620  0.59391  0.69384  1.0000
  H   H35       1.0  0.64621  0.09391  0.80614  1.0000
  H   H36       1.0  0.35381  0.40608  0.30615  1.0000
  C   C1        1.0  0.42696  0.06280  0.14034  1.0000
  C   C2        1.0  0.57303  0.43720  0.64033  1.0000
  C   C3        1.0  0.57301  0.93720  0.85968  1.0000
  C   C4        1.0  0.42699  0.56280  0.35967  1.0000
  C   C5        1.0  0.22742  0.06153  0.08786  1.0000
  C   C6        1.0  0.77259  0.43848  0.58786  1.0000
  C   C7        1.0  0.77258  0.93847  0.91214  1.0000
  C   C8        1.0  0.22740  0.56151  0.41214  1.0000
  C   C9        1.0  0.24659  0.13325  0.02198  1.0000
  C   C10       1.0  0.75344  0.36676  0.52197  1.0000
  C   C11       1.0  0.75344  0.86675  0.97802  1.0000
  C   C12       1.0  0.24659  0.63324  0.47802  1.0000
  C   C13       1.0  0.65255  0.20561  0.05503  1.0000
  C   C14       1.0  0.34743  0.29439  0.55502  1.0000
  C   C15       1.0  0.34739  0.79438  0.94498  1.0000
  C   C16       1.0  0.65260  0.70562  0.44498  1.0000
  C   C17       1.0  0.64265  0.13576  0.12170  1.0000
  C   C18       1.0  0.35735  0.36425  0.62169  1.0000
  C   C19       1.0  0.35734  0.86425  0.87832  1.0000
  C   C20       1.0  0.64267  0.63576  0.37831  1.0000
  C   C21       1.0  0.41422  0.98987  0.21465  1.0000
  C   C22       1.0  0.58576  0.51013  0.71465  1.0000
  C   C23       1.0  0.58577  0.01013  0.78535  1.0000
  C   C24       1.0  0.41423  0.48987  0.28535  1.0000
  C   C25       1.0  0.24384  0.00729  0.28687  1.0000
  C   C26       1.0  0.75616  0.49272  0.78686  1.0000
  C   C27       1.0  0.75616  0.99271  0.71314  1.0000
  C   C28       1.0  0.24382  0.50728  0.21314  1.0000
  N   N1        1.0  0.45620  0.20231  0.00687  1.0000
  N   N2        1.0  0.54381  0.29769  0.50687  1.0000
  N   N3        1.0  0.54381  0.79769  0.99314  1.0000
  N   N4        1.0  0.45620  0.70232  0.49313  1.0000
  O   O1        1.0  0.51470  0.90375  0.39315  1.0000
  O   O2        1.0  0.48530  0.59624  0.89314  1.0000
  O   O3        1.0  0.48532  0.09625  0.60685  1.0000
  O   O4        1.0  0.51467  0.40375  0.10686  1.0000
  O   O5        1.0  0.12455  0.79977  0.32713  1.0000
  O   O6        1.0  0.87548  0.70022  0.82713  1.0000
  O   O7        1.0  0.87550  0.20023  0.67287  1.0000
  O   O8        1.0  0.12450  0.29977  0.17287  1.0000
  O   O9        1.0  0.10093  0.93340  0.44280  1.0000
  O   O10       1.0  0.89907  0.56660  0.94280  1.0000
  O   O11       1.0  0.89911  0.06661  0.55719  1.0000
  O   O12       1.0  0.10091  0.43339  0.05720  1.0000
  O   O13       1.0  0.53370  0.14746  0.39203  1.0000
  O   O14       1.0  0.46630  0.35255  0.89203  1.0000
  O   O15       1.0  0.46632  0.85255  0.60797  1.0000
  O   O16       1.0  0.53367  0.64745  0.10796  1.0000
  O   O17       1.0  0.09726  0.17063  0.37443  1.0000
  O   O18       1.0  0.90274  0.32937  0.87444  1.0000
  O   O19       1.0  0.90276  0.82936  0.62557  1.0000
  O   O20       1.0  0.09722  0.67063  0.12558  1.0000
  O   O21       1.0  0.41122  0.22622  0.26048  1.0000
  O   O22       1.0  0.58878  0.27378  0.76048  1.0000
  O   O23       1.0  0.58877  0.77378  0.73952  1.0000
  O   O24       1.0  0.41124  0.72623  0.23951  1.0000
  O   O25       1.0  0.99363  0.98677  0.25961  1.0000
  O   O26       1.0  0.00637  0.51322  0.75962  1.0000
  O   O27       1.0  0.00637  0.01322  0.74038  1.0000
  O   O28       1.0  0.99362  0.48677  0.24039  1.0000
