data_image0
_chemical_formula_structural       Cd2H12C20N4Cl12
_chemical_formula_sum              "Cd2 H12 C20 N4 Cl12"
_cell_length_a       3.77098
_cell_length_b       14.0842
_cell_length_c       14.0842
_cell_angle_alpha    90
_cell_angle_beta     90
_cell_angle_gamma    90

_space_group_name_H-M_alt    "P 1"
_space_group_IT_number       1

loop_
  _space_group_symop_operation_xyz
  'x, y, z'

loop_
  _atom_site_type_symbol
  _atom_site_label
  _atom_site_symmetry_multiplicity
  _atom_site_fract_x
  _atom_site_fract_y
  _atom_site_fract_z
  _atom_site_occupancy
  Cd  Cd1       1.0  0.50000  0.50000  1.00000  1.0000
  Cd  Cd2       1.0  0.50000  1.00000  0.50000  1.0000
  H   H1        1.0  0.68086  0.52452  0.22159  1.0000
  H   H2        1.0  0.68086  0.47548  0.77841  1.0000
  H   H3        1.0  0.31914  0.22159  0.47548  1.0000
  H   H4        1.0  0.31914  0.77841  0.52452  1.0000
  H   H5        1.0  0.68086  0.02452  0.27841  1.0000
  H   H6        1.0  0.68086  0.97548  0.72159  1.0000
  H   H7        1.0  0.31914  0.72159  0.02452  1.0000
  H   H8        1.0  0.31914  0.27841  0.97548  1.0000
  H   H9        1.0  0.50000  0.81397  0.31396  1.0000
  H   H10       1.0  0.50000  0.18604  0.68603  1.0000
  H   H11       1.0  0.50000  0.31396  0.18603  1.0000
  H   H12       1.0  0.50000  0.68603  0.81397  1.0000
  C   C1        1.0  0.60073  0.59764  0.20808  1.0000
  C   C2        1.0  0.60073  0.40236  0.79192  1.0000
  C   C3        1.0  0.39927  0.20808  0.40236  1.0000
  C   C4        1.0  0.39927  0.79192  0.59764  1.0000
  C   C5        1.0  0.60073  0.09764  0.29192  1.0000
  C   C6        1.0  0.60073  0.90236  0.70808  1.0000
  C   C7        1.0  0.39927  0.70808  0.09764  1.0000
  C   C8        1.0  0.39927  0.29192  0.90236  1.0000
  C   C9        1.0  0.60570  0.66650  0.27933  1.0000
  C   C10       1.0  0.60570  0.33350  0.72067  1.0000
  C   C11       1.0  0.39430  0.27933  0.33350  1.0000
  C   C12       1.0  0.39430  0.72067  0.66650  1.0000
  C   C13       1.0  0.60570  0.16650  0.22067  1.0000
  C   C14       1.0  0.60570  0.83350  0.77933  1.0000
  C   C15       1.0  0.39430  0.77933  0.16650  1.0000
  C   C16       1.0  0.39430  0.22067  0.83350  1.0000
  C   C17       1.0  0.50000  0.75932  0.25932  1.0000
  C   C18       1.0  0.50000  0.24068  0.74068  1.0000
  C   C19       1.0  0.50000  0.25932  0.24068  1.0000
  C   C20       1.0  0.50000  0.74068  0.75932  1.0000
  N   N1        1.0  0.50000  0.61946  0.11946  1.0000
  N   N2        1.0  0.50000  0.38054  0.88054  1.0000
  N   N3        1.0  0.50000  0.11946  0.38054  1.0000
  N   N4        1.0  0.50000  0.88054  0.61946  1.0000
  Cl  Cl1       1.0  0.00000  0.40696  0.09304  1.0000
  Cl  Cl2       1.0  0.00000  0.59304  0.90696  1.0000
  Cl  Cl3       1.0  0.00000  0.09304  0.59304  1.0000
  Cl  Cl4       1.0  0.00000  0.90696  0.40696  1.0000
  Cl  Cl5       1.0  0.74379  0.63531  0.39188  1.0000
  Cl  Cl6       1.0  0.74378  0.36469  0.60812  1.0000
  Cl  Cl7       1.0  0.25621  0.39188  0.36469  1.0000
  Cl  Cl8       1.0  0.25621  0.60812  0.63531  1.0000
  Cl  Cl9       1.0  0.74379  0.13531  0.10812  1.0000
  Cl  Cl10      1.0  0.74379  0.86469  0.89188  1.0000
  Cl  Cl11      1.0  0.25621  0.89188  0.13531  1.0000
  Cl  Cl12      1.0  0.25621  0.10812  0.86469  1.0000
