data_image0
_chemical_formula_structural       Cd2H36C28Br4N4
_chemical_formula_sum              "Cd2 H36 C28 Br4 N4"
_cell_length_a       3.95701
_cell_length_b       14.3209
_cell_length_c       14.3208
_cell_angle_alpha    90
_cell_angle_beta     90
_cell_angle_gamma    89.9983

_space_group_name_H-M_alt    "P 1"
_space_group_IT_number       1

loop_
  _space_group_symop_operation_xyz
  'x, y, z'

loop_
  _atom_site_type_symbol
  _atom_site_label
  _atom_site_symmetry_multiplicity
  _atom_site_fract_x
  _atom_site_fract_y
  _atom_site_fract_z
  _atom_site_occupancy
  Cd  Cd1       1.0  0.50000  0.49999  1.00000  1.0000
  Cd  Cd2       1.0  0.50000  1.00000  0.50000  1.0000
  H   H1        1.0  0.70295  0.52676  0.21460  1.0000
  H   H2        1.0  0.70298  0.47323  0.78539  1.0000
  H   H3        1.0  0.29707  0.21461  0.47325  1.0000
  H   H4        1.0  0.29709  0.78539  0.52675  1.0000
  H   H5        1.0  0.70293  0.02675  0.28539  1.0000
  H   H6        1.0  0.70297  0.97324  0.71461  1.0000
  H   H7        1.0  0.29705  0.71462  0.02674  1.0000
  H   H8        1.0  0.29708  0.28538  0.97325  1.0000
  H   H9        1.0  0.49998  0.80763  0.30760  1.0000
  H   H10       1.0  0.49999  0.19237  0.69239  1.0000
  H   H11       1.0  0.49999  0.30762  0.19240  1.0000
  H   H12       1.0  0.50003  0.69239  0.80762  1.0000
  H   H13       1.0  0.88727  0.69749  0.40095  1.0000
  H   H14       1.0  0.88730  0.30251  0.59903  1.0000
  H   H15       1.0  0.11267  0.40097  0.30253  1.0000
  H   H16       1.0  0.11271  0.59905  0.69748  1.0000
  H   H17       1.0  0.88729  0.19748  0.09904  1.0000
  H   H18       1.0  0.88733  0.80252  0.90097  1.0000
  H   H19       1.0  0.11265  0.90097  0.19746  1.0000
  H   H20       1.0  0.11268  0.09903  0.80253  1.0000
  H   H21       1.0  0.90275  0.57671  0.36912  1.0000
  H   H22       1.0  0.90275  0.42328  0.63087  1.0000
  H   H23       1.0  0.09720  0.36913  0.42331  1.0000
  H   H24       1.0  0.09724  0.63088  0.57671  1.0000
  H   H25       1.0  0.90275  0.07671  0.13088  1.0000
  H   H26       1.0  0.90279  0.92329  0.86913  1.0000
  H   H27       1.0  0.09719  0.86914  0.07669  1.0000
  H   H28       1.0  0.09721  0.13087  0.92330  1.0000
  H   H29       1.0  0.53094  0.62506  0.41904  1.0000
  H   H30       1.0  0.53095  0.37495  0.58095  1.0000
  H   H31       1.0  0.46900  0.41906  0.37497  1.0000
  H   H32       1.0  0.46903  0.58095  0.62505  1.0000
  H   H33       1.0  0.53096  0.12505  0.08095  1.0000
  H   H34       1.0  0.53099  0.87496  0.91905  1.0000
  H   H35       1.0  0.46898  0.91906  0.12503  1.0000
  H   H36       1.0  0.46900  0.08093  0.87496  1.0000
  C   C1        1.0  0.61093  0.59778  0.20355  1.0000
  C   C2        1.0  0.61097  0.40221  0.79644  1.0000
  C   C3        1.0  0.38907  0.20356  0.40224  1.0000
  C   C4        1.0  0.38911  0.79644  0.59777  1.0000
  C   C5        1.0  0.61093  0.09777  0.29644  1.0000
  C   C6        1.0  0.61098  0.90223  0.70356  1.0000
  C   C7        1.0  0.38906  0.70357  0.09775  1.0000
  C   C8        1.0  0.38909  0.29643  0.90224  1.0000
  C   C9        1.0  0.61639  0.66403  0.27510  1.0000
  C   C10       1.0  0.61643  0.33596  0.72489  1.0000
  C   C11       1.0  0.38358  0.27511  0.33599  1.0000
  C   C12       1.0  0.38362  0.72489  0.66403  1.0000
  C   C13       1.0  0.61640  0.16403  0.22489  1.0000
  C   C14       1.0  0.61645  0.83598  0.77511  1.0000
  C   C15       1.0  0.38357  0.77512  0.16401  1.0000
  C   C16       1.0  0.38360  0.22488  0.83598  1.0000
  C   C17       1.0  0.49997  0.75377  0.25375  1.0000
  C   C18       1.0  0.50000  0.24623  0.74624  1.0000
  C   C19       1.0  0.49999  0.25377  0.24624  1.0000
  C   C20       1.0  0.50003  0.74624  0.75377  1.0000
  C   C21       1.0  0.74221  0.63927  0.37103  1.0000
  C   C22       1.0  0.74222  0.36073  0.62896  1.0000
  C   C23       1.0  0.25774  0.37105  0.36076  1.0000
  C   C24       1.0  0.25778  0.62896  0.63926  1.0000
  C   C25       1.0  0.74222  0.13926  0.12896  1.0000
  C   C26       1.0  0.74227  0.86075  0.87105  1.0000
  C   C27       1.0  0.25773  0.87106  0.13923  1.0000
  C   C28       1.0  0.25774  0.12894  0.86075  1.0000
  Br  Br1       1.0  0.00001  0.40223  0.09778  1.0000
  Br  Br2       1.0  0.00001  0.59776  0.90222  1.0000
  Br  Br3       1.0  0.00000  0.09777  0.59778  1.0000
  Br  Br4       1.0  0.00001  0.90223  0.40223  1.0000
  N   N1        1.0  0.50000  0.61715  0.11713  1.0000
  N   N2        1.0  0.50004  0.38284  0.88286  1.0000
  N   N3        1.0  0.50001  0.11714  0.38286  1.0000
  N   N4        1.0  0.50004  0.88285  0.61715  1.0000
