data_image0
_chemical_formula_structural       Cd2H12C20Br4N4Cl8
_chemical_formula_sum              "Cd2 H12 C20 Br4 N4 Cl8"
_cell_length_a       3.89002
_cell_length_b       14.3215
_cell_length_c       14.3216
_cell_angle_alpha    91.0713
_cell_angle_beta     96.0856
_cell_angle_gamma    96.0855

_space_group_name_H-M_alt    "P 1"
_space_group_IT_number       1

loop_
  _space_group_symop_operation_xyz
  'x, y, z'

loop_
  _atom_site_type_symbol
  _atom_site_label
  _atom_site_symmetry_multiplicity
  _atom_site_fract_x
  _atom_site_fract_y
  _atom_site_fract_z
  _atom_site_occupancy
  Cd  Cd1       1.0  0.00000  0.50000  0.50000  1.0000
  Cd  Cd2       1.0  0.00000  1.00000  0.00000  1.0000
  H   H1        1.0  0.74617  0.52249  0.27971  1.0000
  H   H2        1.0  0.25383  0.72029  0.47751  1.0000
  H   H3        1.0  0.25383  0.47751  0.72029  1.0000
  H   H4        1.0  0.74617  0.27971  0.52249  1.0000
  H   H5        1.0  0.00000  0.80737  0.19263  1.0000
  H   H6        1.0  0.00000  0.19263  0.80737  1.0000
  H   H7        1.0  0.94110  0.77328  0.97680  1.0000
  H   H8        1.0  0.05891  0.02320  0.22672  1.0000
  H   H9        1.0  0.05891  0.22672  0.02320  1.0000
  H   H10       1.0  0.94109  0.97680  0.77328  1.0000
  H   H11       1.0  0.20107  0.70003  0.70003  1.0000
  H   H12       1.0  0.79893  0.29997  0.29997  1.0000
  C   C1        1.0  0.85845  0.59503  0.29415  1.0000
  C   C2        1.0  0.14155  0.70585  0.40497  1.0000
  C   C3        1.0  0.14155  0.40497  0.70585  1.0000
  C   C4        1.0  0.85845  0.29415  0.59503  1.0000
  C   C5        1.0  0.85273  0.66211  0.22465  1.0000
  C   C6        1.0  0.14727  0.77535  0.33789  1.0000
  C   C7        1.0  0.14728  0.33789  0.77535  1.0000
  C   C8        1.0  0.85273  0.22465  0.66211  1.0000
  C   C9        1.0  0.00000  0.75414  0.24586  1.0000
  C   C10       1.0  1.00000  0.24586  0.75414  1.0000
  C   C11       1.0  0.97689  0.79053  0.90437  1.0000
  C   C12       1.0  0.02311  0.09563  0.20947  1.0000
  C   C13       1.0  0.02310  0.20947  0.09563  1.0000
  C   C14       1.0  0.97688  0.90437  0.79053  1.0000
  C   C15       1.0  0.06773  0.72438  0.84110  1.0000
  C   C16       1.0  0.93227  0.15890  0.27562  1.0000
  C   C17       1.0  0.93227  0.27562  0.15890  1.0000
  C   C18       1.0  0.06772  0.84110  0.72438  1.0000
  C   C19       1.0  0.12001  0.74967  0.74967  1.0000
  C   C20       1.0  0.87999  0.25033  0.25033  1.0000
  Br  Br1       1.0  0.57652  0.59970  0.59970  1.0000
  Br  Br2       1.0  0.42348  0.40030  0.40030  1.0000
  Br  Br3       1.0  0.50000  0.90362  0.09638  1.0000
  Br  Br4       1.0  0.50000  0.09638  0.90362  1.0000
  N   N1        1.0  0.00000  0.61784  0.38217  1.0000
  N   N2        1.0  0.00000  0.38217  0.61784  1.0000
  N   N3        1.0  0.93892  0.87873  0.87872  1.0000
  N   N4        1.0  0.06108  0.12127  0.12127  1.0000
  Cl  Cl1       1.0  0.66153  0.63035  0.11269  1.0000
  Cl  Cl2       1.0  0.33848  0.88731  0.36965  1.0000
  Cl  Cl3       1.0  0.33848  0.36965  0.88731  1.0000
  Cl  Cl4       1.0  0.66153  0.11269  0.63035  1.0000
  Cl  Cl5       1.0  0.12391  0.61217  0.87716  1.0000
  Cl  Cl6       1.0  0.87609  0.12284  0.38783  1.0000
  Cl  Cl7       1.0  0.87608  0.38783  0.12284  1.0000
  Cl  Cl8       1.0  0.12392  0.87715  0.61217  1.0000
