data_image0
_chemical_formula_structural       Cd2H12C20Br12N4
_chemical_formula_sum              "Cd2 H12 C20 Br12 N4"
_cell_length_a       3.95837
_cell_length_b       14.2913
_cell_length_c       14.2915
_cell_angle_alpha    89.999
_cell_angle_beta     90.0015
_cell_angle_gamma    89.9999

_space_group_name_H-M_alt    "P 1"
_space_group_IT_number       1

loop_
  _space_group_symop_operation_xyz
  'x, y, z'

loop_
  _atom_site_type_symbol
  _atom_site_label
  _atom_site_symmetry_multiplicity
  _atom_site_fract_x
  _atom_site_fract_y
  _atom_site_fract_z
  _atom_site_occupancy
  Cd  Cd1       1.0  0.50000  0.50000  1.00000  1.0000
  Cd  Cd2       1.0  0.50000  1.00000  0.50000  1.0000
  H   H1        1.0  0.70970  0.52942  0.21797  1.0000
  H   H2        1.0  0.70967  0.47058  0.78202  1.0000
  H   H3        1.0  0.29031  0.21797  0.47058  1.0000
  H   H4        1.0  0.29033  0.78203  0.52943  1.0000
  H   H5        1.0  0.70968  0.02943  0.28203  1.0000
  H   H6        1.0  0.70969  0.97057  0.71798  1.0000
  H   H7        1.0  0.29030  0.71797  0.02942  1.0000
  H   H8        1.0  0.29029  0.28203  0.97057  1.0000
  H   H9        1.0  0.49999  0.81191  0.31192  1.0000
  H   H10       1.0  0.50004  0.18808  0.68808  1.0000
  H   H11       1.0  0.50000  0.31193  0.18808  1.0000
  H   H12       1.0  0.50000  0.68807  0.81193  1.0000
  C   C1        1.0  0.61568  0.60017  0.20611  1.0000
  C   C2        1.0  0.61567  0.39983  0.79387  1.0000
  C   C3        1.0  0.38433  0.20611  0.39983  1.0000
  C   C4        1.0  0.38434  0.79389  0.60018  1.0000
  C   C5        1.0  0.61568  0.10018  0.29389  1.0000
  C   C6        1.0  0.61568  0.89982  0.70612  1.0000
  C   C7        1.0  0.38433  0.70610  0.10017  1.0000
  C   C8        1.0  0.38433  0.29391  0.89983  1.0000
  C   C9        1.0  0.61820  0.66794  0.27635  1.0000
  C   C10       1.0  0.61821  0.33206  0.72365  1.0000
  C   C11       1.0  0.38182  0.27636  0.33205  1.0000
  C   C12       1.0  0.38182  0.72364  0.66795  1.0000
  C   C13       1.0  0.61820  0.16796  0.22365  1.0000
  C   C14       1.0  0.61818  0.83204  0.77636  1.0000
  C   C15       1.0  0.38180  0.77635  0.16795  1.0000
  C   C16       1.0  0.38183  0.22365  0.83203  1.0000
  C   C17       1.0  0.49999  0.75809  0.25808  1.0000
  C   C18       1.0  0.50000  0.24190  0.74192  1.0000
  C   C19       1.0  0.50001  0.25810  0.24192  1.0000
  C   C20       1.0  0.50000  0.74191  0.75809  1.0000
  Br  Br1       1.0  0.00000  0.40433  0.09566  1.0000
  Br  Br2       1.0  1.00000  0.59567  0.90433  1.0000
  Br  Br3       1.0  0.00001  0.09567  0.59567  1.0000
  Br  Br4       1.0  1.00000  0.90433  0.40434  1.0000
  Br  Br5       1.0  0.78299  0.63596  0.39709  1.0000
  Br  Br6       1.0  0.78294  0.36404  0.60289  1.0000
  Br  Br7       1.0  0.21704  0.39711  0.36403  1.0000
  Br  Br8       1.0  0.21704  0.60289  0.63597  1.0000
  Br  Br9       1.0  0.78296  0.13598  0.10291  1.0000
  Br  Br10      1.0  0.78291  0.86403  0.89711  1.0000
  Br  Br11      1.0  0.21699  0.89709  0.13596  1.0000
  Br  Br12      1.0  0.21704  0.10290  0.86403  1.0000
  N   N1        1.0  0.50000  0.62010  0.12010  1.0000
  N   N2        1.0  0.49996  0.37989  0.87990  1.0000
  N   N3        1.0  0.49999  0.12011  0.37990  1.0000
  N   N4        1.0  0.50002  0.87989  0.62011  1.0000
