data_image0
_chemical_formula_structural       Cd2H12C20I4N4Cl8
_chemical_formula_sum              "Cd2 H12 C20 I4 N4 Cl8"
_cell_length_a       4.11131
_cell_length_b       14.7705
_cell_length_c       14.7705
_cell_angle_alpha    88.8866
_cell_angle_beta     82.0058
_cell_angle_gamma    82.0057

_space_group_name_H-M_alt    "P 1"
_space_group_IT_number       1

loop_
  _space_group_symop_operation_xyz
  'x, y, z'

loop_
  _atom_site_type_symbol
  _atom_site_label
  _atom_site_symmetry_multiplicity
  _atom_site_fract_x
  _atom_site_fract_y
  _atom_site_fract_z
  _atom_site_occupancy
  Cd  Cd1       1.0  0.64126  0.99997  0.99997  1.0000
  Cd  Cd2       1.0  0.39183  0.50005  0.50005  1.0000
  H   H1        1.0  0.51072  0.22143  0.97959  1.0000
  H   H2        1.0  0.71231  0.77851  0.02033  1.0000
  H   H3        1.0  0.48261  0.47969  0.27858  1.0000
  H   H4        1.0  0.24047  0.52043  0.72154  1.0000
  H   H5        1.0  0.51071  0.97959  0.22143  1.0000
  H   H6        1.0  0.71232  0.02033  0.77850  1.0000
  H   H7        1.0  0.48260  0.27858  0.47970  1.0000
  H   H8        1.0  0.24047  0.72154  0.52043  1.0000
  H   H9        1.0  0.33398  0.29588  0.70394  1.0000
  H   H10       1.0  0.33397  0.70395  0.29588  1.0000
  H   H11       1.0  0.38017  0.20410  0.20410  1.0000
  H   H12       1.0  0.78835  0.79603  0.79604  1.0000
  C   C1        1.0  0.51448  0.20462  0.90786  1.0000
  C   C2        1.0  0.62740  0.79526  0.09207  1.0000
  C   C3        1.0  0.47006  0.40793  0.29533  1.0000
  C   C4        1.0  0.17278  0.59219  0.70478  1.0000
  C   C5        1.0  0.51447  0.90787  0.20462  1.0000
  C   C6        1.0  0.62743  0.09206  0.79526  1.0000
  C   C7        1.0  0.47005  0.29533  0.40794  1.0000
  C   C8        1.0  0.17281  0.70478  0.59219  1.0000
  C   C9        1.0  0.41460  0.27062  0.84467  1.0000
  C   C10       1.0  0.53032  0.72923  0.15520  1.0000
  C   C11       1.0  0.43610  0.34479  0.22932  1.0000
  C   C12       1.0  0.01009  0.65535  0.77082  1.0000
  C   C13       1.0  0.41458  0.84468  0.27062  1.0000
  C   C14       1.0  0.53034  0.15520  0.72922  1.0000
  C   C15       1.0  0.43610  0.22932  0.34478  1.0000
  C   C16       1.0  0.01009  0.77082  0.65535  1.0000
  C   C17       1.0  0.41790  0.24596  0.75387  1.0000
  C   C18       1.0  0.41787  0.75388  0.24597  1.0000
  C   C19       1.0  0.41467  0.25399  0.25400  1.0000
  C   C20       1.0  0.92246  0.74615  0.74616  1.0000
  I   I1        1.0  0.23175  0.89698  0.89698  1.0000
  I   I2        1.0  0.02523  0.10301  0.10300  1.0000
  I   I3        1.0  0.87931  0.39700  0.60294  1.0000
  I   I4        1.0  0.87931  0.60294  0.39700  1.0000
  N   N1        1.0  0.61383  0.11738  0.88251  1.0000
  N   N2        1.0  0.61381  0.88252  0.11738  1.0000
  N   N3        1.0  0.48190  0.38259  0.38259  1.0000
  N   N4        1.0  0.24632  0.61751  0.61751  1.0000
  Cl  Cl1       1.0  0.28070  0.38211  0.87906  1.0000
  Cl  Cl2       1.0  0.54315  0.61770  0.12074  1.0000
  Cl  Cl3       1.0  0.41326  0.37926  0.11785  1.0000
  Cl  Cl4       1.0  0.91106  0.62092  0.88235  1.0000
  Cl  Cl5       1.0  0.28069  0.87907  0.38212  1.0000
  Cl  Cl6       1.0  0.54317  0.12073  0.61769  1.0000
  Cl  Cl7       1.0  0.41325  0.11784  0.37926  1.0000
  Cl  Cl8       1.0  0.91106  0.88233  0.62093  1.0000
