data_image0
_chemical_formula_structural       Cd2H12C20I4Br8N4
_chemical_formula_sum              "Cd2 H12 C20 I4 Br8 N4"
_cell_length_a       4.13955
_cell_length_b       14.6837
_cell_length_c       14.684
_cell_angle_alpha    91.2031
_cell_angle_beta     96.4222
_cell_angle_gamma    96.4215

_space_group_name_H-M_alt    "P 1"
_space_group_IT_number       1

loop_
  _space_group_symop_operation_xyz
  'x, y, z'

loop_
  _atom_site_type_symbol
  _atom_site_label
  _atom_site_symmetry_multiplicity
  _atom_site_fract_x
  _atom_site_fract_y
  _atom_site_fract_z
  _atom_site_occupancy
  Cd  Cd1       1.0  0.99998  1.00000  1.00000  1.0000
  Cd  Cd2       1.0  0.00002  0.50000  0.50000  1.0000
  H   H1        1.0  0.93740  0.77569  0.97392  1.0000
  H   H2        1.0  0.93743  0.97392  0.77569  1.0000
  H   H3        1.0  0.06254  0.22430  0.02608  1.0000
  H   H4        1.0  0.06253  0.02608  0.22430  1.0000
  H   H5        1.0  0.20708  0.70659  0.70659  1.0000
  H   H6        1.0  0.79294  0.29342  0.29341  1.0000
  H   H7        1.0  0.75086  0.52479  0.28279  1.0000
  H   H8        1.0  0.75082  0.28278  0.52480  1.0000
  H   H9        1.0  0.24919  0.47521  0.71722  1.0000
  H   H10       1.0  0.24920  0.71722  0.47521  1.0000
  H   H11       1.0  0.00000  0.80232  0.19768  1.0000
  H   H12       1.0  0.00001  0.19767  0.80232  1.0000
  C   C1        1.0  0.97557  0.79274  0.90373  1.0000
  C   C2        1.0  0.97560  0.90374  0.79274  1.0000
  C   C3        1.0  0.02437  0.20726  0.09626  1.0000
  C   C4        1.0  0.02437  0.09627  0.20724  1.0000
  C   C5        1.0  0.06863  0.72913  0.84275  1.0000
  C   C6        1.0  0.06868  0.84274  0.72912  1.0000
  C   C7        1.0  0.93131  0.27088  0.15725  1.0000
  C   C8        1.0  0.93133  0.15725  0.27087  1.0000
  C   C9        1.0  0.12331  0.75422  0.75421  1.0000
  C   C10       1.0  0.87669  0.24580  0.24578  1.0000
  C   C11       1.0  0.86085  0.59541  0.29685  1.0000
  C   C12       1.0  0.86082  0.29683  0.59542  1.0000
  C   C13       1.0  0.13917  0.40458  0.70315  1.0000
  C   C14       1.0  0.13922  0.70316  0.40459  1.0000
  C   C15       1.0  0.85502  0.66087  0.22937  1.0000
  C   C16       1.0  0.85500  0.22937  0.66088  1.0000
  C   C17       1.0  0.14500  0.33912  0.77063  1.0000
  C   C18       1.0  0.14500  0.77063  0.33912  1.0000
  C   C19       1.0  0.00001  0.75041  0.24959  1.0000
  C   C20       1.0  0.00002  0.24959  0.75042  1.0000
  I   I1        1.0  0.49998  0.89998  0.10001  1.0000
  I   I2        1.0  0.49999  0.10002  0.89998  1.0000
  I   I3        1.0  0.58526  0.60402  0.60402  1.0000
  I   I4        1.0  0.41477  0.39598  0.39599  1.0000
  Br  Br1       1.0  0.13028  0.60862  0.88039  1.0000
  Br  Br2       1.0  0.13033  0.88040  0.60863  1.0000
  Br  Br3       1.0  0.86971  0.39138  0.11961  1.0000
  Br  Br4       1.0  0.86971  0.11961  0.39139  1.0000
  Br  Br5       1.0  0.64551  0.62750  0.10962  1.0000
  Br  Br6       1.0  0.64548  0.10961  0.62750  1.0000
  Br  Br7       1.0  0.35453  0.37250  0.89039  1.0000
  Br  Br8       1.0  0.35452  0.89039  0.37250  1.0000
  N   N1        1.0  0.93743  0.87859  0.87857  1.0000
  N   N2        1.0  0.06252  0.12142  0.12140  1.0000
  N   N3        1.0  0.00002  0.61740  0.38260  1.0000
  N   N4        1.0  0.00001  0.38260  0.61741  1.0000
