data_image0
_chemical_formula_structural       Cd4H44C60N20O20
_chemical_formula_sum              "Cd4 H44 C60 N20 O20"
_cell_length_a       10.2019
_cell_length_b       10.2049
_cell_length_c       18.6147
_cell_angle_alpha    101.017
_cell_angle_beta     99.8455
_cell_angle_gamma    109.761

_space_group_name_H-M_alt    "P 1"
_space_group_IT_number       1

loop_
  _space_group_symop_operation_xyz
  'x, y, z'

loop_
  _atom_site_type_symbol
  _atom_site_label
  _atom_site_symmetry_multiplicity
  _atom_site_fract_x
  _atom_site_fract_y
  _atom_site_fract_z
  _atom_site_occupancy
  Cd  Cd1       1.0  0.08001  0.99048  0.82967  1.0000
  Cd  Cd2       1.0  0.16067  0.74983  0.67034  1.0000
  Cd  Cd3       1.0  0.91999  0.00952  0.17033  1.0000
  Cd  Cd4       1.0  0.83932  0.25017  0.32966  1.0000
  H   H1        1.0  0.75890  0.81093  0.73446  1.0000
  H   H2        1.0  0.07577  0.52422  0.76572  1.0000
  H   H3        1.0  0.24110  0.18907  0.26554  1.0000
  H   H4        1.0  0.92422  0.47578  0.23428  1.0000
  H   H5        1.0  0.78314  0.53718  0.92350  1.0000
  H   H6        1.0  0.61314  0.36020  0.57689  1.0000
  H   H7        1.0  0.21687  0.46282  0.07650  1.0000
  H   H8        1.0  0.38686  0.63980  0.42311  1.0000
  H   H9        1.0  0.53960  0.59718  0.72610  1.0000
  H   H10       1.0  0.87037  0.31330  0.77409  1.0000
  H   H11       1.0  0.46040  0.40282  0.27390  1.0000
  H   H12       1.0  0.12962  0.68670  0.22591  1.0000
  H   H13       1.0  0.98752  0.75235  0.92466  1.0000
  H   H14       1.0  0.82716  0.56341  0.57571  1.0000
  H   H15       1.0  0.01248  0.24766  0.07534  1.0000
  H   H16       1.0  0.17284  0.43659  0.42429  1.0000
  H   H17       1.0  0.20796  0.14122  0.02162  1.0000
  H   H18       1.0  0.12007  0.68585  0.47838  1.0000
  H   H19       1.0  0.79206  0.85878  0.97838  1.0000
  H   H20       1.0  0.87992  0.31415  0.52162  1.0000
  H   H21       1.0  0.39723  0.76209  0.99075  1.0000
  H   H22       1.0  0.77201  0.90650  0.50917  1.0000
  H   H23       1.0  0.60278  0.23791  0.00925  1.0000
  H   H24       1.0  0.22799  0.09350  0.49083  1.0000
  H   H25       1.0  0.41732  0.09794  0.86351  1.0000
  H   H26       1.0  0.23382  0.05331  0.63651  1.0000
  H   H27       1.0  0.58268  0.90206  0.13648  1.0000
  H   H28       1.0  0.76617  0.94669  0.36349  1.0000
  H   H29       1.0  0.14768  0.29169  0.78109  1.0000
  H   H30       1.0  0.51037  0.86625  0.71864  1.0000
  H   H31       1.0  0.85233  0.70831  0.21891  1.0000
  H   H32       1.0  0.48962  0.13375  0.28136  1.0000
  H   H33       1.0  0.63456  0.30006  0.86584  1.0000
  H   H34       1.0  0.43352  0.26856  0.63439  1.0000
  H   H35       1.0  0.36544  0.69993  0.13415  1.0000
  H   H36       1.0  0.56648  0.73144  0.36561  1.0000
  H   H37       1.0  0.35597  0.50513  0.77822  1.0000
  H   H38       1.0  0.72654  0.07773  0.72171  1.0000
  H   H39       1.0  0.64404  0.49488  0.22178  1.0000
  H   H40       1.0  0.27345  0.92227  0.27829  1.0000
  H   H41       1.0  0.36144  0.10805  0.13390  1.0000
  H   H42       1.0  0.97525  0.72774  0.36609  1.0000
  H   H43       1.0  0.63857  0.89196  0.86610  1.0000
  H   H44       1.0  0.02475  0.27226  0.63391  1.0000
  C   C1        1.0  0.51456  0.42267  0.82303  1.0000
  C   C2        1.0  0.59906  0.19149  0.67708  1.0000
  C   C3        1.0  0.48545  0.57733  0.17697  1.0000
  C   C4        1.0  0.40094  0.80851  0.32292  1.0000
  C   C5        1.0  0.75859  0.74677  0.77525  1.0000
  C   C6        1.0  0.97083  0.48331  0.72498  1.0000
  C   C7        1.0  0.24142  0.25323  0.22475  1.0000
  C   C8        1.0  0.02916  0.51669  0.27502  1.0000
  C   C9        1.0  0.64179  0.54822  0.82456  1.0000
  C   C10       1.0  0.72303  0.31739  0.67569  1.0000
  C   C11       1.0  0.35821  0.45178  0.17544  1.0000
  C   C12       1.0  0.27696  0.68261  0.32431  1.0000
  C   C13       1.0  0.77161  0.59299  0.87986  1.0000
  C   C14       1.0  0.71257  0.39215  0.62047  1.0000
  C   C15       1.0  0.22839  0.40701  0.12014  1.0000
  C   C16       1.0  0.28743  0.60785  0.37953  1.0000
  C   C17       1.0  0.63697  0.62778  0.77102  1.0000
  C   C18       1.0  0.85605  0.36596  0.72924  1.0000
  C   C19       1.0  0.36303  0.37222  0.22898  1.0000
  C   C20       1.0  0.14395  0.63404  0.27076  1.0000
  C   C21       1.0  0.88790  0.71391  0.88048  1.0000
  C   C22       1.0  0.83287  0.50784  0.61986  1.0000
  C   C23       1.0  0.11210  0.28609  0.11952  1.0000
  C   C24       1.0  0.16712  0.49216  0.38014  1.0000
  C   C25       1.0  0.28153  0.87313  0.93595  1.0000
  C   C26       1.0  0.93765  0.84537  0.56397  1.0000
  C   C27       1.0  0.71847  0.12687  0.06406  1.0000
  C   C28       1.0  0.06234  0.15462  0.43603  1.0000
  C   C29       1.0  0.26043  0.78470  0.85637  1.0000
  C   C30       1.0  0.92883  0.90404  0.64356  1.0000
  C   C31       1.0  0.73957  0.21530  0.14363  1.0000
  C   C32       1.0  0.07117  0.09595  0.35644  1.0000
  C   C33       1.0  0.25378  0.05890  0.01535  1.0000
  C   C34       1.0  0.04404  0.73801  0.48461  1.0000
  C   C35       1.0  0.74623  0.94110  0.98465  1.0000
  C   C36       1.0  0.95596  0.26198  0.51540  1.0000
  C   C37       1.0  0.35785  0.84952  0.99882  1.0000
  C   C38       1.0  0.85132  0.85896  0.50109  1.0000
  C   C39       1.0  0.64216  0.15049  0.00118  1.0000
  C   C40       1.0  0.14867  0.14103  0.49891  1.0000
  C   C41       1.0  0.40686  0.19067  0.84616  1.0000
  C   C42       1.0  0.34395  0.06034  0.65388  1.0000
  C   C43       1.0  0.59315  0.80933  0.15384  1.0000
  C   C44       1.0  0.65604  0.93966  0.34612  1.0000
  C   C45       1.0  0.25792  0.29870  0.79893  1.0000
  C   C46       1.0  0.49942  0.95871  0.70094  1.0000
  C   C47       1.0  0.74208  0.70130  0.20107  1.0000
  C   C48       1.0  0.50057  0.04129  0.29906  1.0000
  C   C49       1.0  0.52953  0.30554  0.84753  1.0000
  C   C50       1.0  0.45738  0.18180  0.65261  1.0000
  C   C51       1.0  0.47047  0.69446  0.15247  1.0000
  C   C52       1.0  0.54261  0.81820  0.34739  1.0000
  C   C53       1.0  0.37464  0.41690  0.79717  1.0000
  C   C54       1.0  0.61929  0.07734  0.70278  1.0000
  C   C55       1.0  0.62537  0.58310  0.20283  1.0000
  C   C56       1.0  0.38070  0.92267  0.29722  1.0000
  C   C57       1.0  0.33612  0.03820  0.07702  1.0000
  C   C58       1.0  0.96201  0.75907  0.42294  1.0000
  C   C59       1.0  0.66389  0.96181  0.92298  1.0000
  C   C60       1.0  0.03800  0.24093  0.57706  1.0000
  N   N1        1.0  0.27303  0.18742  0.82339  1.0000
  N   N2        1.0  0.36363  0.94927  0.67655  1.0000
  N   N3        1.0  0.72697  0.81258  0.17661  1.0000
  N   N4        1.0  0.63637  0.05073  0.32345  1.0000
  N   N5        1.0  0.22839  0.97740  0.94509  1.0000
  N   N6        1.0  0.03260  0.78283  0.55485  1.0000
  N   N7        1.0  0.77161  0.02260  0.05491  1.0000
  N   N8        1.0  0.96739  0.21717  0.44515  1.0000
  N   N9        1.0  0.88216  0.79052  0.82950  1.0000
  N   N10       1.0  0.96044  0.55280  0.67077  1.0000
  N   N11       1.0  0.11784  0.20948  0.17050  1.0000
  N   N12       1.0  0.03955  0.44720  0.32923  1.0000
  N   N13       1.0  0.95744  0.19948  0.89179  1.0000
  N   N14       1.0  0.30785  0.56536  0.60817  1.0000
  N   N15       1.0  0.04256  0.80051  0.10821  1.0000
  N   N16       1.0  0.69215  0.43463  0.39183  1.0000
  N   N17       1.0  0.38723  0.93291  0.06901  1.0000
  N   N18       1.0  0.86474  0.81825  0.43092  1.0000
  N   N19       1.0  0.61278  0.06709  0.93099  1.0000
  N   N20       1.0  0.13526  0.18175  0.56908  1.0000
  O   O1        1.0  0.20277  0.82729  0.80287  1.0000
  O   O2        1.0  0.02508  0.90021  0.69710  1.0000
  O   O3        1.0  0.79723  0.17271  0.19714  1.0000
  O   O4        1.0  0.97492  0.09979  0.30290  1.0000
  O   O5        1.0  0.93929  0.14190  0.82081  1.0000
  O   O6        1.0  0.32117  0.61852  0.67912  1.0000
  O   O7        1.0  0.06071  0.85810  0.17919  1.0000
  O   O8        1.0  0.67883  0.38148  0.32088  1.0000
  O   O9        1.0  0.02641  0.15662  0.93973  1.0000
  O   O10       1.0  0.21694  0.58599  0.56011  1.0000
  O   O11       1.0  0.97359  0.84337  0.06026  1.0000
  O   O12       1.0  0.78306  0.41401  0.43989  1.0000
  O   O13       1.0  0.30002  0.68119  0.84923  1.0000
  O   O14       1.0  0.83231  0.95060  0.65065  1.0000
  O   O15       1.0  0.69998  0.31880  0.15077  1.0000
  O   O16       1.0  0.16769  0.04940  0.34935  1.0000
  O   O17       1.0  0.90806  0.29290  0.91169  1.0000
  O   O18       1.0  0.38159  0.49619  0.58846  1.0000
  O   O19       1.0  0.09195  0.70710  0.08831  1.0000
  O   O20       1.0  0.61840  0.50380  0.41154  1.0000
