data_image0
_chemical_formula_structural       H20PbC18N2O4
_chemical_formula_sum              "H20 Pb1 C18 N2 O4"
_cell_length_a       5.26948
_cell_length_b       5.27445
_cell_length_c       16.5586
_cell_angle_alpha    102.418
_cell_angle_beta     101.461
_cell_angle_gamma    73.5536

_space_group_name_H-M_alt    "P 1"
_space_group_IT_number       1

loop_
  _space_group_symop_operation_xyz
  'x, y, z'

loop_
  _atom_site_type_symbol
  _atom_site_label
  _atom_site_symmetry_multiplicity
  _atom_site_fract_x
  _atom_site_fract_y
  _atom_site_fract_z
  _atom_site_occupancy
  H   H1        1.0  0.13126  0.59171  0.11885  1.0000
  H   H2        1.0  0.47093  0.01030  0.88095  1.0000
  H   H3        1.0  0.13616  0.90220  0.16309  1.0000
  H   H4        1.0  0.73678  0.96993  0.83667  1.0000
  H   H5        1.0  0.66240  0.68656  0.10032  1.0000
  H   H6        1.0  0.58427  0.56085  0.89973  1.0000
  H   H7        1.0  0.56324  0.83812  0.24476  1.0000
  H   H8        1.0  0.59059  0.31461  0.75536  1.0000
  H   H9        1.0  0.85656  0.57509  0.23336  1.0000
  H   H10       1.0  0.33850  0.61880  0.76654  1.0000
  H   H11       1.0  0.28010  0.62326  0.30658  1.0000
  H   H12       1.0  0.31262  0.96826  0.69408  1.0000
  H   H13       1.0  0.55243  0.89062  0.41270  1.0000
  H   H14       1.0  0.47102  0.13442  0.58784  1.0000
  H   H15       1.0  0.35574  0.37195  0.46406  1.0000
  H   H16       1.0  0.90046  0.88677  0.53621  1.0000
  H   H17       1.0  0.88338  0.58092  0.41134  1.0000
  H   H18       1.0  0.16311  0.46719  0.58805  1.0000
  H   H19       1.0  0.61239  0.31337  0.30533  1.0000
  H   H20       1.0  0.00420  0.30210  0.69414  1.0000
  Pb  Pb1       1.0  0.02121  0.02085  0.99992  1.0000
  C   C1        1.0  0.57678  0.11166  0.12502  1.0000
  C   C2        1.0  0.98485  0.44996  0.87495  1.0000
  C   C3        1.0  0.75922  0.83646  0.14253  1.0000
  C   C4        1.0  0.69169  0.61433  0.85743  1.0000
  C   C5        1.0  0.76974  0.78980  0.23206  1.0000
  C   C6        1.0  0.55476  0.53370  0.76795  1.0000
  C   C7        1.0  0.92910  0.95111  0.29811  1.0000
  C   C8        1.0  0.64916  0.62617  0.70192  1.0000
  C   C9        1.0  0.19431  0.83429  0.32947  1.0000
  C   C10       1.0  0.50028  0.85983  0.67087  1.0000
  C   C11       1.0  0.34622  0.98354  0.38939  1.0000
  C   C12       1.0  0.58816  0.95184  0.61101  1.0000
  C   C13       1.0  0.23555  0.25306  0.41871  1.0000
  C   C14       1.0  0.82779  0.81176  0.58143  1.0000
  C   C15       1.0  0.97071  0.37078  0.38854  1.0000
  C   C16       1.0  0.97645  0.57716  0.61124  1.0000
  C   C17       1.0  0.81889  0.22155  0.32891  1.0000
  C   C18       1.0  0.88820  0.48495  0.67085  1.0000
  N   N1        1.0  0.02620  0.78929  0.11919  1.0000
  N   N2        1.0  0.66831  0.90477  0.88064  1.0000
  O   O1        1.0  0.64319  0.23022  0.07537  1.0000
  O   O2        1.0  0.15389  0.56669  0.92452  1.0000
  O   O3        1.0  0.36051  0.19846  0.15546  1.0000
  O   O4        1.0  0.04098  0.20304  0.84457  1.0000
