data_image0
_chemical_formula_structural       Mo2H22C20N2O8
_chemical_formula_sum              "Mo2 H22 C20 N2 O8"
_cell_length_a       7.55561
_cell_length_b       8.42365
_cell_length_c       9.71425
_cell_angle_alpha    99.4175
_cell_angle_beta     112.849
_cell_angle_gamma    102.798

_space_group_name_H-M_alt    "P 1"
_space_group_IT_number       1

loop_
  _space_group_symop_operation_xyz
  'x, y, z'

loop_
  _atom_site_type_symbol
  _atom_site_label
  _atom_site_symmetry_multiplicity
  _atom_site_fract_x
  _atom_site_fract_y
  _atom_site_fract_z
  _atom_site_occupancy
  Mo  Mo1       1.0  0.05501  0.56962  0.43449  1.0000
  Mo  Mo2       1.0  0.94496  0.43034  0.56555  1.0000
  H   H1        1.0  0.05515  0.95514  0.34415  1.0000
  H   H2        1.0  0.94484  0.04484  0.65585  1.0000
  H   H3        1.0  0.23012  0.08339  0.29177  1.0000
  H   H4        1.0  0.76987  0.91661  0.70824  1.0000
  H   H5        1.0  0.96947  0.01066  0.16529  1.0000
  H   H6        1.0  0.03053  0.98934  0.83472  1.0000
  H   H7        1.0  0.60265  0.55313  0.94031  1.0000
  H   H8        1.0  0.39737  0.44686  0.05971  1.0000
  H   H9        1.0  0.65316  0.76220  0.91880  1.0000
  H   H10       1.0  0.34684  0.23778  0.08119  1.0000
  H   H11       1.0  0.69411  0.60375  0.80154  1.0000
  H   H12       1.0  0.30586  0.39623  0.19846  1.0000
  H   H13       1.0  0.98411  0.61714  0.07799  1.0000
  H   H14       1.0  0.01591  0.38288  0.92200  1.0000
  H   H15       1.0  0.69393  0.97277  0.36654  1.0000
  H   H16       1.0  0.30608  0.02723  0.63344  1.0000
  H   H17       1.0  0.13759  0.77327  0.93758  1.0000
  H   H18       1.0  0.86242  0.22675  0.06241  1.0000
  H   H19       1.0  0.51660  0.78882  0.48294  1.0000
  H   H20       1.0  0.48342  0.21119  0.51705  1.0000
  H   H21       1.0  0.68319  0.08789  0.15945  1.0000
  H   H22       1.0  0.31682  0.91212  0.84055  1.0000
  C   C1        1.0  0.07954  0.05568  0.28888  1.0000
  C   C2        1.0  0.92045  0.94432  0.71113  1.0000
  C   C3        1.0  0.05490  0.21272  0.36651  1.0000
  C   C4        1.0  0.94510  0.78728  0.63349  1.0000
  C   C5        1.0  0.38427  0.58456  0.73343  1.0000
  C   C6        1.0  0.61573  0.41544  0.26657  1.0000
  C   C7        1.0  0.59616  0.62667  0.85639  1.0000
  C   C8        1.0  0.40383  0.37331  0.14361  1.0000
  C   C9        1.0  0.14281  0.69501  0.13694  1.0000
  C   C10       1.0  0.85720  0.30501  0.86306  1.0000
  C   C11       1.0  0.53688  0.89334  0.29764  1.0000
  C   C12       1.0  0.46312  0.10667  0.70235  1.0000
  C   C13       1.0  0.43216  0.89149  0.14145  1.0000
  C   C14       1.0  0.56786  0.10852  0.85854  1.0000
  C   C15       1.0  0.22954  0.78580  0.05965  1.0000
  C   C16       1.0  0.77047  0.21421  0.94034  1.0000
  C   C17       1.0  0.43922  0.79299  0.36330  1.0000
  C   C18       1.0  0.56079  0.20701  0.63669  1.0000
  C   C19       1.0  0.53575  0.99942  0.07536  1.0000
  C   C20       1.0  0.46427  0.00059  0.92462  1.0000
  N   N1        1.0  0.24426  0.69617  0.28599  1.0000
  N   N2        1.0  0.75573  0.30383  0.71401  1.0000
  O   O1        1.0  0.09818  0.34937  0.32732  1.0000
  O   O2        1.0  0.90181  0.65064  0.67269  1.0000
  O   O3        1.0  0.98498  0.20752  0.46822  1.0000
  O   O4        1.0  0.01502  0.79247  0.53178  1.0000
  O   O5        1.0  0.23518  0.49310  0.74858  1.0000
  O   O6        1.0  0.76482  0.50691  0.25142  1.0000
  O   O7        1.0  0.35392  0.64096  0.61348  1.0000
  O   O8        1.0  0.64606  0.35904  0.38651  1.0000
