data_image0
_chemical_formula_structural       Cu4H16C32O16
_chemical_formula_sum              "Cu4 H16 C32 O16"
_cell_length_a       5.18321
_cell_length_b       11.7031
_cell_length_c       13.1343
_cell_angle_alpha    111.14
_cell_angle_beta     89.9998
_cell_angle_gamma    89.9999

_space_group_name_H-M_alt    "P 1"
_space_group_IT_number       1

loop_
  _space_group_symop_operation_xyz
  'x, y, z'

loop_
  _atom_site_type_symbol
  _atom_site_label
  _atom_site_symmetry_multiplicity
  _atom_site_fract_x
  _atom_site_fract_y
  _atom_site_fract_z
  _atom_site_occupancy
  Cu  Cu1       1.0  0.20758  0.55934  0.53701  1.0000
  Cu  Cu2       1.0  0.70757  0.94066  0.46299  1.0000
  Cu  Cu3       1.0  0.79243  0.44066  0.46299  1.0000
  Cu  Cu4       1.0  0.29242  0.05934  0.53701  1.0000
  H   H1        1.0  0.19345  0.93571  0.99211  1.0000
  H   H2        1.0  0.69342  0.56430  0.00790  1.0000
  H   H3        1.0  0.80658  0.06429  0.00790  1.0000
  H   H4        1.0  0.30655  0.43571  0.99210  1.0000
  H   H5        1.0  0.20880  0.00500  0.83296  1.0000
  H   H6        1.0  0.70877  0.49501  0.16705  1.0000
  H   H7        1.0  0.79124  0.99501  0.16705  1.0000
  H   H8        1.0  0.29122  0.50500  0.83295  1.0000
  H   H9        1.0  0.71450  0.64080  0.82341  1.0000
  H   H10       1.0  0.21451  0.85920  0.17659  1.0000
  H   H11       1.0  0.28549  0.35919  0.17659  1.0000
  H   H12       1.0  0.78549  0.14080  0.82341  1.0000
  H   H13       1.0  0.44739  0.75262  0.98666  1.0000
  H   H14       1.0  0.94739  0.74739  0.01334  1.0000
  H   H15       1.0  0.55262  0.24738  0.01334  1.0000
  H   H16       1.0  0.05261  0.25262  0.98666  1.0000
  C   C1        1.0  0.61378  0.76120  0.73842  1.0000
  C   C2        1.0  0.11376  0.73881  0.26158  1.0000
  C   C3        1.0  0.38623  0.23881  0.26158  1.0000
  C   C4        1.0  0.88622  0.26120  0.73842  1.0000
  C   C5        1.0  0.47132  0.86402  0.74117  1.0000
  C   C6        1.0  0.97133  0.63598  0.25883  1.0000
  C   C7        1.0  0.52867  0.13597  0.25883  1.0000
  C   C8        1.0  0.02869  0.36402  0.74117  1.0000
  C   C9        1.0  0.31015  0.88621  0.92077  1.0000
  C   C10       1.0  0.81015  0.61379  0.07923  1.0000
  C   C11       1.0  0.68985  0.11378  0.07923  1.0000
  C   C12       1.0  0.18985  0.38622  0.92077  1.0000
  C   C13       1.0  0.31917  0.92580  0.83291  1.0000
  C   C14       1.0  0.81917  0.57420  0.16709  1.0000
  C   C15       1.0  0.68083  0.07420  0.16709  1.0000
  C   C16       1.0  0.18083  0.42580  0.83290  1.0000
  C   C17       1.0  0.60457  0.72174  0.82714  1.0000
  C   C18       1.0  0.10456  0.77826  0.17287  1.0000
  C   C19       1.0  0.39544  0.27826  0.17287  1.0000
  C   C20       1.0  0.89543  0.22174  0.82714  1.0000
  C   C21       1.0  0.45350  0.78398  0.91797  1.0000
  C   C22       1.0  0.95349  0.71602  0.08203  1.0000
  C   C23       1.0  0.54651  0.21602  0.08203  1.0000
  C   C24       1.0  0.04650  0.28398  0.91797  1.0000
  C   C25       1.0  0.76401  0.68104  0.64125  1.0000
  C   C26       1.0  0.26401  0.81896  0.35875  1.0000
  C   C27       1.0  0.23599  0.31896  0.35874  1.0000
  C   C28       1.0  0.73597  0.18104  0.64126  1.0000
  C   C29       1.0  0.47592  0.90933  0.64839  1.0000
  C   C30       1.0  0.97591  0.59067  0.35160  1.0000
  C   C31       1.0  0.52408  0.09067  0.35160  1.0000
  C   C32       1.0  0.02408  0.40933  0.64839  1.0000
  O   O1        1.0  0.29666  0.98364  0.64821  1.0000
  O   O2        1.0  0.79665  0.51637  0.35179  1.0000
  O   O3        1.0  0.70336  0.01637  0.35179  1.0000
  O   O4        1.0  0.20335  0.48364  0.64820  1.0000
  O   O5        1.0  0.65996  0.87262  0.57952  1.0000
  O   O6        1.0  0.15996  0.62737  0.42047  1.0000
  O   O7        1.0  0.34004  0.12737  0.42047  1.0000
  O   O8        1.0  0.84004  0.37262  0.57952  1.0000
  O   O9        1.0  0.63418  0.59601  0.57028  1.0000
  O   O10       1.0  0.13419  0.90400  0.42973  1.0000
  O   O11       1.0  0.36581  0.40399  0.42972  1.0000
  O   O12       1.0  0.86581  0.09601  0.57028  1.0000
  O   O13       1.0  0.00619  0.69347  0.64295  1.0000
  O   O14       1.0  0.50618  0.80652  0.35704  1.0000
  O   O15       1.0  0.99382  0.30652  0.35704  1.0000
  O   O16       1.0  0.49381  0.19348  0.64295  1.0000
