data_image0
_chemical_formula_structural       Hg2H24C28S4N8
_chemical_formula_sum              "Hg2 H24 C28 S4 N8"
_cell_length_a       5.71404
_cell_length_b       9.45263
_cell_length_c       14.8507
_cell_angle_alpha    94.2541
_cell_angle_beta     89.9976
_cell_angle_gamma    89.9997

_space_group_name_H-M_alt    "P 1"
_space_group_IT_number       1

loop_
  _space_group_symop_operation_xyz
  'x, y, z'

loop_
  _atom_site_type_symbol
  _atom_site_label
  _atom_site_symmetry_multiplicity
  _atom_site_fract_x
  _atom_site_fract_y
  _atom_site_fract_z
  _atom_site_occupancy
  Hg  Hg1       1.0  0.31257  0.50000  0.75001  1.0000
  Hg  Hg2       1.0  0.68743  0.49999  0.25000  1.0000
  H   H1        1.0  0.38521  0.83301  0.77618  1.0000
  H   H2        1.0  0.38519  0.16699  0.72382  1.0000
  H   H3        1.0  0.61476  0.16699  0.22382  1.0000
  H   H4        1.0  0.61479  0.83301  0.27618  1.0000
  H   H5        1.0  0.64209  0.02521  0.84895  1.0000
  H   H6        1.0  0.64207  0.97481  0.65104  1.0000
  H   H7        1.0  0.35789  0.97479  0.15105  1.0000
  H   H8        1.0  0.35791  0.02520  0.34895  1.0000
  H   H9        1.0  0.07345  0.69705  0.94907  1.0000
  H   H10       1.0  0.07347  0.30295  0.55093  1.0000
  H   H11       1.0  0.92655  0.30296  0.05092  1.0000
  H   H12       1.0  0.92657  0.69704  0.44909  1.0000
  H   H13       1.0  0.79103  0.51920  0.87854  1.0000
  H   H14       1.0  0.79107  0.48080  0.62146  1.0000
  H   H15       1.0  0.20897  0.48080  0.12145  1.0000
  H   H16       1.0  0.20899  0.51920  0.37855  1.0000
  H   H17       1.0  0.01578  0.08778  0.91736  1.0000
  H   H18       1.0  0.01575  0.91222  0.58264  1.0000
  H   H19       1.0  0.98420  0.91223  0.08263  1.0000
  H   H20       1.0  0.98427  0.08778  0.41737  1.0000
  H   H21       1.0  0.21921  0.95485  0.94579  1.0000
  H   H22       1.0  0.21921  0.04514  0.55421  1.0000
  H   H23       1.0  0.78077  0.04516  0.05420  1.0000
  H   H24       1.0  0.78080  0.95485  0.44579  1.0000
  C   C1        1.0  0.53961  0.80808  0.81539  1.0000
  C   C2        1.0  0.53958  0.19193  0.68460  1.0000
  C   C3        1.0  0.46037  0.19192  0.18461  1.0000
  C   C4        1.0  0.46040  0.80808  0.31539  1.0000
  C   C5        1.0  0.68348  0.91368  0.85478  1.0000
  C   C6        1.0  0.68346  0.08634  0.64522  1.0000
  C   C7        1.0  0.31651  0.08632  0.14522  1.0000
  C   C8        1.0  0.31652  0.91367  0.35477  1.0000
  C   C9        1.0  0.88149  0.87611  0.90323  1.0000
  C   C10       1.0  0.88149  0.12390  0.59677  1.0000
  C   C11       1.0  0.11850  0.12390  0.09677  1.0000
  C   C12       1.0  0.11852  0.87610  0.40323  1.0000
  C   C13       1.0  0.92334  0.73140  0.91076  1.0000
  C   C14       1.0  0.92336  0.26861  0.58925  1.0000
  C   C15       1.0  0.07665  0.26861  0.08924  1.0000
  C   C16       1.0  0.07667  0.73139  0.41077  1.0000
  C   C17       1.0  0.76794  0.63216  0.87104  1.0000
  C   C18       1.0  0.76796  0.36785  0.62897  1.0000
  C   C19       1.0  0.23205  0.36784  0.12896  1.0000
  C   C20       1.0  0.23208  0.63216  0.37105  1.0000
  C   C21       1.0  0.03465  0.98756  0.94969  1.0000
  C   C22       1.0  0.03465  0.01244  0.55031  1.0000
  C   C23       1.0  0.96532  0.01245  0.05030  1.0000
  C   C24       1.0  0.96536  0.98756  0.44970  1.0000
  C   C25       1.0  0.41939  0.69838  0.59333  1.0000
  C   C26       1.0  0.41939  0.30160  0.90667  1.0000
  C   C27       1.0  0.58061  0.30162  0.40667  1.0000
  C   C28       1.0  0.58064  0.69836  0.09330  1.0000
  S   S1        1.0  0.16261  0.66236  0.63916  1.0000
  S   S2        1.0  0.16261  0.33764  0.86086  1.0000
  S   S3        1.0  0.83739  0.33764  0.36085  1.0000
  S   S4        1.0  0.83740  0.66234  0.13914  1.0000
  N   N1        1.0  0.58078  0.66947  0.82316  1.0000
  N   N2        1.0  0.58078  0.33054  0.67685  1.0000
  N   N3        1.0  0.41920  0.33053  0.17685  1.0000
  N   N4        1.0  0.41923  0.66947  0.32316  1.0000
  N   N5        1.0  0.59691  0.72871  0.55918  1.0000
  N   N6        1.0  0.59690  0.27127  0.94083  1.0000
  N   N7        1.0  0.40310  0.27128  0.44083  1.0000
  N   N8        1.0  0.40312  0.72871  0.05916  1.0000
