data_image0
_chemical_formula_structural       Hg4H40C56S8N16
_chemical_formula_sum              "Hg4 H40 C56 S8 N16"
_cell_length_a       8.00643
_cell_length_b       12.9577
_cell_length_c       14.7538
_cell_angle_alpha    90.0006
_cell_angle_beta     89.9993
_cell_angle_gamma    90.0002

_space_group_name_H-M_alt    "P 1"
_space_group_IT_number       1

loop_
  _space_group_symop_operation_xyz
  'x, y, z'

loop_
  _atom_site_type_symbol
  _atom_site_label
  _atom_site_symmetry_multiplicity
  _atom_site_fract_x
  _atom_site_fract_y
  _atom_site_fract_z
  _atom_site_occupancy
  Hg  Hg1       1.0  0.25001  0.06037  0.25000  1.0000
  Hg  Hg2       1.0  0.25001  0.43962  0.75000  1.0000
  Hg  Hg3       1.0  0.74999  0.93962  0.75001  1.0000
  Hg  Hg4       1.0  0.74999  0.56038  0.25000  1.0000
  H   H1        1.0  0.89170  0.15949  0.31617  1.0000
  H   H2        1.0  0.60830  0.34051  0.81618  1.0000
  H   H3        1.0  0.89171  0.34050  0.68383  1.0000
  H   H4        1.0  0.60831  0.15949  0.18383  1.0000
  H   H5        1.0  0.10828  0.84051  0.68383  1.0000
  H   H6        1.0  0.39171  0.65949  0.18383  1.0000
  H   H7        1.0  0.10830  0.65949  0.31617  1.0000
  H   H8        1.0  0.39170  0.84050  0.81618  1.0000
  H   H9        1.0  0.77541  0.31217  0.39893  1.0000
  H   H10       1.0  0.72459  0.18783  0.89893  1.0000
  H   H11       1.0  0.77541  0.18782  0.60107  1.0000
  H   H12       1.0  0.72459  0.31218  0.10107  1.0000
  H   H13       1.0  0.22458  0.68783  0.60107  1.0000
  H   H14       1.0  0.27541  0.81217  0.10107  1.0000
  H   H15       1.0  0.22460  0.81218  0.39892  1.0000
  H   H16       1.0  0.27540  0.68782  0.89894  1.0000
  H   H17       1.0  0.28580  0.40065  0.45870  1.0000
  H   H18       1.0  0.21419  0.09935  0.95870  1.0000
  H   H19       1.0  0.28581  0.09935  0.54129  1.0000
  H   H20       1.0  0.21419  0.40064  0.04130  1.0000
  H   H21       1.0  0.71418  0.59935  0.54130  1.0000
  H   H22       1.0  0.78581  0.90065  0.04130  1.0000
  H   H23       1.0  0.71420  0.90065  0.45870  1.0000
  H   H24       1.0  0.78580  0.59934  0.95870  1.0000
  H   H25       1.0  0.37860  0.24862  0.37330  1.0000
  H   H26       1.0  0.12140  0.25138  0.87329  1.0000
  H   H27       1.0  0.37861  0.25138  0.62670  1.0000
  H   H28       1.0  0.12140  0.24861  0.12671  1.0000
  H   H29       1.0  0.62139  0.75138  0.62670  1.0000
  H   H30       1.0  0.87860  0.74862  0.12670  1.0000
  H   H31       1.0  0.62140  0.74862  0.37329  1.0000
  H   H32       1.0  0.87860  0.75137  0.87329  1.0000
  H   H33       1.0  0.81743  0.46476  0.48463  1.0000
  H   H34       1.0  0.68256  0.03524  0.98463  1.0000
  H   H35       1.0  0.81744  0.03525  0.51536  1.0000
  H   H36       1.0  0.68257  0.46475  0.01537  1.0000
  H   H37       1.0  0.18256  0.53524  0.51537  1.0000
  H   H38       1.0  0.31743  0.96475  0.01537  1.0000
  H   H39       1.0  0.18257  0.96476  0.48462  1.0000
  H   H40       1.0  0.31743  0.53524  0.98464  1.0000
  C   C1        1.0  0.97383  0.21683  0.34699  1.0000
  C   C2        1.0  0.52617  0.28316  0.84699  1.0000
  C   C3        1.0  0.97384  0.28316  0.65301  1.0000
  C   C4        1.0  0.52617  0.21684  0.15301  1.0000
  C   C5        1.0  0.02615  0.78317  0.65301  1.0000
  C   C6        1.0  0.47384  0.71684  0.15301  1.0000
  C   C7        1.0  0.02617  0.71684  0.34698  1.0000
  C   C8        1.0  0.47383  0.78316  0.84699  1.0000
  C   C9        1.0  0.91008  0.30203  0.39245  1.0000
  C   C10       1.0  0.58992  0.19797  0.89246  1.0000
  C   C11       1.0  0.91009  0.19797  0.60755  1.0000
  C   C12       1.0  0.58992  0.30203  0.10755  1.0000
  C   C13       1.0  0.08991  0.69797  0.60754  1.0000
  C   C14       1.0  0.41008  0.80203  0.10755  1.0000
  C   C15       1.0  0.08992  0.80203  0.39245  1.0000
  C   C16       1.0  0.41008  0.69796  0.89246  1.0000
  C   C17       1.0  0.02049  0.37313  0.43307  1.0000
  C   C18       1.0  0.47950  0.12687  0.93307  1.0000
  C   C19       1.0  0.02050  0.12687  0.56692  1.0000
  C   C20       1.0  0.47950  0.37313  0.06693  1.0000
  C   C21       1.0  0.97950  0.62687  0.56693  1.0000
  C   C22       1.0  0.52050  0.87313  0.06693  1.0000
  C   C23       1.0  0.97951  0.87313  0.43307  1.0000
  C   C24       1.0  0.52049  0.62687  0.93307  1.0000
  C   C25       1.0  0.19235  0.35214  0.42619  1.0000
  C   C26       1.0  0.30765  0.14786  0.92619  1.0000
  C   C27       1.0  0.19235  0.14786  0.57380  1.0000
  C   C28       1.0  0.30765  0.35214  0.07381  1.0000
  C   C29       1.0  0.80764  0.64786  0.57380  1.0000
  C   C30       1.0  0.69235  0.85214  0.07381  1.0000
  C   C31       1.0  0.80766  0.85214  0.42619  1.0000
  C   C32       1.0  0.69235  0.64785  0.92619  1.0000
  C   C33       1.0  0.24592  0.26602  0.37879  1.0000
  C   C34       1.0  0.25408  0.23398  0.87879  1.0000
  C   C35       1.0  0.24592  0.23398  0.62121  1.0000
  C   C36       1.0  0.25408  0.26602  0.12121  1.0000
  C   C37       1.0  0.75407  0.73398  0.62121  1.0000
  C   C38       1.0  0.74592  0.76602  0.12121  1.0000
  C   C39       1.0  0.75409  0.76602  0.37879  1.0000
  C   C40       1.0  0.74592  0.73398  0.87879  1.0000
  C   C41       1.0  0.95354  0.46240  0.48060  1.0000
  C   C42       1.0  0.54645  0.03760  0.98060  1.0000
  C   C43       1.0  0.95355  0.03760  0.51939  1.0000
  C   C44       1.0  0.54645  0.46240  0.01940  1.0000
  C   C45       1.0  0.04644  0.53760  0.51940  1.0000
  C   C46       1.0  0.45355  0.96240  0.01940  1.0000
  C   C47       1.0  0.04646  0.96241  0.48060  1.0000
  C   C48       1.0  0.45354  0.53759  0.98061  1.0000
  C   C49       1.0  0.55167  0.05995  0.38466  1.0000
  C   C50       1.0  0.94835  0.44006  0.88467  1.0000
  C   C51       1.0  0.55167  0.44006  0.61534  1.0000
  C   C52       1.0  0.94833  0.05996  0.11533  1.0000
  C   C53       1.0  0.44833  0.94006  0.61535  1.0000
  C   C54       1.0  0.05166  0.55996  0.11534  1.0000
  C   C55       1.0  0.44832  0.55996  0.38466  1.0000
  C   C56       1.0  0.05167  0.94002  0.88467  1.0000
  S   S1        1.0  0.51244  0.97790  0.30061  1.0000
  S   S2        1.0  0.98758  0.52211  0.80060  1.0000
  S   S3        1.0  0.51244  0.52211  0.69940  1.0000
  S   S4        1.0  0.98757  0.97790  0.19939  1.0000
  S   S5        1.0  0.48758  0.02211  0.69940  1.0000
  S   S6        1.0  0.01243  0.47790  0.19939  1.0000
  S   S7        1.0  0.48756  0.47790  0.30061  1.0000
  S   S8        1.0  0.01244  0.02208  0.80062  1.0000
  N   N1        1.0  0.13903  0.19923  0.33963  1.0000
  N   N2        1.0  0.36097  0.30077  0.83963  1.0000
  N   N3        1.0  0.13904  0.30077  0.66037  1.0000
  N   N4        1.0  0.36097  0.19923  0.16038  1.0000
  N   N5        1.0  0.86095  0.80077  0.66037  1.0000
  N   N6        1.0  0.63904  0.69924  0.16037  1.0000
  N   N7        1.0  0.86097  0.69923  0.33963  1.0000
  N   N8        1.0  0.63903  0.80076  0.83963  1.0000
  N   N9        1.0  0.58375  0.11657  0.44484  1.0000
  N   N10       1.0  0.91627  0.38344  0.94484  1.0000
  N   N11       1.0  0.58374  0.38344  0.55516  1.0000
  N   N12       1.0  0.91625  0.11658  0.05517  1.0000
  N   N13       1.0  0.41625  0.88344  0.55518  1.0000
  N   N14       1.0  0.08374  0.61658  0.05517  1.0000
  N   N15       1.0  0.41624  0.61659  0.44483  1.0000
  N   N16       1.0  0.08375  0.88340  0.94484  1.0000
