data_image0
_chemical_formula_structural       Cd4H20C38O20F12
_chemical_formula_sum              "Cd4 H20 C38 O20 F12"
_cell_length_a       7.85454
_cell_length_b       10.4239
_cell_length_c       12.8182
_cell_angle_alpha    90.9747
_cell_angle_beta     107.851
_cell_angle_gamma    90.0142

_space_group_name_H-M_alt    "P 1"
_space_group_IT_number       1

loop_
  _space_group_symop_operation_xyz
  'x, y, z'

loop_
  _atom_site_type_symbol
  _atom_site_label
  _atom_site_symmetry_multiplicity
  _atom_site_fract_x
  _atom_site_fract_y
  _atom_site_fract_z
  _atom_site_occupancy
  Cd  Cd1       1.0  0.32961  0.65210  0.46562  1.0000
  Cd  Cd2       1.0  0.86431  0.84819  0.53451  1.0000
  Cd  Cd3       1.0  0.67039  0.34790  0.53438  1.0000
  Cd  Cd4       1.0  0.13569  0.15181  0.46549  1.0000
  H   H1        1.0  0.11018  0.16437  0.80612  1.0000
  H   H2        1.0  0.30380  0.33566  0.19369  1.0000
  H   H3        1.0  0.88982  0.83563  0.19388  1.0000
  H   H4        1.0  0.69620  0.66434  0.80631  1.0000
  H   H5        1.0  0.39069  0.12615  0.95106  1.0000
  H   H6        1.0  0.43995  0.37404  0.04903  1.0000
  H   H7        1.0  0.60931  0.87385  0.04894  1.0000
  H   H8        1.0  0.56005  0.62596  0.95097  1.0000
  H   H9        1.0  0.65500  0.40681  0.81059  1.0000
  H   H10       1.0  0.84398  0.09293  0.18955  1.0000
  H   H11       1.0  0.34500  0.59319  0.18941  1.0000
  H   H12       1.0  0.15602  0.90707  0.81045  1.0000
  H   H13       1.0  0.24325  0.89320  0.33624  1.0000
  H   H14       1.0  0.90720  0.60676  0.66371  1.0000
  H   H15       1.0  0.75675  0.10680  0.66376  1.0000
  H   H16       1.0  0.09280  0.39324  0.33629  1.0000
  H   H17       1.0  0.44765  0.87866  0.37566  1.0000
  H   H18       1.0  0.07232  0.62146  0.62448  1.0000
  H   H19       1.0  0.55235  0.12134  0.62435  1.0000
  H   H20       1.0  0.92768  0.37854  0.37552  1.0000
  C   C1        1.0  0.37616  0.37788  0.73030  1.0000
  C   C2        1.0  0.64530  0.12198  0.26967  1.0000
  C   C3        1.0  0.62384  0.62212  0.26970  1.0000
  C   C4        1.0  0.35470  0.87803  0.73033  1.0000
  C   C5        1.0  0.21915  0.31294  0.72966  1.0000
  C   C6        1.0  0.48889  0.18693  0.27015  1.0000
  C   C7        1.0  0.78084  0.68706  0.27034  1.0000
  C   C8        1.0  0.51111  0.81307  0.72985  1.0000
  C   C9        1.0  0.22931  0.21898  0.80803  1.0000
  C   C10       1.0  0.42092  0.28095  0.19180  1.0000
  C   C11       1.0  0.77068  0.78102  0.19197  1.0000
  C   C12       1.0  0.57908  0.71904  0.80820  1.0000
  C   C13       1.0  0.38842  0.19755  0.89012  1.0000
  C   C14       1.0  0.49830  0.30247  0.10988  1.0000
  C   C15       1.0  0.61158  0.80245  0.10988  1.0000
  C   C16       1.0  0.50169  0.69752  0.89012  1.0000
  C   C17       1.0  0.54270  0.26991  0.89793  1.0000
  C   C18       1.0  0.64466  0.23001  0.10213  1.0000
  C   C19       1.0  0.45730  0.73009  0.10208  1.0000
  C   C20       1.0  0.35534  0.76999  0.89787  1.0000
  C   C21       1.0  0.53683  0.35506  0.81410  1.0000
  C   C22       1.0  0.72233  0.14475  0.18593  1.0000
  C   C23       1.0  0.46317  0.64494  0.18590  1.0000
  C   C24       1.0  0.27767  0.85525  0.81407  1.0000
  C   C25       1.0  0.38019  0.46993  0.64284  1.0000
  C   C26       1.0  0.73657  0.02999  0.35722  1.0000
  C   C27       1.0  0.61982  0.53007  0.35716  1.0000
  C   C28       1.0  0.26343  0.97001  0.64278  1.0000
  C   C29       1.0  0.03636  0.33389  0.65061  1.0000
  C   C30       1.0  0.38516  0.16606  0.34921  1.0000
  C   C31       1.0  0.96364  0.66611  0.34939  1.0000
  C   C32       1.0  0.61484  0.83394  0.65079  1.0000
  C   C33       1.0  0.70707  0.24995  0.00006  1.0000
  C   C34       1.0  0.29293  0.75005  0.99994  1.0000
  C   C35       1.0  0.81080  0.13230  0.97519  1.0000
  C   C36       1.0  0.83569  0.36761  0.02498  1.0000
  C   C37       1.0  0.18919  0.86770  0.02481  1.0000
  C   C38       1.0  0.16430  0.63239  0.97502  1.0000
  O   O1        1.0  0.52566  0.48568  0.62029  1.0000
  O   O2        1.0  0.90461  0.01409  0.37978  1.0000
  O   O3        1.0  0.47435  0.51433  0.37971  1.0000
  O   O4        1.0  0.09539  0.98590  0.62022  1.0000
  O   O5        1.0  0.23828  0.53116  0.59225  1.0000
  O   O6        1.0  0.64533  0.96898  0.40798  1.0000
  O   O7        1.0  0.76172  0.46884  0.40775  1.0000
  O   O8        1.0  0.35467  0.03102  0.59202  1.0000
  O   O9        1.0  0.93089  0.40888  0.67848  1.0000
  O   O10       1.0  0.25165  0.09114  0.32131  1.0000
  O   O11       1.0  0.06911  0.59113  0.32152  1.0000
  O   O12       1.0  0.74835  0.90886  0.67869  1.0000
  O   O13       1.0  0.98394  0.26473  0.56260  1.0000
  O   O14       1.0  0.42104  0.23509  0.43728  1.0000
  O   O15       1.0  0.01607  0.73527  0.43740  1.0000
  O   O16       1.0  0.57897  0.76491  0.56272  1.0000
  O   O17       1.0  0.33555  0.82738  0.35524  1.0000
  O   O18       1.0  0.98053  0.67266  0.64480  1.0000
  O   O19       1.0  0.66445  0.17262  0.64476  1.0000
  O   O20       1.0  0.01947  0.32735  0.35520  1.0000
  F   F1        1.0  0.71097  0.02317  0.96627  1.0000
  F   F2        1.0  0.74473  0.47671  0.03388  1.0000
  F   F3        1.0  0.28903  0.97683  0.03374  1.0000
  F   F4        1.0  0.25526  0.52329  0.96612  1.0000
  F   F5        1.0  0.96957  0.11336  0.05438  1.0000
  F   F6        1.0  0.91533  0.38667  0.94583  1.0000
  F   F7        1.0  0.03044  0.88664  0.94562  1.0000
  F   F8        1.0  0.08466  0.61333  0.05417  1.0000
  F   F9        1.0  0.84753  0.14418  0.87915  1.0000
  F   F10       1.0  0.96849  0.35577  0.12102  1.0000
  F   F11       1.0  0.15247  0.85582  0.12084  1.0000
  F   F12       1.0  0.03151  0.64422  0.87898  1.0000
