data_image0
_chemical_formula_structural       Zn4H12C38O16F12
_chemical_formula_sum              "Zn4 H12 C38 O16 F12"
_cell_length_a       7.70003
_cell_length_b       10.6204
_cell_length_c       12.5527
_cell_angle_alpha    95.1046
_cell_angle_beta     107.847
_cell_angle_gamma    89.9952

_space_group_name_H-M_alt    "P 1"
_space_group_IT_number       1

loop_
  _space_group_symop_operation_xyz
  'x, y, z'

loop_
  _atom_site_type_symbol
  _atom_site_label
  _atom_site_symmetry_multiplicity
  _atom_site_fract_x
  _atom_site_fract_y
  _atom_site_fract_z
  _atom_site_occupancy
  Zn  Zn1       1.0  0.29928  0.61051  0.46963  1.0000
  Zn  Zn2       1.0  0.82968  0.88960  0.53038  1.0000
  Zn  Zn3       1.0  0.70072  0.38949  0.53037  1.0000
  Zn  Zn4       1.0  0.17032  0.11040  0.46962  1.0000
  H   H1        1.0  0.89932  0.83482  0.21717  1.0000
  H   H2        1.0  0.68203  0.66496  0.78285  1.0000
  H   H3        1.0  0.10068  0.16518  0.78283  1.0000
  H   H4        1.0  0.31797  0.33504  0.21715  1.0000
  H   H5        1.0  0.62848  0.86290  0.05682  1.0000
  H   H6        1.0  0.57157  0.63713  0.94330  1.0000
  H   H7        1.0  0.37152  0.13710  0.94318  1.0000
  H   H8        1.0  0.42843  0.36287  0.05670  1.0000
  H   H9        1.0  0.32242  0.60461  0.18344  1.0000
  H   H10       1.0  0.13911  0.89554  0.81668  1.0000
  H   H11       1.0  0.67758  0.39539  0.81657  1.0000
  H   H12       1.0  0.86090  0.10447  0.18332  1.0000
  C   C1        1.0  0.60070  0.63976  0.27961  1.0000
  C   C2        1.0  0.32124  0.86028  0.72048  1.0000
  C   C3        1.0  0.39930  0.36024  0.72039  1.0000
  C   C4        1.0  0.67877  0.13972  0.27953  1.0000
  C   C5        1.0  0.76576  0.70336  0.28975  1.0000
  C   C6        1.0  0.47608  0.79657  0.71029  1.0000
  C   C7        1.0  0.23424  0.29664  0.71025  1.0000
  C   C8        1.0  0.52392  0.20343  0.28971  1.0000
  C   C9        1.0  0.77258  0.78383  0.20882  1.0000
  C   C10       1.0  0.56373  0.71609  0.79124  1.0000
  C   C11       1.0  0.22742  0.21617  0.79118  1.0000
  C   C12       1.0  0.43627  0.28391  0.20876  1.0000
  C   C13       1.0  0.61883  0.79952  0.11830  1.0000
  C   C14       1.0  0.50051  0.70052  0.88182  1.0000
  C   C15       1.0  0.38116  0.20048  0.88170  1.0000
  C   C16       1.0  0.49949  0.29948  0.11818  1.0000
  C   C17       1.0  0.45533  0.73247  0.10436  1.0000
  C   C18       1.0  0.35105  0.76770  0.89581  1.0000
  C   C19       1.0  0.54467  0.26753  0.89564  1.0000
  C   C20       1.0  0.64895  0.23230  0.10419  1.0000
  C   C21       1.0  0.44703  0.65557  0.18739  1.0000
  C   C22       1.0  0.25978  0.84458  0.81274  1.0000
  C   C23       1.0  0.55297  0.34443  0.81261  1.0000
  C   C24       1.0  0.74022  0.15542  0.18726  1.0000
  C   C25       1.0  0.58398  0.55073  0.36184  1.0000
  C   C26       1.0  0.22227  0.94920  0.63815  1.0000
  C   C27       1.0  0.41602  0.44927  0.63816  1.0000
  C   C28       1.0  0.77773  0.05080  0.36185  1.0000
  C   C29       1.0  0.93835  0.69162  0.38403  1.0000
  C   C30       1.0  0.55445  0.80827  0.61600  1.0000
  C   C31       1.0  0.06165  0.30838  0.61597  1.0000
  C   C32       1.0  0.44555  0.19173  0.38400  1.0000
  C   C33       1.0  0.29115  0.75010  0.00010  1.0000
  C   C34       1.0  0.70885  0.24990  0.99990  1.0000
  C   C35       1.0  0.18929  0.86692  0.03227  1.0000
  C   C36       1.0  0.15720  0.63326  0.96792  1.0000
  C   C37       1.0  0.81071  0.13308  0.96773  1.0000
  C   C38       1.0  0.84280  0.36674  0.03208  1.0000
  O   O1        1.0  0.42614  0.52244  0.36720  1.0000
  O   O2        1.0  0.05907  0.97751  0.63279  1.0000
  O   O3        1.0  0.57386  0.47756  0.63280  1.0000
  O   O4        1.0  0.94093  0.02249  0.36721  1.0000
  O   O5        1.0  0.73083  0.50306  0.42083  1.0000
  O   O6        1.0  0.31007  0.99672  0.57902  1.0000
  O   O7        1.0  0.26917  0.49694  0.57917  1.0000
  O   O8        1.0  0.68993  0.00328  0.42098  1.0000
  O   O9        1.0  0.06442  0.63248  0.35709  1.0000
  O   O10       1.0  0.70738  0.86747  0.64297  1.0000
  O   O11       1.0  0.93558  0.36752  0.64291  1.0000
  O   O12       1.0  0.29262  0.13254  0.35703  1.0000
  O   O13       1.0  0.95896  0.74535  0.48219  1.0000
  O   O14       1.0  0.47701  0.75459  0.51782  1.0000
  O   O15       1.0  0.04104  0.25465  0.51781  1.0000
  O   O16       1.0  0.52299  0.24541  0.48218  1.0000
  F   F1        1.0  0.28790  0.97522  0.03742  1.0000
  F   F2        1.0  0.25081  0.52499  0.96276  1.0000
  F   F3        1.0  0.71210  0.02478  0.96258  1.0000
  F   F4        1.0  0.74919  0.47500  0.03724  1.0000
  F   F5        1.0  0.02069  0.87778  0.95695  1.0000
  F   F6        1.0  0.06384  0.62228  0.04321  1.0000
  F   F7        1.0  0.97931  0.12222  0.04305  1.0000
  F   F8        1.0  0.93616  0.37772  0.95679  1.0000
  F   F9        1.0  0.16483  0.86287  0.13454  1.0000
  F   F10       1.0  0.03061  0.63731  0.86565  1.0000
  F   F11       1.0  0.83517  0.13713  0.86546  1.0000
  F   F12       1.0  0.96939  0.36269  0.13435  1.0000
