data_image0
_chemical_formula_structural       Hg4H48C52I8N16
_chemical_formula_sum              "Hg4 H48 C52 I8 N16"
_cell_length_a       9.69239
_cell_length_b       13.5877
_cell_length_c       15.2461
_cell_angle_alpha    100.856
_cell_angle_beta     90.038
_cell_angle_gamma    110.898

_space_group_name_H-M_alt    "P 1"
_space_group_IT_number       1

loop_
  _space_group_symop_operation_xyz
  'x, y, z'

loop_
  _atom_site_type_symbol
  _atom_site_label
  _atom_site_symmetry_multiplicity
  _atom_site_fract_x
  _atom_site_fract_y
  _atom_site_fract_z
  _atom_site_occupancy
  Hg  Hg1       1.0  0.44419  0.66584  0.77294  1.0000
  Hg  Hg2       1.0  0.77823  0.33368  0.72689  1.0000
  Hg  Hg3       1.0  0.55581  0.33416  0.22706  1.0000
  Hg  Hg4       1.0  0.22178  0.66632  0.27310  1.0000
  H   H1        1.0  0.70426  0.91146  0.85763  1.0000
  H   H2        1.0  0.79248  0.08779  0.64241  1.0000
  H   H3        1.0  0.29573  0.08854  0.14238  1.0000
  H   H4        1.0  0.20752  0.91220  0.35759  1.0000
  H   H5        1.0  0.81282  0.63639  0.77251  1.0000
  H   H6        1.0  0.17596  0.36321  0.72732  1.0000
  H   H7        1.0  0.18717  0.36362  0.22749  1.0000
  H   H8        1.0  0.82405  0.63678  0.27268  1.0000
  H   H9        1.0  0.07322  0.81256  0.81901  1.0000
  H   H10       1.0  0.26058  0.18724  0.68071  1.0000
  H   H11       1.0  0.92677  0.18745  0.18100  1.0000
  H   H12       1.0  0.73943  0.81276  0.31929  1.0000
  H   H13       1.0  0.85369  0.07238  0.84817  1.0000
  H   H14       1.0  0.78097  0.92712  0.65126  1.0000
  H   H15       1.0  0.14630  0.92763  0.15185  1.0000
  H   H16       1.0  0.21904  0.07287  0.34874  1.0000
  H   H17       1.0  0.01207  0.25843  0.91472  1.0000
  H   H18       1.0  0.75331  0.74112  0.58471  1.0000
  H   H19       1.0  0.98793  0.74158  0.08529  1.0000
  H   H20       1.0  0.24669  0.25888  0.41529  1.0000
  H   H21       1.0  0.35939  0.14939  0.97968  1.0000
  H   H22       1.0  0.21003  0.85028  0.52066  1.0000
  H   H23       1.0  0.64060  0.85062  0.02032  1.0000
  H   H24       1.0  0.78997  0.14972  0.47934  1.0000
  H   H25       1.0  0.19766  0.96131  0.91740  1.0000
  H   H26       1.0  0.23656  0.03827  0.58313  1.0000
  H   H27       1.0  0.80233  0.03870  0.08261  1.0000
  H   H28       1.0  0.76344  0.96172  0.41687  1.0000
  H   H29       1.0  0.38571  0.33281  0.03568  1.0000
  H   H30       1.0  0.05311  0.66690  0.46457  1.0000
  H   H31       1.0  0.61431  0.66718  0.96431  1.0000
  H   H32       1.0  0.94687  0.33309  0.53542  1.0000
  H   H33       1.0  0.23378  0.37592  0.03018  1.0000
  H   H34       1.0  0.85804  0.62371  0.46958  1.0000
  H   H35       1.0  0.76625  0.62409  0.96982  1.0000
  H   H36       1.0  0.14196  0.37628  0.53042  1.0000
  H   H37       1.0  0.28449  0.52298  0.94911  1.0000
  H   H38       1.0  0.76137  0.47662  0.55054  1.0000
  H   H39       1.0  0.71555  0.47704  0.05090  1.0000
  H   H40       1.0  0.23863  0.52337  0.44945  1.0000
  H   H41       1.0  0.53614  0.43933  0.74175  1.0000
  H   H42       1.0  0.09571  0.56065  0.75887  1.0000
  H   H43       1.0  0.46386  0.56066  0.25824  1.0000
  H   H44       1.0  0.90431  0.43935  0.24113  1.0000
  H   H45       1.0  0.47118  0.28853  0.85171  1.0000
  H   H46       1.0  0.18185  0.71165  0.64907  1.0000
  H   H47       1.0  0.52882  0.71146  0.14828  1.0000
  H   H48       1.0  0.81814  0.28836  0.35093  1.0000
  C   C1        1.0  0.76792  0.86048  0.83845  1.0000
  C   C2        1.0  0.90716  0.13889  0.66149  1.0000
  C   C3        1.0  0.23207  0.13952  0.16157  1.0000
  C   C4        1.0  0.09283  0.86110  0.33850  1.0000
  C   C5        1.0  0.82869  0.72028  0.79670  1.0000
  C   C6        1.0  0.10808  0.27928  0.70314  1.0000
  C   C7        1.0  0.17131  0.27973  0.20331  1.0000
  C   C8        1.0  0.89193  0.72072  0.29685  1.0000
  C   C9        1.0  0.95884  0.80697  0.81948  1.0000
  C   C10       1.0  0.15174  0.19268  0.68029  1.0000
  C   C11       1.0  0.04114  0.19304  0.18053  1.0000
  C   C12       1.0  0.84828  0.80732  0.31971  1.0000
  C   C13       1.0  0.01473  0.00424  0.87909  1.0000
  C   C14       1.0  0.01040  0.99533  0.62084  1.0000
  C   C15       1.0  0.98526  0.99577  0.12092  1.0000
  C   C16       1.0  0.98960  0.00467  0.37917  1.0000
  C   C17       1.0  0.96353  0.08834  0.87809  1.0000
  C   C18       1.0  0.87495  0.91122  0.62155  1.0000
  C   C19       1.0  0.03646  0.91166  0.12191  1.0000
  C   C20       1.0  0.12505  0.08878  0.37845  1.0000
  C   C21       1.0  0.05371  0.19366  0.91533  1.0000
  C   C22       1.0  0.85980  0.80596  0.58433  1.0000
  C   C23       1.0  0.94629  0.80636  0.08468  1.0000
  C   C24       1.0  0.14019  0.19404  0.41567  1.0000
  C   C25       1.0  0.19670  0.21677  0.95246  1.0000
  C   C26       1.0  0.97978  0.78285  0.54745  1.0000
  C   C27       1.0  0.80330  0.78323  0.04754  1.0000
  C   C28       1.0  0.02022  0.21714  0.45255  1.0000
  C   C29       1.0  0.24796  0.13243  0.95099  1.0000
  C   C30       1.0  0.11548  0.86722  0.54917  1.0000
  C   C31       1.0  0.75204  0.86758  0.04902  1.0000
  C   C32       1.0  0.88451  0.13277  0.45083  1.0000
  C   C33       1.0  0.15755  0.02631  0.91532  1.0000
  C   C34       1.0  0.13129  0.97327  0.58496  1.0000
  C   C35       1.0  0.84244  0.97369  0.08469  1.0000
  C   C36       1.0  0.86871  0.02672  0.41504  1.0000
  C   C37       1.0  0.29550  0.33111  0.99120  1.0000
  C   C38       1.0  0.96441  0.66858  0.50879  1.0000
  C   C39       1.0  0.70452  0.66889  0.00880  1.0000
  C   C40       1.0  0.03558  0.33142  0.49120  1.0000
  C   C41       1.0  0.34469  0.48119  0.90656  1.0000
  C   C42       1.0  0.86325  0.51848  0.59332  1.0000
  C   C43       1.0  0.65534  0.51882  0.09343  1.0000
  C   C44       1.0  0.13676  0.48152  0.40667  1.0000
  C   C45       1.0  0.47581  0.43499  0.80168  1.0000
  C   C46       1.0  0.04003  0.56493  0.69874  1.0000
  C   C47       1.0  0.52421  0.56501  0.19831  1.0000
  C   C48       1.0  0.95999  0.43507  0.30125  1.0000
  C   C49       1.0  0.44314  0.35936  0.85462  1.0000
  C   C50       1.0  0.08313  0.64064  0.64587  1.0000
  C   C51       1.0  0.55686  0.64063  0.14537  1.0000
  C   C52       1.0  0.91687  0.35936  0.35412  1.0000
  I   I1        1.0  0.35037  0.79431  0.89771  1.0000
  I   I2        1.0  0.55586  0.20469  0.60215  1.0000
  I   I3        1.0  0.64958  0.20568  0.10227  1.0000
  I   I4        1.0  0.44415  0.79530  0.39785  1.0000
  I   I5        1.0  0.45219  0.57758  0.59937  1.0000
  I   I6        1.0  0.87502  0.42166  0.90053  1.0000
  I   I7        1.0  0.54776  0.42236  0.40064  1.0000
  I   I8        1.0  0.12498  0.57833  0.09947  1.0000
  N   N1        1.0  0.71110  0.75498  0.80930  1.0000
  N   N2        1.0  0.95570  0.24440  0.69065  1.0000
  N   N3        1.0  0.28889  0.24502  0.19071  1.0000
  N   N4        1.0  0.04429  0.75560  0.30935  1.0000
  N   N5        1.0  0.91920  0.89623  0.84574  1.0000
  N   N6        1.0  0.02284  0.10330  0.65412  1.0000
  N   N7        1.0  0.08079  0.10378  0.15426  1.0000
  N   N8        1.0  0.97717  0.89669  0.34588  1.0000
  N   N9        1.0  0.41422  0.51033  0.83500  1.0000
  N   N10       1.0  0.90333  0.48940  0.66506  1.0000
  N   N11       1.0  0.58580  0.48968  0.16500  1.0000
  N   N12       1.0  0.09668  0.51060  0.33494  1.0000
  N   N13       1.0  0.36028  0.38980  0.92058  1.0000
  N   N14       1.0  0.97018  0.61000  0.57956  1.0000
  N   N15       1.0  0.63974  0.61021  0.07942  1.0000
  N   N16       1.0  0.02981  0.39000  0.42043  1.0000
