data_image0
_chemical_formula_structural       Hg2H26C28I4Br2N8
_chemical_formula_sum              "Hg2 H26 C28 I4 Br2 N8"
_cell_length_a       8.43619
_cell_length_b       9.12481
_cell_length_c       12.2095
_cell_angle_alpha    101.92
_cell_angle_beta     95.6354
_cell_angle_gamma    91.7781

_space_group_name_H-M_alt    "P 1"
_space_group_IT_number       1

loop_
  _space_group_symop_operation_xyz
  'x, y, z'

loop_
  _atom_site_type_symbol
  _atom_site_label
  _atom_site_symmetry_multiplicity
  _atom_site_fract_x
  _atom_site_fract_y
  _atom_site_fract_z
  _atom_site_occupancy
  Hg  Hg1       1.0  0.07202  0.68381  0.67492  1.0000
  Hg  Hg2       1.0  0.92798  0.31619  0.32508  1.0000
  H   H1        1.0  0.73643  0.56393  0.48974  1.0000
  H   H2        1.0  0.26357  0.43607  0.51026  1.0000
  H   H3        1.0  0.92375  0.01179  0.59168  1.0000
  H   H4        1.0  0.07625  0.98821  0.40832  1.0000
  H   H5        1.0  0.65626  0.00147  0.43649  1.0000
  H   H6        1.0  0.34374  0.99853  0.56351  1.0000
  H   H7        1.0  0.49667  0.58788  0.36826  1.0000
  H   H8        1.0  0.50333  0.41212  0.63174  1.0000
  H   H9        1.0  0.40981  0.76353  0.40025  1.0000
  H   H10       1.0  0.59019  0.23647  0.59975  1.0000
  H   H11       1.0  0.71713  0.57593  0.21765  1.0000
  H   H12       1.0  0.28287  0.42407  0.78235  1.0000
  H   H13       1.0  0.51372  0.73922  0.93006  1.0000
  H   H14       1.0  0.48628  0.26079  0.06994  1.0000
  H   H15       1.0  0.33110  0.87566  0.25120  1.0000
  H   H16       1.0  0.66889  0.12434  0.74880  1.0000
  H   H17       1.0  0.24865  0.84628  0.94567  1.0000
  H   H18       1.0  0.75135  0.15372  0.05433  1.0000
  H   H19       1.0  0.35505  0.01398  0.01481  1.0000
  H   H20       1.0  0.64495  0.98602  0.98519  1.0000
  H   H21       1.0  0.20643  0.19974  0.13335  1.0000
  H   H22       1.0  0.79357  0.80026  0.86665  1.0000
  H   H23       1.0  0.03935  0.74580  0.08645  1.0000
  H   H24       1.0  0.96065  0.25420  0.91355  1.0000
  H   H25       1.0  0.83198  0.93059  0.20735  1.0000
  H   H26       1.0  0.16802  0.06941  0.79264  1.0000
  C   C1        1.0  0.75358  0.68426  0.49780  1.0000
  C   C2        1.0  0.24642  0.31574  0.50220  1.0000
  C   C3        1.0  0.84538  0.91696  0.54785  1.0000
  C   C4        1.0  0.15463  0.08304  0.45215  1.0000
  C   C5        1.0  0.71292  0.91392  0.47195  1.0000
  C   C6        1.0  0.28708  0.08607  0.52805  1.0000
  C   C7        1.0  0.51294  0.70723  0.36606  1.0000
  C   C8        1.0  0.48706  0.29278  0.63394  1.0000
  C   C9        1.0  0.52222  0.72437  0.24648  1.0000
  C   C10       1.0  0.47778  0.27563  0.75352  1.0000
  C   C11       1.0  0.63220  0.64501  0.18137  1.0000
  C   C12       1.0  0.36780  0.35499  0.81863  1.0000
  C   C13       1.0  0.63008  0.65556  0.06911  1.0000
  C   C14       1.0  0.36992  0.34444  0.93089  1.0000
  C   C15       1.0  0.52023  0.74037  0.02007  1.0000
  C   C16       1.0  0.47977  0.25964  0.97993  1.0000
  C   C17       1.0  0.41279  0.82153  0.08601  1.0000
  C   C18       1.0  0.58721  0.17847  0.91399  1.0000
  C   C19       1.0  0.41563  0.81442  0.19933  1.0000
  C   C20       1.0  0.58437  0.18558  0.80067  1.0000
  C   C21       1.0  0.29569  0.91169  0.02921  1.0000
  C   C22       1.0  0.70431  0.08831  0.97079  1.0000
  C   C23       1.0  0.13165  0.10290  0.13830  1.0000
  C   C24       1.0  0.86835  0.89710  0.86170  1.0000
  C   C25       1.0  0.04215  0.86645  0.11472  1.0000
  C   C26       1.0  0.95785  0.13355  0.88528  1.0000
  C   C27       1.0  0.94078  0.95924  0.17419  1.0000
  C   C28       1.0  0.05922  0.04076  0.82581  1.0000
  I   I1        1.0  0.39374  0.74486  0.68033  1.0000
  I   I2        1.0  0.60626  0.25514  0.31967  1.0000
  I   I3        1.0  0.92733  0.41695  0.69186  1.0000
  I   I4        1.0  0.07267  0.58305  0.30815  1.0000
  Br  Br1       1.0  0.77446  0.54838  0.97491  1.0000
  Br  Br2       1.0  0.22554  0.45162  0.02510  1.0000
  N   N1        1.0  0.65643  0.76565  0.44142  1.0000
  N   N2        1.0  0.34358  0.23435  0.55858  1.0000
  N   N3        1.0  0.86933  0.77297  0.56254  1.0000
  N   N4        1.0  0.13067  0.22703  0.43746  1.0000
  N   N5        1.0  0.16223  0.95913  0.09241  1.0000
  N   N6        1.0  0.83777  0.04087  0.90758  1.0000
  N   N7        1.0  0.99769  0.10622  0.18738  1.0000
  N   N8        1.0  0.00231  0.89378  0.81262  1.0000
