data_image0
_chemical_formula_structural       Cu2H40C56S8N4Cl4
_chemical_formula_sum              "Cu2 H40 C56 S8 N4 Cl4"
_cell_length_a       8.79494
_cell_length_b       10.923
_cell_length_c       13.3962
_cell_angle_alpha    90
_cell_angle_beta     98.9042
_cell_angle_gamma    89.9999

_space_group_name_H-M_alt    "P 1"
_space_group_IT_number       1

loop_
  _space_group_symop_operation_xyz
  'x, y, z'

loop_
  _atom_site_type_symbol
  _atom_site_label
  _atom_site_symmetry_multiplicity
  _atom_site_fract_x
  _atom_site_fract_y
  _atom_site_fract_z
  _atom_site_occupancy
  Cu  Cu1       1.0  1.00000  0.00000  0.00000  1.0000
  Cu  Cu2       1.0  0.00000  0.50000  0.50000  1.0000
  H   H1        1.0  0.39110  0.01621  0.20258  1.0000
  H   H2        1.0  0.60889  0.51621  0.29742  1.0000
  H   H3        1.0  0.60889  0.98379  0.79742  1.0000
  H   H4        1.0  0.39111  0.48379  0.70258  1.0000
  H   H5        1.0  0.46853  0.80730  0.26576  1.0000
  H   H6        1.0  0.53146  0.30729  0.23424  1.0000
  H   H7        1.0  0.53147  0.19271  0.73424  1.0000
  H   H8        1.0  0.46854  0.69271  0.76576  1.0000
  H   H9        1.0  0.70251  0.70748  0.21910  1.0000
  H   H10       1.0  0.29748  0.20748  0.28090  1.0000
  H   H11       1.0  0.29749  0.29253  0.78090  1.0000
  H   H12       1.0  0.70252  0.79252  0.71910  1.0000
  H   H13       1.0  0.85812  0.81179  0.10514  1.0000
  H   H14       1.0  0.14188  0.31179  0.39486  1.0000
  H   H15       1.0  0.14188  0.18821  0.89487  1.0000
  H   H16       1.0  0.85813  0.68821  0.60513  1.0000
  H   H17       1.0  0.84810  0.55932  0.92469  1.0000
  H   H18       1.0  0.15190  0.05932  0.57532  1.0000
  H   H19       1.0  0.15190  0.44068  0.07531  1.0000
  H   H20       1.0  0.84810  0.94068  0.42468  1.0000
  H   H21       1.0  0.94072  0.48206  0.77069  1.0000
  H   H22       1.0  0.05929  0.98206  0.72931  1.0000
  H   H23       1.0  0.05928  0.51794  0.22931  1.0000
  H   H24       1.0  0.94072  0.01793  0.27069  1.0000
  H   H25       1.0  0.93295  0.26013  0.73232  1.0000
  H   H26       1.0  0.06705  0.76013  0.76768  1.0000
  H   H27       1.0  0.06705  0.73987  0.26768  1.0000
  H   H28       1.0  0.93295  0.23987  0.23232  1.0000
  H   H29       1.0  0.83427  0.11382  0.84990  1.0000
  H   H30       1.0  0.16572  0.61382  0.65010  1.0000
  H   H31       1.0  0.16572  0.88618  0.15010  1.0000
  H   H32       1.0  0.83428  0.38618  0.34990  1.0000
  H   H33       1.0  0.53316  0.59015  0.08961  1.0000
  H   H34       1.0  0.46684  0.09015  0.41039  1.0000
  H   H35       1.0  0.46684  0.40986  0.91039  1.0000
  H   H36       1.0  0.53316  0.90985  0.58961  1.0000
  H   H37       1.0  0.60993  0.60238  0.97511  1.0000
  H   H38       1.0  0.39007  0.10238  0.52489  1.0000
  H   H39       1.0  0.39007  0.39762  0.02489  1.0000
  H   H40       1.0  0.60993  0.89762  0.47511  1.0000
  C   C1        1.0  0.73307  0.16049  0.02086  1.0000
  C   C2        1.0  0.26693  0.66049  0.47914  1.0000
  C   C3        1.0  0.26693  0.83951  0.97914  1.0000
  C   C4        1.0  0.73308  0.33951  0.52086  1.0000
  C   C5        1.0  0.71878  0.97609  0.09538  1.0000
  C   C6        1.0  0.28122  0.47610  0.40462  1.0000
  C   C7        1.0  0.28122  0.02391  0.90462  1.0000
  C   C8        1.0  0.71879  0.52390  0.59538  1.0000
  C   C9        1.0  0.58647  0.03235  0.12303  1.0000
  C   C10       1.0  0.41352  0.53235  0.37697  1.0000
  C   C11       1.0  0.41352  0.96765  0.87697  1.0000
  C   C12       1.0  0.58648  0.46765  0.62303  1.0000
  C   C13       1.0  0.49476  0.97257  0.18422  1.0000
  C   C14       1.0  0.50523  0.47257  0.31578  1.0000
  C   C15       1.0  0.50524  0.02743  0.81578  1.0000
  C   C16       1.0  0.49477  0.52743  0.68422  1.0000
  C   C17       1.0  0.53825  0.85547  0.21785  1.0000
  C   C18       1.0  0.46174  0.35547  0.28215  1.0000
  C   C19       1.0  0.46174  0.14453  0.78215  1.0000
  C   C20       1.0  0.53827  0.64453  0.71785  1.0000
  C   C21       1.0  0.66916  0.79849  0.19033  1.0000
  C   C22       1.0  0.33084  0.29849  0.30967  1.0000
  C   C23       1.0  0.33084  0.20152  0.80967  1.0000
  C   C24       1.0  0.66917  0.70151  0.69033  1.0000
  C   C25       1.0  0.75912  0.85709  0.12836  1.0000
  C   C26       1.0  0.24087  0.35709  0.37164  1.0000
  C   C27       1.0  0.24087  0.14291  0.87164  1.0000
  C   C28       1.0  0.75914  0.64291  0.62836  1.0000
  C   C29       1.0  0.78751  0.25314  0.95544  1.0000
  C   C30       1.0  0.21249  0.75314  0.54456  1.0000
  C   C31       1.0  0.21249  0.74687  0.04456  1.0000
  C   C32       1.0  0.78751  0.24686  0.45543  1.0000
  C   C33       1.0  0.78730  0.38056  0.97482  1.0000
  C   C34       1.0  0.21270  0.88056  0.52518  1.0000
  C   C35       1.0  0.21269  0.61944  0.02518  1.0000
  C   C36       1.0  0.78731  0.11944  0.47481  1.0000
  C   C37       1.0  0.84344  0.46152  0.90785  1.0000
  C   C38       1.0  0.15656  0.96152  0.59215  1.0000
  C   C39       1.0  0.15656  0.53848  0.09215  1.0000
  C   C40       1.0  0.84344  0.03848  0.40785  1.0000
  C   C41       1.0  0.89564  0.41840  0.82137  1.0000
  C   C42       1.0  0.10436  0.91840  0.67863  1.0000
  C   C43       1.0  0.10436  0.58160  0.17863  1.0000
  C   C44       1.0  0.89564  0.08159  0.32136  1.0000
  C   C45       1.0  0.89213  0.29313  0.80027  1.0000
  C   C46       1.0  0.10788  0.79313  0.69974  1.0000
  C   C47       1.0  0.10787  0.70687  0.19974  1.0000
  C   C48       1.0  0.89213  0.20687  0.30026  1.0000
  C   C49       1.0  0.83953  0.21162  0.86699  1.0000
  C   C50       1.0  0.16047  0.71162  0.63302  1.0000
  C   C51       1.0  0.16047  0.78838  0.13302  1.0000
  C   C52       1.0  0.83953  0.28838  0.36698  1.0000
  C   C53       1.0  0.56702  0.53743  0.02669  1.0000
  C   C54       1.0  0.43298  0.03743  0.47331  1.0000
  C   C55       1.0  0.43297  0.46257  0.97331  1.0000
  C   C56       1.0  0.56703  0.96256  0.52669  1.0000
  S   S1        1.0  0.56739  0.17883  0.07483  1.0000
  S   S2        1.0  0.43260  0.67883  0.42517  1.0000
  S   S3        1.0  0.43260  0.82117  0.92517  1.0000
  S   S4        1.0  0.56740  0.32117  0.57483  1.0000
  S   S5        1.0  0.72584  0.44162  0.08481  1.0000
  S   S6        1.0  0.27416  0.94161  0.41519  1.0000
  S   S7        1.0  0.27416  0.55839  0.91519  1.0000
  S   S8        1.0  0.72584  0.05838  0.58481  1.0000
  N   N1        1.0  0.79811  0.05133  0.03778  1.0000
  N   N2        1.0  0.20189  0.55133  0.46222  1.0000
  N   N3        1.0  0.20189  0.94867  0.96222  1.0000
  N   N4        1.0  0.79811  0.44867  0.53778  1.0000
  Cl  Cl1       1.0  0.12506  0.14084  0.10887  1.0000
  Cl  Cl2       1.0  0.87493  0.64084  0.39113  1.0000
  Cl  Cl3       1.0  0.87493  0.85916  0.89113  1.0000
  Cl  Cl4       1.0  0.12507  0.35916  0.60887  1.0000
