data_image0
_chemical_formula_structural       Hg6H48C60I12N24
_chemical_formula_sum              "Hg6 H48 C60 I12 N24"
_cell_length_a       13.2444
_cell_length_b       13.2561
_cell_length_c       17.1994
_cell_angle_alpha    99.7323
_cell_angle_beta     111.617
_cell_angle_gamma    107.604

_space_group_name_H-M_alt    "P 1"
_space_group_IT_number       1

loop_
  _space_group_symop_operation_xyz
  'x, y, z'

loop_
  _atom_site_type_symbol
  _atom_site_label
  _atom_site_symmetry_multiplicity
  _atom_site_fract_x
  _atom_site_fract_y
  _atom_site_fract_z
  _atom_site_occupancy
  Hg  Hg1       1.0  0.31622  0.06621  0.25014  1.0000
  Hg  Hg2       1.0  0.68378  0.93380  0.74985  1.0000
  Hg  Hg3       1.0  0.06488  0.81719  0.48532  1.0000
  Hg  Hg4       1.0  0.83124  0.57968  0.01463  1.0000
  Hg  Hg5       1.0  0.93512  0.18280  0.51468  1.0000
  Hg  Hg6       1.0  0.16875  0.42031  0.98536  1.0000
  H   H1        1.0  0.32388  0.49383  0.36096  1.0000
  H   H2        1.0  0.63347  0.96357  0.13915  1.0000
  H   H3        1.0  0.67612  0.50617  0.63904  1.0000
  H   H4        1.0  0.36654  0.03644  0.86086  1.0000
  H   H5        1.0  0.51641  0.84907  0.48418  1.0000
  H   H6        1.0  0.86513  0.03237  0.01541  1.0000
  H   H7        1.0  0.48358  0.15093  0.51582  1.0000
  H   H8        1.0  0.13487  0.96762  0.98458  1.0000
  H   H9        1.0  0.70675  0.63990  0.47342  1.0000
  H   H10       1.0  0.66657  0.23337  0.02631  1.0000
  H   H11       1.0  0.29324  0.36010  0.52658  1.0000
  H   H12       1.0  0.33344  0.76664  0.97370  1.0000
  H   H13       1.0  0.32952  0.33790  0.33766  1.0000
  H   H14       1.0  0.50049  0.99208  0.16226  1.0000
  H   H15       1.0  0.67048  0.66210  0.66233  1.0000
  H   H16       1.0  0.49953  0.00794  0.83776  1.0000
  H   H17       1.0  0.61801  0.25649  0.35164  1.0000
  H   H18       1.0  0.40439  0.26599  0.14804  1.0000
  H   H19       1.0  0.38199  0.74352  0.64837  1.0000
  H   H20       1.0  0.59561  0.73402  0.85195  1.0000
  H   H21       1.0  0.69958  0.48577  0.41643  1.0000
  H   H22       1.0  0.56899  0.28289  0.08318  1.0000
  H   H23       1.0  0.30042  0.51424  0.58358  1.0000
  H   H24       1.0  0.43103  0.71712  0.91682  1.0000
  H   H25       1.0  0.34859  0.81805  0.51475  1.0000
  H   H26       1.0  0.80334  0.83393  0.98506  1.0000
  H   H27       1.0  0.65141  0.18195  0.48525  1.0000
  H   H28       1.0  0.19664  0.16606  0.01493  1.0000
  H   H29       1.0  0.01864  0.62708  0.29282  1.0000
  H   H30       1.0  0.83444  0.72663  0.20725  1.0000
  H   H31       1.0  0.98136  0.37293  0.70718  1.0000
  H   H32       1.0  0.16556  0.27335  0.79273  1.0000
  H   H33       1.0  0.18682  0.55407  0.27346  1.0000
  H   H34       1.0  0.78135  0.91440  0.22661  1.0000
  H   H35       1.0  0.81317  0.44593  0.72654  1.0000
  H   H36       1.0  0.21866  0.08559  0.77339  1.0000
  H   H37       1.0  0.68217  0.94729  0.43859  1.0000
  H   H38       1.0  0.00895  0.24322  0.06068  1.0000
  H   H39       1.0  0.31782  0.05271  0.56142  1.0000
  H   H40       1.0  0.99105  0.75677  0.93931  1.0000
  H   H41       1.0  0.00792  0.00726  0.64946  1.0000
  H   H42       1.0  0.85777  0.35840  0.85022  1.0000
  H   H43       1.0  0.99207  0.99274  0.35055  1.0000
  H   H44       1.0  0.14222  0.64160  0.14977  1.0000
  H   H45       1.0  0.84240  0.80260  0.62542  1.0000
  H   H46       1.0  0.67703  0.21704  0.87437  1.0000
  H   H47       1.0  0.15759  0.19740  0.37459  1.0000
  H   H48       1.0  0.32296  0.78296  0.12563  1.0000
  C   C1        1.0  0.51535  0.55312  0.41512  1.0000
  C   C2        1.0  0.63827  0.10055  0.08480  1.0000
  C   C3        1.0  0.48466  0.44689  0.58488  1.0000
  C   C4        1.0  0.36174  0.89945  0.91521  1.0000
  C   C5        1.0  0.40827  0.56530  0.39528  1.0000
  C   C6        1.0  0.67053  0.01354  0.10474  1.0000
  C   C7        1.0  0.59173  0.43469  0.60473  1.0000
  C   C8        1.0  0.32949  0.98647  0.89527  1.0000
  C   C9        1.0  0.40924  0.67160  0.41985  1.0000
  C   C10       1.0  0.75218  0.98983  0.08004  1.0000
  C   C11       1.0  0.59076  0.32840  0.58015  1.0000
  C   C12       1.0  0.24782  0.01017  0.91996  1.0000
  C   C13       1.0  0.51533  0.76617  0.46392  1.0000
  C   C14       1.0  0.80262  0.05166  0.03585  1.0000
  C   C15       1.0  0.48466  0.23383  0.53608  1.0000
  C   C16       1.0  0.19739  0.94834  0.96415  1.0000
  C   C17       1.0  0.62076  0.75189  0.48250  1.0000
  C   C18       1.0  0.76963  0.13839  0.01725  1.0000
  C   C19       1.0  0.37923  0.24811  0.51750  1.0000
  C   C20       1.0  0.23038  0.86161  0.98275  1.0000
  C   C21       1.0  0.62253  0.64649  0.45996  1.0000
  C   C22       1.0  0.68675  0.16275  0.03986  1.0000
  C   C23       1.0  0.37747  0.35352  0.54004  1.0000
  C   C24       1.0  0.31327  0.83726  0.96015  1.0000
  C   C25       1.0  0.41881  0.34608  0.35174  1.0000
  C   C26       1.0  0.49443  0.06718  0.14816  1.0000
  C   C27       1.0  0.58119  0.65393  0.64826  1.0000
  C   C28       1.0  0.50558  0.93283  0.85184  1.0000
  C   C29       1.0  0.57022  0.30782  0.36014  1.0000
  C   C30       1.0  0.44737  0.20983  0.13956  1.0000
  C   C31       1.0  0.42979  0.69218  0.63986  1.0000
  C   C32       1.0  0.55264  0.79018  0.86044  1.0000
  C   C33       1.0  0.61224  0.42154  0.39346  1.0000
  C   C34       1.0  0.52784  0.21860  0.10624  1.0000
  C   C35       1.0  0.38776  0.57846  0.60655  1.0000
  C   C36       1.0  0.47217  0.78141  0.89376  1.0000
  C   C37       1.0  0.28047  0.75749  0.45182  1.0000
  C   C38       1.0  0.80581  0.82895  0.04805  1.0000
  C   C39       1.0  0.71953  0.24252  0.54818  1.0000
  C   C40       1.0  0.19417  0.17105  0.95194  1.0000
  C   C41       1.0  0.11222  0.65578  0.33645  1.0000
  C   C42       1.0  0.81960  0.77650  0.16357  1.0000
  C   C43       1.0  0.88778  0.34423  0.66354  1.0000
  C   C44       1.0  0.18039  0.22348  0.83642  1.0000
  C   C45       1.0  0.19321  0.61741  0.32618  1.0000
  C   C46       1.0  0.79177  0.86789  0.17383  1.0000
  C   C47       1.0  0.80678  0.38259  0.67382  1.0000
  C   C48       1.0  0.20823  0.13210  0.82616  1.0000
  C   C49       1.0  0.74913  0.93846  0.49367  1.0000
  C   C50       1.0  0.94496  0.25519  0.00571  1.0000
  C   C51       1.0  0.25086  0.06154  0.50634  1.0000
  C   C52       1.0  0.05504  0.74481  0.99429  1.0000
  C   C53       1.0  0.91571  0.96427  0.60167  1.0000
  C   C54       1.0  0.86264  0.31397  0.89798  1.0000
  C   C55       1.0  0.08428  0.03573  0.39834  1.0000
  C   C56       1.0  0.13736  0.68602  0.10202  1.0000
  C   C57       1.0  0.83501  0.86265  0.59043  1.0000
  C   C58       1.0  0.77218  0.24459  0.90926  1.0000
  C   C59       1.0  0.16499  0.13735  0.40958  1.0000
  C   C60       1.0  0.22782  0.75541  0.09074  1.0000
  I   I1        1.0  0.42292  0.95474  0.34567  1.0000
  I   I2        1.0  0.10912  0.07765  0.15492  1.0000
  I   I3        1.0  0.57704  0.04524  0.65431  1.0000
  I   I4        1.0  0.89087  0.92235  0.84508  1.0000
  I   I5        1.0  0.83573  0.69323  0.37062  1.0000
  I   I6        1.0  0.82229  0.46512  0.12918  1.0000
  I   I7        1.0  0.16427  0.30677  0.62938  1.0000
  I   I8        1.0  0.17779  0.53487  0.87082  1.0000
  I   I9        1.0  0.21095  0.86663  0.65975  1.0000
  I   I10       1.0  0.70655  0.55098  0.84009  1.0000
  I   I11       1.0  0.78905  0.13336  0.34025  1.0000
  I   I12       1.0  0.29339  0.44895  0.15989  1.0000
  N   N1        1.0  0.51513  0.44588  0.38819  1.0000
  N   N2        1.0  0.55772  0.12701  0.11164  1.0000
  N   N3        1.0  0.48487  0.55412  0.61181  1.0000
  N   N4        1.0  0.44230  0.87300  0.88837  1.0000
  N   N5        1.0  0.44990  0.26224  0.33507  1.0000
  N   N6        1.0  0.42703  0.11475  0.16475  1.0000
  N   N7        1.0  0.55010  0.73776  0.66493  1.0000
  N   N8        1.0  0.57297  0.88526  0.83525  1.0000
  N   N9        1.0  0.30042  0.68280  0.40009  1.0000
  N   N10       1.0  0.78319  0.90091  0.09984  1.0000
  N   N11       1.0  0.69958  0.31720  0.59991  1.0000
  N   N12       1.0  0.21680  0.09909  0.90016  1.0000
  N   N13       1.0  0.16759  0.74192  0.41495  1.0000
  N   N14       1.0  0.82696  0.75303  0.08497  1.0000
  N   N15       1.0  0.83241  0.25809  0.58505  1.0000
  N   N16       1.0  0.17302  0.24696  0.91501  1.0000
  N   N17       1.0  0.72908  0.84744  0.52213  1.0000
  N   N18       1.0  0.82540  0.20689  0.97746  1.0000
  N   N19       1.0  0.27091  0.15257  0.47787  1.0000
  N   N20       1.0  0.17460  0.79310  0.02254  1.0000
  N   N21       1.0  0.86102  0.00961  0.54062  1.0000
  N   N22       1.0  0.96914  0.32018  0.95884  1.0000
  N   N23       1.0  0.13898  0.99039  0.45938  1.0000
  N   N24       1.0  0.03086  0.67981  0.04115  1.0000
