data_image0
_chemical_formula_structural       CdH32C40N18O8
_chemical_formula_sum              "Cd1 H32 C40 N18 O8"
_cell_length_a       7.74074
_cell_length_b       8.57475
_cell_length_c       17.3398
_cell_angle_alpha    78.9401
_cell_angle_beta     83.5834
_cell_angle_gamma    65.9902

_space_group_name_H-M_alt    "P 1"
_space_group_IT_number       1

loop_
  _space_group_symop_operation_xyz
  'x, y, z'

loop_
  _atom_site_type_symbol
  _atom_site_label
  _atom_site_symmetry_multiplicity
  _atom_site_fract_x
  _atom_site_fract_y
  _atom_site_fract_z
  _atom_site_occupancy
  Cd  Cd1       1.0  1.00000  1.00000  0.00000  1.0000
  H   H1        1.0  0.20013  0.09921  0.27517  1.0000
  H   H2        1.0  0.79987  0.90078  0.72483  1.0000
  H   H3        1.0  0.96426  0.37300  0.20697  1.0000
  H   H4        1.0  0.03574  0.62699  0.79303  1.0000
  H   H5        1.0  0.75992  0.54926  0.42881  1.0000
  H   H6        1.0  0.24008  0.45073  0.57119  1.0000
  H   H7        1.0  0.99451  0.27446  0.49815  1.0000
  H   H8        1.0  0.00549  0.72553  0.50185  1.0000
  H   H9        1.0  0.62747  0.61999  0.23068  1.0000
  H   H10       1.0  0.37253  0.38001  0.76932  1.0000
  H   H11       1.0  0.60703  0.72491  0.31255  1.0000
  H   H12       1.0  0.39297  0.27509  0.68744  1.0000
  H   H13       1.0  0.73436  0.75674  0.10467  1.0000
  H   H14       1.0  0.26563  0.24326  0.89533  1.0000
  H   H15       1.0  0.06356  0.95783  0.19922  1.0000
  H   H16       1.0  0.93644  0.04217  0.80078  1.0000
  H   H17       1.0  0.29694  0.98521  0.65177  1.0000
  H   H18       1.0  0.70305  0.01479  0.34823  1.0000
  H   H19       1.0  0.39482  0.85922  0.78770  1.0000
  H   H20       1.0  0.60519  0.14079  0.21230  1.0000
  H   H21       1.0  0.73852  0.36860  0.71434  1.0000
  H   H22       1.0  0.26148  0.63141  0.28566  1.0000
  H   H23       1.0  0.63940  0.49351  0.57779  1.0000
  H   H24       1.0  0.36060  0.50649  0.42222  1.0000
  H   H25       1.0  0.69326  0.38685  0.85380  1.0000
  H   H26       1.0  0.30675  0.61315  0.14620  1.0000
  H   H27       1.0  0.71542  0.58080  0.86555  1.0000
  H   H28       1.0  0.28458  0.41920  0.13445  1.0000
  H   H29       1.0  0.46606  0.77447  0.95165  1.0000
  H   H30       1.0  0.53393  0.22554  0.04835  1.0000
  H   H31       1.0  0.04449  0.58539  0.94733  1.0000
  H   H32       1.0  0.95551  0.41461  0.05266  1.0000
  C   C1        1.0  0.24613  0.00673  0.43001  1.0000
  C   C2        1.0  0.75387  0.99327  0.56999  1.0000
  C   C3        1.0  0.11074  0.16863  0.39107  1.0000
  C   C4        1.0  0.88926  0.83136  0.60893  1.0000
  C   C5        1.0  0.10219  0.19718  0.30866  1.0000
  C   C6        1.0  0.89782  0.80282  0.69133  1.0000
  C   C7        1.0  0.97177  0.35133  0.27078  1.0000
  C   C8        1.0  0.02823  0.64866  0.72922  1.0000
  C   C9        1.0  0.84855  0.47924  0.31360  1.0000
  C   C10       1.0  0.15144  0.52075  0.68640  1.0000
  C   C11       1.0  0.85831  0.45084  0.39549  1.0000
  C   C12       1.0  0.14169  0.54915  0.60450  1.0000
  C   C13       1.0  0.98815  0.29660  0.43425  1.0000
  C   C14       1.0  0.01185  0.70340  0.56575  1.0000
  C   C15       1.0  0.70734  0.64600  0.27139  1.0000
  C   C16       1.0  0.29266  0.35400  0.72861  1.0000
  C   C17       1.0  0.80727  0.79185  0.14398  1.0000
  C   C18       1.0  0.19272  0.20815  0.85602  1.0000
  C   C19       1.0  0.97195  0.89300  0.19389  1.0000
  C   C20       1.0  0.02805  0.10699  0.80611  1.0000
  C   C21       1.0  0.40398  0.81938  0.52550  1.0000
  C   C22       1.0  0.59602  0.18062  0.47450  1.0000
  C   C23       1.0  0.46386  0.74793  0.60537  1.0000
  C   C24       1.0  0.53614  0.25207  0.39463  1.0000
  C   C25       1.0  0.39404  0.85024  0.66508  1.0000
  C   C26       1.0  0.60596  0.14976  0.33492  1.0000
  C   C27       1.0  0.44813  0.77856  0.74186  1.0000
  C   C28       1.0  0.55186  0.22144  0.25814  1.0000
  C   C29       1.0  0.57109  0.60484  0.76083  1.0000
  C   C30       1.0  0.42891  0.39516  0.23917  1.0000
  C   C31       1.0  0.64206  0.50380  0.70093  1.0000
  C   C32       1.0  0.35794  0.49620  0.29907  1.0000
  C   C33       1.0  0.58939  0.57416  0.62367  1.0000
  C   C34       1.0  0.41061  0.42584  0.37633  1.0000
  C   C35       1.0  0.62313  0.52841  0.84553  1.0000
  C   C36       1.0  0.37687  0.47159  0.15447  1.0000
  C   C37       1.0  0.38534  0.70383  0.94036  1.0000
  C   C38       1.0  0.61466  0.29617  0.05964  1.0000
  C   C39       1.0  0.17718  0.60214  0.93752  1.0000
  C   C40       1.0  0.82283  0.39786  0.06248  1.0000
  N   N1        1.0  0.35805  0.86838  0.40023  1.0000
  N   N2        1.0  0.64195  0.13162  0.59977  1.0000
  N   N3        1.0  0.45997  0.74806  0.46177  1.0000
  N   N4        1.0  0.54004  0.25194  0.53823  1.0000
  N   N5        1.0  0.32193  0.50850  0.89477  1.0000
  N   N6        1.0  0.67807  0.49150  0.10523  1.0000
  N   N7        1.0  0.45358  0.57492  0.89743  1.0000
  N   N8        1.0  0.54642  0.42508  0.10257  1.0000
  N   N9        1.0  0.20913  0.72485  0.96671  1.0000
  N   N10       1.0  0.79087  0.27515  0.03329  1.0000
  N   N11       1.0  0.80242  0.74905  0.22265  1.0000
  N   N12       1.0  0.19758  0.25094  0.77735  1.0000
  N   N13       1.0  0.90664  0.81240  0.25564  1.0000
  N   N14       1.0  0.09336  0.18760  0.74436  1.0000
  N   N15       1.0  0.91466  0.88360  0.12369  1.0000
  N   N16       1.0  0.08533  0.11640  0.87632  1.0000
  N   N17       1.0  0.69375  0.92935  0.91350  1.0000
  N   N18       1.0  0.30625  0.07065  0.08650  1.0000
  O   O1        1.0  0.26805  0.98466  0.50952  1.0000
  O   O2        1.0  0.73195  0.01535  0.49048  1.0000
  O   O3        1.0  0.72957  0.05464  0.92813  1.0000
  O   O4        1.0  0.27043  0.94536  0.07187  1.0000
  O   O5        1.0  0.74299  0.78824  0.96137  1.0000
  O   O6        1.0  0.25701  0.21176  0.03863  1.0000
  O   O7        1.0  0.60985  0.95008  0.85212  1.0000
  O   O8        1.0  0.39015  0.04992  0.14788  1.0000
