data_image0
_chemical_formula_structural       CuH32C40N18O8
_chemical_formula_sum              "Cu1 H32 C40 N18 O8"
_cell_length_a       7.94722
_cell_length_b       8.40057
_cell_length_c       17.1925
_cell_angle_alpha    77.4597
_cell_angle_beta     80.3288
_cell_angle_gamma    65.5118

_space_group_name_H-M_alt    "P 1"
_space_group_IT_number       1

loop_
  _space_group_symop_operation_xyz
  'x, y, z'

loop_
  _atom_site_type_symbol
  _atom_site_label
  _atom_site_symmetry_multiplicity
  _atom_site_fract_x
  _atom_site_fract_y
  _atom_site_fract_z
  _atom_site_occupancy
  Cu  Cu1       1.0  1.00000  1.00000  1.00000  1.0000
  H   H1        1.0  0.23550  0.09157  0.27043  1.0000
  H   H2        1.0  0.76450  0.90843  0.72957  1.0000
  H   H3        1.0  0.00616  0.36420  0.19936  1.0000
  H   H4        1.0  0.99384  0.63580  0.80064  1.0000
  H   H5        1.0  0.76126  0.54652  0.42346  1.0000
  H   H6        1.0  0.23874  0.45348  0.57654  1.0000
  H   H7        1.0  0.99175  0.27328  0.49572  1.0000
  H   H8        1.0  0.00824  0.72672  0.50428  1.0000
  H   H9        1.0  0.66080  0.60992  0.22262  1.0000
  H   H10       1.0  0.33919  0.39009  0.77738  1.0000
  H   H11       1.0  0.62792  0.72249  0.30402  1.0000
  H   H12       1.0  0.37208  0.27752  0.69598  1.0000
  H   H13       1.0  0.76219  0.76156  0.09306  1.0000
  H   H14       1.0  0.23781  0.23844  0.90694  1.0000
  H   H15       1.0  0.09148  0.95342  0.18394  1.0000
  H   H16       1.0  0.90852  0.04658  0.81606  1.0000
  H   H17       1.0  0.29207  0.99032  0.65403  1.0000
  H   H18       1.0  0.70792  0.00968  0.34597  1.0000
  H   H19       1.0  0.37294  0.86114  0.79200  1.0000
  H   H20       1.0  0.62706  0.13886  0.20800  1.0000
  H   H21       1.0  0.71096  0.35468  0.71881  1.0000
  H   H22       1.0  0.28905  0.64531  0.28119  1.0000
  H   H23       1.0  0.63448  0.48549  0.57947  1.0000
  H   H24       1.0  0.36552  0.51451  0.42053  1.0000
  H   H25       1.0  0.63348  0.37136  0.86103  1.0000
  H   H26       1.0  0.36653  0.62864  0.13897  1.0000
  H   H27       1.0  0.68118  0.55625  0.87173  1.0000
  H   H28       1.0  0.31882  0.44376  0.12827  1.0000
  H   H29       1.0  0.98946  0.63990  0.95436  1.0000
  H   H30       1.0  0.01053  0.36011  0.04563  1.0000
  H   H31       1.0  0.43882  0.78728  0.94917  1.0000
  H   H32       1.0  0.56118  0.21272  0.05083  1.0000
  C   C1        1.0  0.26025  0.00279  0.42836  1.0000
  C   C2        1.0  0.73975  0.99721  0.57164  1.0000
  C   C3        1.0  0.12661  0.16399  0.38780  1.0000
  C   C4        1.0  0.87339  0.83600  0.61221  1.0000
  C   C5        1.0  0.13040  0.19028  0.30394  1.0000
  C   C6        1.0  0.86959  0.80971  0.69606  1.0000
  C   C7        1.0  0.00226  0.34397  0.26439  1.0000
  C   C8        1.0  0.99774  0.65603  0.73561  1.0000
  C   C9        1.0  0.86924  0.47315  0.30705  1.0000
  C   C10       1.0  0.13076  0.52685  0.69295  1.0000
  C   C11       1.0  0.86657  0.44694  0.39035  1.0000
  C   C12       1.0  0.13343  0.55306  0.60965  1.0000
  C   C13       1.0  0.99416  0.29339  0.43076  1.0000
  C   C14       1.0  0.00584  0.70660  0.56924  1.0000
  C   C15       1.0  0.73250  0.64022  0.26295  1.0000
  C   C16       1.0  0.26750  0.35978  0.73705  1.0000
  C   C17       1.0  0.83473  0.79309  0.13179  1.0000
  C   C18       1.0  0.16527  0.20691  0.86821  1.0000
  C   C19       1.0  0.99927  0.89040  0.17999  1.0000
  C   C20       1.0  0.00073  0.10960  0.82001  1.0000
  C   C21       1.0  0.40902  0.81762  0.52608  1.0000
  C   C22       1.0  0.59098  0.18238  0.47392  1.0000
  C   C23       1.0  0.45946  0.74630  0.60731  1.0000
  C   C24       1.0  0.54055  0.25369  0.39269  1.0000
  C   C25       1.0  0.38529  0.85162  0.66774  1.0000
  C   C26       1.0  0.61471  0.14838  0.33226  1.0000
  C   C27       1.0  0.42968  0.77742  0.74582  1.0000
  C   C28       1.0  0.57031  0.22258  0.25418  1.0000
  C   C29       1.0  0.62141  0.49450  0.70476  1.0000
  C   C30       1.0  0.37859  0.50550  0.29524  1.0000
  C   C31       1.0  0.58029  0.56781  0.62614  1.0000
  C   C32       1.0  0.41971  0.43219  0.37386  1.0000
  C   C33       1.0  0.58173  0.51654  0.85194  1.0000
  C   C34       1.0  0.41828  0.48346  0.14806  1.0000
  C   C35       1.0  0.12831  0.63995  0.94404  1.0000
  C   C36       1.0  0.87169  0.36006  0.05596  1.0000
  C   C37       1.0  0.35126  0.72203  0.94176  1.0000
  C   C38       1.0  0.64874  0.27797  0.05824  1.0000
  C   C39       1.0  0.54462  0.59801  0.76557  1.0000
  C   C40       1.0  0.45538  0.40199  0.23443  1.0000
  N   N1        1.0  0.94319  0.88506  0.10991  1.0000
  N   N2        1.0  0.05681  0.11494  0.89009  1.0000
  N   N3        1.0  0.82826  0.74600  0.21162  1.0000
  N   N4        1.0  0.17175  0.25399  0.78838  1.0000
  N   N5        1.0  0.17204  0.76246  0.96771  1.0000
  N   N6        1.0  0.82796  0.23754  0.03229  1.0000
  N   N7        1.0  0.41072  0.58152  0.90416  1.0000
  N   N8        1.0  0.58929  0.41848  0.09584  1.0000
  N   N9        1.0  0.47637  0.74375  0.46176  1.0000
  N   N10       1.0  0.52364  0.25625  0.53823  1.0000
  N   N11       1.0  0.38053  0.86253  0.39880  1.0000
  N   N12       1.0  0.61947  0.13746  0.60120  1.0000
  N   N13       1.0  0.32838  0.05727  0.08911  1.0000
  N   N14       1.0  0.67162  0.94274  0.91089  1.0000
  N   N15       1.0  0.27031  0.52793  0.90452  1.0000
  N   N16       1.0  0.72969  0.47207  0.09547  1.0000
  N   N17       1.0  0.93187  0.80648  0.24339  1.0000
  N   N18       1.0  0.06814  0.19352  0.75661  1.0000
  O   O1        1.0  0.27100  0.98339  0.50919  1.0000
  O   O2        1.0  0.72901  0.01661  0.49081  1.0000
  O   O3        1.0  0.28733  0.97708  0.04484  1.0000
  O   O4        1.0  0.71267  0.02292  0.95516  1.0000
  O   O5        1.0  0.40524  0.97269  0.15241  1.0000
  O   O6        1.0  0.59476  0.02732  0.84758  1.0000
  O   O7        1.0  0.29045  0.22280  0.06869  1.0000
  O   O8        1.0  0.70955  0.77720  0.93131  1.0000
