data_image0
_chemical_formula_structural       Zn2H32C40N12O8
_chemical_formula_sum              "Zn2 H32 C40 N12 O8"
_cell_length_a       5.42754
_cell_length_b       10.5161
_cell_length_c       16.6387
_cell_angle_alpha    90.0013
_cell_angle_beta     89.9982
_cell_angle_gamma    90

_space_group_name_H-M_alt    "P 1"
_space_group_IT_number       1

loop_
  _space_group_symop_operation_xyz
  'x, y, z'

loop_
  _atom_site_type_symbol
  _atom_site_label
  _atom_site_symmetry_multiplicity
  _atom_site_fract_x
  _atom_site_fract_y
  _atom_site_fract_z
  _atom_site_occupancy
  Zn  Zn1       1.0  0.12545  1.00000  0.50000  1.0000
  Zn  Zn2       1.0  0.87453  0.50003  1.00000  1.0000
  H   H1        1.0  0.06463  0.25758  0.60666  1.0000
  H   H2        1.0  0.06461  0.74242  0.39333  1.0000
  H   H3        1.0  0.93542  0.24244  0.10667  1.0000
  H   H4        1.0  0.93538  0.75760  0.89333  1.0000
  H   H5        1.0  0.66452  0.00511  0.59016  1.0000
  H   H6        1.0  0.66454  0.99487  0.40985  1.0000
  H   H7        1.0  0.33546  0.49486  0.09016  1.0000
  H   H8        1.0  0.33546  0.50513  0.90985  1.0000
  H   H9        1.0  0.23486  0.39652  0.72064  1.0000
  H   H10       1.0  0.23487  0.60347  0.27936  1.0000
  H   H11       1.0  0.76520  0.10349  0.22064  1.0000
  H   H12       1.0  0.76513  0.89654  0.77936  1.0000
  H   H13       1.0  0.50164  0.33761  0.77163  1.0000
  H   H14       1.0  0.50167  0.66239  0.22837  1.0000
  H   H15       1.0  0.49841  0.16239  0.27164  1.0000
  H   H16       1.0  0.49835  0.83761  0.72836  1.0000
  H   H17       1.0  0.34145  0.50752  0.57662  1.0000
  H   H18       1.0  0.34141  0.49246  0.42337  1.0000
  H   H19       1.0  0.65861  0.99245  0.07662  1.0000
  H   H20       1.0  0.65852  0.00756  0.92338  1.0000
  H   H21       1.0  0.58251  0.69319  0.52699  1.0000
  H   H22       1.0  0.58245  0.30680  0.47302  1.0000
  H   H23       1.0  0.41754  0.80678  0.02700  1.0000
  H   H24       1.0  0.41742  0.19323  0.97300  1.0000
  H   H25       1.0  0.08914  0.65262  0.72376  1.0000
  H   H26       1.0  0.08915  0.34735  0.27624  1.0000
  H   H27       1.0  0.91089  0.84738  0.22378  1.0000
  H   H28       1.0  0.91083  0.15263  0.77622  1.0000
  H   H29       1.0  0.84261  0.46736  0.77525  1.0000
  H   H30       1.0  0.84263  0.53262  0.22474  1.0000
  H   H31       1.0  0.15743  0.03265  0.27526  1.0000
  H   H32       1.0  0.15738  0.96736  0.72473  1.0000
  C   C1        1.0  0.24449  0.21364  0.61324  1.0000
  C   C2        1.0  0.24448  0.78636  0.38675  1.0000
  C   C3        1.0  0.75554  0.28637  0.11325  1.0000
  C   C4        1.0  0.75552  0.71364  0.88675  1.0000
  C   C5        1.0  0.55212  0.08634  0.60705  1.0000
  C   C6        1.0  0.55211  0.91364  0.39295  1.0000
  C   C7        1.0  0.44787  0.41363  0.10705  1.0000
  C   C8        1.0  0.44787  0.58637  0.89295  1.0000
  C   C9        1.0  0.42811  0.36765  0.71323  1.0000
  C   C10       1.0  0.42811  0.63234  0.28677  1.0000
  C   C11       1.0  0.57193  0.13236  0.21323  1.0000
  C   C12       1.0  0.57189  0.86766  0.78677  1.0000
  C   C13       1.0  0.57966  0.47509  0.67887  1.0000
  C   C14       1.0  0.57962  0.52488  0.32113  1.0000
  C   C15       1.0  0.42041  0.02491  0.17888  1.0000
  C   C16       1.0  0.42034  0.97512  0.82112  1.0000
  C   C17       1.0  0.50735  0.53779  0.60849  1.0000
  C   C18       1.0  0.50732  0.46219  0.39152  1.0000
  C   C19       1.0  0.49272  0.96218  0.10850  1.0000
  C   C20       1.0  0.49262  0.03782  0.89151  1.0000
  C   C21       1.0  0.64134  0.64152  0.58031  1.0000
  C   C22       1.0  0.64130  0.35846  0.41970  1.0000
  C   C23       1.0  0.35871  0.85846  0.08032  1.0000
  C   C24       1.0  0.35858  0.14155  0.91968  1.0000
  C   C25       1.0  0.85127  0.68335  0.62177  1.0000
  C   C26       1.0  0.85124  0.31664  0.37823  1.0000
  C   C27       1.0  0.14880  0.81664  0.12179  1.0000
  C   C28       1.0  0.14868  0.18337  0.87821  1.0000
  C   C29       1.0  0.92644  0.61928  0.69148  1.0000
  C   C30       1.0  0.92643  0.38071  0.30852  1.0000
  C   C31       1.0  0.07362  0.88073  0.19150  1.0000
  C   C32       1.0  0.07353  0.11929  0.80850  1.0000
  C   C33       1.0  0.79084  0.51603  0.71981  1.0000
  C   C34       1.0  0.79082  0.48396  0.28019  1.0000
  C   C35       1.0  0.20924  0.98398  0.21982  1.0000
  C   C36       1.0  0.20916  0.01603  0.78018  1.0000
  C   C37       1.0  0.99415  0.79726  0.59410  1.0000
  C   C38       1.0  0.99412  0.20275  0.40592  1.0000
  C   C39       1.0  0.00587  0.70275  0.09411  1.0000
  C   C40       1.0  0.00579  0.29726  0.90590  1.0000
  N   N1        1.0  0.32016  0.10608  0.57777  1.0000
  N   N2        1.0  0.32016  0.89391  0.42223  1.0000
  N   N3        1.0  0.67985  0.39392  0.07777  1.0000
  N   N4        1.0  0.67984  0.60610  0.92223  1.0000
  N   N5        1.0  0.62353  0.17615  0.65785  1.0000
  N   N6        1.0  0.62355  0.82383  0.34216  1.0000
  N   N7        1.0  0.37648  0.32384  0.15785  1.0000
  N   N8        1.0  0.37647  0.67616  0.84215  1.0000
  N   N9        1.0  0.42520  0.25561  0.66129  1.0000
  N   N10       1.0  0.42520  0.74438  0.33871  1.0000
  N   N11       1.0  0.57482  0.24439  0.16129  1.0000
  N   N12       1.0  0.57479  0.75563  0.83871  1.0000
  O   O1        1.0  0.19729  0.82436  0.62525  1.0000
  O   O2        1.0  0.19728  0.17564  0.37475  1.0000
  O   O3        1.0  0.80274  0.67565  0.12526  1.0000
  O   O4        1.0  0.80261  0.32435  0.87474  1.0000
  O   O5        1.0  0.89219  0.86475  0.53713  1.0000
  O   O6        1.0  0.89218  0.13524  0.46288  1.0000
  O   O7        1.0  0.10782  0.63525  0.03714  1.0000
  O   O8        1.0  0.10776  0.36476  0.96285  1.0000
