data_image0
_chemical_formula_structural       CuH32C40N16Cl2O2
_chemical_formula_sum              "Cu1 H32 C40 N16 Cl2 O2"
_cell_length_a       7.96642
_cell_length_b       7.89167
_cell_length_c       16.8273
_cell_angle_alpha    79.4642
_cell_angle_beta     79.39
_cell_angle_gamma    68.9938

_space_group_name_H-M_alt    "P 1"
_space_group_IT_number       1

loop_
  _space_group_symop_operation_xyz
  'x, y, z'

loop_
  _atom_site_type_symbol
  _atom_site_label
  _atom_site_symmetry_multiplicity
  _atom_site_fract_x
  _atom_site_fract_y
  _atom_site_fract_z
  _atom_site_occupancy
  Cu  Cu1       1.0  0.00000  1.00000  0.00000  1.0000
  H   H1        1.0  0.49074  0.33592  0.42679  1.0000
  H   H2        1.0  0.50928  0.66409  0.57321  1.0000
  H   H3        1.0  0.58989  0.23355  0.29001  1.0000
  H   H4        1.0  0.41012  0.76645  0.70999  1.0000
  H   H5        1.0  0.08733  0.60889  0.21102  1.0000
  H   H6        1.0  0.91268  0.39111  0.78898  1.0000
  H   H7        1.0  0.98717  0.70916  0.34724  1.0000
  H   H8        1.0  0.01282  0.29082  0.65276  1.0000
  H   H9        1.0  0.55503  0.28658  0.14688  1.0000
  H   H10       1.0  0.44498  0.71342  0.85313  1.0000
  H   H11       1.0  0.33388  0.28354  0.13980  1.0000
  H   H12       1.0  0.66615  0.71646  0.86020  1.0000
  H   H13       1.0  0.13176  0.54685  0.05144  1.0000
  H   H14       1.0  0.86827  0.45314  0.94855  1.0000
  H   H15       1.0  0.41037  0.91952  0.03444  1.0000
  H   H16       1.0  0.58963  0.08048  0.96558  1.0000
  H   H17       1.0  0.72364  0.99716  0.50328  1.0000
  H   H18       1.0  0.27632  0.00284  0.49672  1.0000
  H   H19       1.0  0.46130  0.22223  0.57654  1.0000
  H   H20       1.0  0.53868  0.77777  0.42347  1.0000
  H   H21       1.0  0.71269  0.02923  0.79717  1.0000
  H   H22       1.0  0.28732  0.97079  0.20282  1.0000
  H   H23       1.0  0.97269  0.80650  0.72437  1.0000
  H   H24       1.0  0.02732  0.19351  0.27562  1.0000
  H   H25       1.0  0.44681  0.33788  0.77669  1.0000
  H   H26       1.0  0.55319  0.66212  0.22331  1.0000
  H   H27       1.0  0.32355  0.37605  0.69291  1.0000
  H   H28       1.0  0.67644  0.62396  0.30709  1.0000
  H   H29       1.0  0.05796  0.91006  0.81915  1.0000
  H   H30       1.0  0.94204  0.08993  0.18084  1.0000
  H   H31       1.0  0.26335  0.25078  0.90810  1.0000
  H   H32       1.0  0.73665  0.74920  0.09190  1.0000
  C   C1        1.0  0.17954  0.58947  0.47596  1.0000
  C   C2        1.0  0.82045  0.41053  0.52404  1.0000
  C   C3        1.0  0.23219  0.52743  0.39643  1.0000
  C   C4        1.0  0.76782  0.47257  0.60357  1.0000
  C   C5        1.0  0.40153  0.39236  0.37963  1.0000
  C   C6        1.0  0.59847  0.60765  0.62037  1.0000
  C   C7        1.0  0.45788  0.33774  0.30228  1.0000
  C   C8        1.0  0.54213  0.66226  0.69772  1.0000
  C   C9        1.0  0.34632  0.41591  0.24058  1.0000
  C   C10       1.0  0.65369  0.58409  0.75942  1.0000
  C   C11       1.0  0.17590  0.54753  0.25836  1.0000
  C   C12       1.0  0.82411  0.45246  0.74164  1.0000
  C   C13       1.0  0.11851  0.60405  0.33516  1.0000
  C   C14       1.0  0.88148  0.39595  0.66484  1.0000
  C   C15       1.0  0.40935  0.36387  0.15511  1.0000
  C   C16       1.0  0.59067  0.63612  0.84489  1.0000
  C   C17       1.0  0.22704  0.61279  0.05737  1.0000
  C   C18       1.0  0.77298  0.38720  0.94262  1.0000
  C   C19       1.0  0.37562  0.79571  0.04881  1.0000
  C   C20       1.0  0.62439  0.20431  0.95119  1.0000
  C   C21       1.0  0.01813  0.75339  0.56999  1.0000
  C   C22       1.0  0.98185  0.24661  0.43000  1.0000
  C   C23       1.0  0.86538  0.88878  0.60942  1.0000
  C   C24       1.0  0.13460  0.11122  0.39058  1.0000
  C   C25       1.0  0.72050  0.00511  0.56758  1.0000
  C   C26       1.0  0.27948  0.99489  0.43241  1.0000
  C   C27       1.0  0.57313  0.12904  0.60861  1.0000
  C   C28       1.0  0.42684  0.87096  0.39139  1.0000
  C   C29       1.0  0.56817  0.13908  0.69128  1.0000
  C   C30       1.0  0.43182  0.86092  0.30872  1.0000
  C   C31       1.0  0.71375  0.02404  0.73264  1.0000
  C   C32       1.0  0.28625  0.97597  0.26736  1.0000
  C   C33       1.0  0.86095  0.89943  0.69227  1.0000
  C   C34       1.0  0.13906  0.10057  0.30772  1.0000
  C   C35       1.0  0.40588  0.27062  0.73574  1.0000
  C   C36       1.0  0.59412  0.72939  0.26427  1.0000
  C   C37       1.0  0.13022  0.00293  0.82011  1.0000
  C   C38       1.0  0.86978  0.99706  0.17990  1.0000
  C   C39       1.0  0.23365  0.17383  0.86838  1.0000
  C   C40       1.0  0.76635  0.82616  0.13163  1.0000
  N   N1        1.0  0.26605  0.53085  0.54022  1.0000
  N   N2        1.0  0.73396  0.46916  0.45978  1.0000
  N   N3        1.0  0.16270  0.63710  0.60067  1.0000
  N   N4        1.0  0.83729  0.36291  0.39933  1.0000
  N   N5        1.0  0.29018  0.17423  0.78793  1.0000
  N   N6        1.0  0.70982  0.82577  0.21206  1.0000
  N   N7        1.0  0.22535  0.06661  0.75611  1.0000
  N   N8        1.0  0.77465  0.93340  0.24389  1.0000
  N   N9        1.0  0.13179  0.06539  0.89037  1.0000
  N   N10       1.0  0.86821  0.93460  0.10963  1.0000
  N   N11       1.0  0.37452  0.52919  0.09612  1.0000
  N   N12       1.0  0.62550  0.47080  0.90388  1.0000
  N   N13       1.0  0.47075  0.64427  0.09144  1.0000
  N   N14       1.0  0.52927  0.35572  0.90857  1.0000
  N   N15       1.0  0.22380  0.78307  0.02721  1.0000
  N   N16       1.0  0.77621  0.21693  0.97279  1.0000
  Cl  Cl1       1.0  0.87706  0.77296  0.93359  1.0000
  Cl  Cl2       1.0  0.12295  0.22703  0.06642  1.0000
  O   O1        1.0  0.01986  0.73086  0.49075  1.0000
  O   O2        1.0  0.98013  0.26913  0.50925  1.0000
