data_image0
_chemical_formula_structural       Co2H36C40N12O10
_chemical_formula_sum              "Co2 H36 C40 N12 O10"
_cell_length_a       8.95181
_cell_length_b       9.61553
_cell_length_c       12.4087
_cell_angle_alpha    112.801
_cell_angle_beta     103.658
_cell_angle_gamma    89.9807

_space_group_name_H-M_alt    "P 1"
_space_group_IT_number       1

loop_
  _space_group_symop_operation_xyz
  'x, y, z'

loop_
  _atom_site_type_symbol
  _atom_site_label
  _atom_site_symmetry_multiplicity
  _atom_site_fract_x
  _atom_site_fract_y
  _atom_site_fract_z
  _atom_site_occupancy
  Co  Co1       1.0  0.00000  1.00000  0.00000  1.0000
  Co  Co2       1.0  0.50000  0.00000  0.00000  1.0000
  H   H1        1.0  0.53714  0.85830  0.65846  1.0000
  H   H2        1.0  0.96292  0.19973  0.34155  1.0000
  H   H3        1.0  0.46286  0.14170  0.34155  1.0000
  H   H4        1.0  0.03708  0.80027  0.65845  1.0000
  H   H5        1.0  0.53435  0.75761  0.44139  1.0000
  H   H6        1.0  0.96621  0.31643  0.55874  1.0000
  H   H7        1.0  0.46565  0.24240  0.55861  1.0000
  H   H8        1.0  0.03380  0.68357  0.44126  1.0000
  H   H9        1.0  0.17156  0.41128  0.36334  1.0000
  H   H10       1.0  0.32890  0.04777  0.63655  1.0000
  H   H11       1.0  0.82844  0.58871  0.63666  1.0000
  H   H12       1.0  0.67110  0.95223  0.36346  1.0000
  H   H13       1.0  0.17722  0.51171  0.58096  1.0000
  H   H14       1.0  0.32272  0.93016  0.41879  1.0000
  H   H15       1.0  0.82278  0.48829  0.41904  1.0000
  H   H16       1.0  0.67728  0.06984  0.58121  1.0000
  H   H17       1.0  0.46488  0.47854  0.24382  1.0000
  H   H18       1.0  0.03553  0.23605  0.75620  1.0000
  H   H19       1.0  0.53512  0.52146  0.75618  1.0000
  H   H20       1.0  0.96447  0.76395  0.24379  1.0000
  H   H21       1.0  0.35300  0.62502  0.23004  1.0000
  H   H22       1.0  0.14830  0.39551  0.76973  1.0000
  H   H23       1.0  0.64700  0.37498  0.76996  1.0000
  H   H24       1.0  0.85170  0.60449  0.23027  1.0000
  H   H25       1.0  0.30297  0.20633  0.17455  1.0000
  H   H26       1.0  0.19717  0.03206  0.82537  1.0000
  H   H27       1.0  0.69703  0.79367  0.82545  1.0000
  H   H28       1.0  0.80282  0.96794  0.17463  1.0000
  H   H29       1.0  0.90478  0.32203  0.97951  1.0000
  H   H30       1.0  0.59519  0.34272  0.02109  1.0000
  H   H31       1.0  0.09523  0.67797  0.02049  1.0000
  H   H32       1.0  0.40481  0.65728  0.97891  1.0000
  H   H33       1.0  0.76125  0.16085  0.07401  1.0000
  H   H34       1.0  0.73895  0.08723  0.92615  1.0000
  H   H35       1.0  0.23875  0.83915  0.92599  1.0000
  H   H36       1.0  0.26105  0.91277  0.07385  1.0000
  C   C1        1.0  0.35505  0.75574  0.76444  1.0000
  C   C2        1.0  0.14467  0.99085  0.23542  1.0000
  C   C3        1.0  0.64494  0.24425  0.23556  1.0000
  C   C4        1.0  0.85533  0.00915  0.76458  1.0000
  C   C5        1.0  0.35706  0.69109  0.63378  1.0000
  C   C6        1.0  0.14294  0.05695  0.36615  1.0000
  C   C7        1.0  0.64294  0.30891  0.36622  1.0000
  C   C8        1.0  0.85706  0.94305  0.63385  1.0000
  C   C9        1.0  0.45813  0.75961  0.59357  1.0000
  C   C10       1.0  0.04199  0.16589  0.40641  1.0000
  C   C11       1.0  0.54186  0.24039  0.40643  1.0000
  C   C12       1.0  0.95801  0.83411  0.59359  1.0000
  C   C13       1.0  0.45499  0.70389  0.47169  1.0000
  C   C14       1.0  0.04539  0.23222  0.52832  1.0000
  C   C15       1.0  0.54500  0.29611  0.52832  1.0000
  C   C16       1.0  0.95462  0.76779  0.47168  1.0000
  C   C17       1.0  0.35129  0.57952  0.38696  1.0000
  C   C18       1.0  0.14919  0.19260  0.61302  1.0000
  C   C19       1.0  0.64871  0.42048  0.61304  1.0000
  C   C20       1.0  0.85081  0.80741  0.38697  1.0000
  C   C21       1.0  0.25229  0.50945  0.42711  1.0000
  C   C22       1.0  0.24804  0.08216  0.57283  1.0000
  C   C23       1.0  0.74771  0.49054  0.57289  1.0000
  C   C24       1.0  0.75196  0.91784  0.42718  1.0000
  C   C25       1.0  0.25522  0.56520  0.54966  1.0000
  C   C26       1.0  0.24485  0.01514  0.45022  1.0000
  C   C27       1.0  0.74478  0.43480  0.45034  1.0000
  C   C28       1.0  0.75515  0.98486  0.54978  1.0000
  C   C29       1.0  0.35618  0.52806  0.25620  1.0000
  C   C30       1.0  0.14450  0.27241  0.74382  1.0000
  C   C31       1.0  0.64382  0.47194  0.74380  1.0000
  C   C32       1.0  0.85550  0.72759  0.25618  1.0000
  C   C33       1.0  0.21417  0.26762  0.14173  1.0000
  C   C34       1.0  0.28599  0.12617  0.85835  1.0000
  C   C35       1.0  0.78583  0.73238  0.85827  1.0000
  C   C36       1.0  0.71401  0.87383  0.14165  1.0000
  C   C37       1.0  0.01422  0.33025  0.04302  1.0000
  C   C38       1.0  0.48585  0.28747  0.95741  1.0000
  C   C39       1.0  0.98578  0.66975  0.95698  1.0000
  C   C40       1.0  0.51416  0.71253  0.04259  1.0000
  N   N1        1.0  0.22962  0.41748  0.17033  1.0000
  N   N2        1.0  0.27074  0.24745  0.82979  1.0000
  N   N3        1.0  0.77038  0.58252  0.82967  1.0000
  N   N4        1.0  0.72926  0.75255  0.17022  1.0000
  N   N5        1.0  0.10339  0.45991  0.10902  1.0000
  N   N6        1.0  0.39688  0.35119  0.89134  1.0000
  N   N7        1.0  0.89661  0.54009  0.89098  1.0000
  N   N8        1.0  0.60312  0.64881  0.10866  1.0000
  N   N9        1.0  0.07795  0.20879  0.06099  1.0000
  N   N10       1.0  0.42204  0.14806  0.93931  1.0000
  N   N11       1.0  0.92205  0.79121  0.93901  1.0000
  N   N12       1.0  0.57795  0.85194  0.06069  1.0000
  O   O1        1.0  0.46764  0.85861  0.83444  1.0000
  O   O2        1.0  0.03211  0.02394  0.16557  1.0000
  O   O3        1.0  0.53236  0.14139  0.16556  1.0000
  O   O4        1.0  0.96789  0.97606  0.83443  1.0000
  O   O5        1.0  0.24716  0.71036  0.79673  1.0000
  O   O6        1.0  0.25231  0.91284  0.20302  1.0000
  O   O7        1.0  0.75284  0.28964  0.20327  1.0000
  O   O8        1.0  0.74769  0.08715  0.79698  1.0000
  O   O9        1.0  0.75002  0.06319  0.99997  1.0000
  O   O10       1.0  0.24998  0.93682  0.00003  1.0000
