data_image0
_chemical_formula_structural       Cu6H54C36I6N12
_chemical_formula_sum              "Cu6 H54 C36 I6 N12"
_cell_length_a       10.192
_cell_length_b       10.6816
_cell_length_c       11.6831
_cell_angle_alpha    106.734
_cell_angle_beta     90.5981
_cell_angle_gamma    101.95

_space_group_name_H-M_alt    "P 1"
_space_group_IT_number       1

loop_
  _space_group_symop_operation_xyz
  'x, y, z'

loop_
  _atom_site_type_symbol
  _atom_site_label
  _atom_site_symmetry_multiplicity
  _atom_site_fract_x
  _atom_site_fract_y
  _atom_site_fract_z
  _atom_site_occupancy
  Cu  Cu1       1.0  0.70988  0.40086  0.20859  1.0000
  Cu  Cu2       1.0  0.29012  0.59913  0.79141  1.0000
  Cu  Cu3       1.0  0.91086  0.50226  0.38738  1.0000
  Cu  Cu4       1.0  0.08914  0.49774  0.61262  1.0000
  Cu  Cu5       1.0  0.83498  0.24686  0.26575  1.0000
  Cu  Cu6       1.0  0.16502  0.75313  0.73425  1.0000
  H   H1        1.0  0.30436  0.39846  0.15606  1.0000
  H   H2        1.0  0.69564  0.60154  0.84395  1.0000
  H   H3        1.0  0.33423  0.52518  0.29533  1.0000
  H   H4        1.0  0.66577  0.47482  0.70468  1.0000
  H   H5        1.0  0.42709  0.39575  0.26474  1.0000
  H   H6        1.0  0.57290  0.60425  0.73527  1.0000
  H   H7        1.0  0.78883  0.63613  0.09909  1.0000
  H   H8        1.0  0.21117  0.36387  0.90091  1.0000
  H   H9        1.0  0.59527  0.76351  0.03774  1.0000
  H   H10       1.0  0.40473  0.23649  0.96226  1.0000
  H   H11       1.0  0.26004  0.58890  0.10468  1.0000
  H   H12       1.0  0.73996  0.41110  0.89533  1.0000
  H   H13       1.0  0.33969  0.69881  0.02569  1.0000
  H   H14       1.0  0.66031  0.30119  0.97431  1.0000
  H   H15       1.0  0.34308  0.76561  0.29987  1.0000
  H   H16       1.0  0.65691  0.23439  0.70013  1.0000
  H   H17       1.0  0.41427  0.87945  0.22069  1.0000
  H   H18       1.0  0.58573  0.12055  0.77932  1.0000
  H   H19       1.0  0.18494  0.90022  0.30467  1.0000
  H   H20       1.0  0.81505  0.09978  0.69532  1.0000
  H   H21       1.0  0.11425  0.74444  0.19891  1.0000
  H   H22       1.0  0.88575  0.25556  0.80109  1.0000
  H   H23       1.0  0.26496  0.99232  0.13301  1.0000
  H   H24       1.0  0.73504  0.00768  0.86698  1.0000
  H   H25       1.0  0.17721  0.83998  0.03043  1.0000
  H   H26       1.0  0.82279  0.16002  0.96957  1.0000
  H   H27       1.0  0.22874  0.21695  0.23051  1.0000
  H   H28       1.0  0.77126  0.78305  0.76949  1.0000
  H   H29       1.0  0.20075  0.13959  0.34518  1.0000
  H   H30       1.0  0.79925  0.86041  0.65482  1.0000
  H   H31       1.0  0.11031  0.26317  0.33719  1.0000
  H   H32       1.0  0.88969  0.73683  0.66281  1.0000
  H   H33       1.0  0.92354  0.79049  0.00548  1.0000
  H   H34       1.0  0.07646  0.20951  0.99452  1.0000
  H   H35       1.0  0.74035  0.95651  0.08336  1.0000
  H   H36       1.0  0.25965  0.04348  0.91664  1.0000
  H   H37       1.0  0.85053  0.84908  0.28707  1.0000
  H   H38       1.0  0.14947  0.15092  0.71293  1.0000
  H   H39       1.0  0.96083  0.75280  0.32158  1.0000
  H   H40       1.0  0.03918  0.24720  0.67842  1.0000
  H   H41       1.0  0.94758  0.90627  0.42697  1.0000
  H   H42       1.0  0.05243  0.09373  0.57303  1.0000
  H   H43       1.0  0.63863  0.49730  0.50787  1.0000
  H   H44       1.0  0.36138  0.50270  0.49213  1.0000
  H   H45       1.0  0.49653  0.69868  0.53100  1.0000
  H   H46       1.0  0.50347  0.30132  0.46900  1.0000
  H   H47       1.0  0.61277  0.89082  0.33953  1.0000
  H   H48       1.0  0.38723  0.10918  0.66047  1.0000
  H   H49       1.0  0.72405  0.98551  0.46566  1.0000
  H   H50       1.0  0.27595  0.01449  0.53434  1.0000
  H   H51       1.0  0.53955  0.94663  0.60167  1.0000
  H   H52       1.0  0.46045  0.05337  0.39834  1.0000
  H   H53       1.0  0.42791  0.85320  0.47679  1.0000
  H   H54       1.0  0.57208  0.14680  0.52321  1.0000
  C   C1        1.0  0.38353  0.46117  0.22584  1.0000
  C   C2        1.0  0.61647  0.53883  0.77416  1.0000
  C   C3        1.0  0.49062  0.54045  0.17461  1.0000
  C   C4        1.0  0.50938  0.45955  0.82539  1.0000
  C   C5        1.0  0.68279  0.62437  0.11398  1.0000
  C   C6        1.0  0.31720  0.37563  0.88602  1.0000
  C   C7        1.0  0.59008  0.68847  0.08421  1.0000
  C   C8        1.0  0.40992  0.31154  0.91579  1.0000
  C   C9        1.0  0.34318  0.67509  0.11111  1.0000
  C   C10       1.0  0.65682  0.32491  0.88889  1.0000
  C   C11       1.0  0.33117  0.79372  0.21753  1.0000
  C   C12       1.0  0.66883  0.20628  0.78247  1.0000
  C   C13       1.0  0.19632  0.83422  0.21539  1.0000
  C   C14       1.0  0.80368  0.16578  0.78460  1.0000
  C   C15       1.0  0.18012  0.90631  0.12225  1.0000
  C   C16       1.0  0.81988  0.09369  0.87775  1.0000
  C   C17       1.0  0.15075  0.17910  0.28394  1.0000
  C   C18       1.0  0.84925  0.82089  0.71606  1.0000
  C   C19       1.0  0.04049  0.07598  0.20661  1.0000
  C   C20       1.0  0.95952  0.92402  0.79339  1.0000
  C   C21       1.0  0.93360  0.88766  0.07163  1.0000
  C   C22       1.0  0.06640  0.11234  0.92837  1.0000
  C   C23       1.0  0.84572  0.96999  0.11006  1.0000
  C   C24       1.0  0.15428  0.03001  0.88994  1.0000
  C   C25       1.0  0.89082  0.81640  0.35847  1.0000
  C   C26       1.0  0.10919  0.18360  0.64153  1.0000
  C   C27       1.0  0.78291  0.73905  0.41037  1.0000
  C   C28       1.0  0.21709  0.26095  0.58963  1.0000
  C   C29       1.0  0.66193  0.58791  0.48126  1.0000
  C   C30       1.0  0.33808  0.41209  0.51874  1.0000
  C   C31       1.0  0.59069  0.68591  0.49224  1.0000
  C   C32       1.0  0.40931  0.31409  0.50776  1.0000
  C   C33       1.0  0.63471  0.90303  0.43514  1.0000
  C   C34       1.0  0.36529  0.09697  0.56486  1.0000
  C   C35       1.0  0.51675  0.93632  0.50665  1.0000
  C   C36       1.0  0.48325  0.06368  0.49335  1.0000
  I   I1        1.0  0.57087  0.16367  0.18362  1.0000
  I   I2        1.0  0.42913  0.83633  0.81638  1.0000
  I   I3        1.0  0.84953  0.32126  0.50398  1.0000
  I   I4        1.0  0.15047  0.67873  0.49602  1.0000
  I   I5        1.0  0.96665  0.43629  0.16023  1.0000
  I   I6        1.0  0.03335  0.56371  0.83976  1.0000
  N   N1        1.0  0.62022  0.53196  0.16953  1.0000
  N   N2        1.0  0.37978  0.46805  0.83047  1.0000
  N   N3        1.0  0.46952  0.63413  0.12212  1.0000
  N   N4        1.0  0.53047  0.36588  0.87789  1.0000
  N   N5        1.0  0.91288  0.08691  0.19380  1.0000
  N   N6        1.0  0.08712  0.91309  0.80620  1.0000
  N   N7        1.0  0.05602  0.95566  0.13316  1.0000
  N   N8        1.0  0.94398  0.04434  0.86683  1.0000
  N   N9        1.0  0.78090  0.62161  0.43063  1.0000
  N   N10       1.0  0.21911  0.37839  0.56937  1.0000
  N   N11       1.0  0.66828  0.78064  0.44681  1.0000
  N   N12       1.0  0.33172  0.21936  0.55319  1.0000
