data_image0
_chemical_formula_structural       Co2H24C32N4O8
_chemical_formula_sum              "Co2 H24 C32 N4 O8"
_cell_length_a       8.58973
_cell_length_b       8.77472
_cell_length_c       11.9485
_cell_angle_alpha    108.353
_cell_angle_beta     107.815
_cell_angle_gamma    98.3624

_space_group_name_H-M_alt    "P 1"
_space_group_IT_number       1

loop_
  _space_group_symop_operation_xyz
  'x, y, z'

loop_
  _atom_site_type_symbol
  _atom_site_label
  _atom_site_symmetry_multiplicity
  _atom_site_fract_x
  _atom_site_fract_y
  _atom_site_fract_z
  _atom_site_occupancy
  Co  Co1       1.0  0.99166  0.70130  0.79446  1.0000
  Co  Co2       1.0  0.69720  0.90687  0.20543  1.0000
  H   H1        1.0  0.31840  0.53945  0.08521  1.0000
  H   H2        1.0  0.73389  0.45418  0.91508  1.0000
  H   H3        1.0  0.23869  0.25268  0.82994  1.0000
  H   H4        1.0  0.90868  0.42226  0.17033  1.0000
  H   H5        1.0  0.32680  0.00757  0.83256  1.0000
  H   H6        1.0  0.99461  0.17452  0.16752  1.0000
  H   H7        1.0  0.48922  0.85592  0.94830  1.0000
  H   H8        1.0  0.04097  0.90714  0.05148  1.0000
  H   H9        1.0  0.65181  0.25518  0.29308  1.0000
  H   H10       1.0  0.85839  0.96204  0.70691  1.0000
  H   H11       1.0  0.49743  0.42616  0.19326  1.0000
  H   H12       1.0  0.80419  0.23291  0.80701  1.0000
  H   H13       1.0  0.02195  0.75410  0.41808  1.0000
  H   H14       1.0  0.10431  0.33578  0.58172  1.0000
  H   H15       1.0  0.35654  0.74647  0.60674  1.0000
  H   H16       1.0  0.25014  0.13912  0.39315  1.0000
  H   H17       1.0  0.15480  0.82614  0.30034  1.0000
  H   H18       1.0  0.35457  0.52524  0.69943  1.0000
  H   H19       1.0  0.32532  0.87037  0.17316  1.0000
  H   H20       1.0  0.65218  0.69667  0.82668  1.0000
  H   H21       1.0  0.74165  0.77834  0.40478  1.0000
  H   H22       1.0  0.83717  0.37304  0.59525  1.0000
  H   H23       1.0  0.59153  0.73114  0.54095  1.0000
  H   H24       1.0  0.55095  0.18954  0.45912  1.0000
  C   C1        1.0  0.15904  0.53334  0.89990  1.0000
  C   C2        1.0  0.75928  0.63329  0.10024  1.0000
  C   C3        1.0  0.26764  0.46560  0.98335  1.0000
  C   C4        1.0  0.78466  0.48213  0.01695  1.0000
  C   C5        1.0  0.29755  0.31739  0.93335  1.0000
  C   C6        1.0  0.86434  0.38380  0.06693  1.0000
  C   C7        1.0  0.39562  0.23143  0.00230  1.0000
  C   C8        1.0  0.89349  0.22891  0.99790  1.0000
  C   C9        1.0  0.39790  0.06903  0.93470  1.0000
  C   C10       1.0  0.96342  0.13399  0.06537  1.0000
  C   C11       1.0  0.48759  0.98272  0.99832  1.0000
  C   C12       1.0  0.98934  0.98407  0.00161  1.0000
  C   C13       1.0  0.57688  0.20640  0.19138  1.0000
  C   C14       1.0  0.88538  0.01492  0.80864  1.0000
  C   C15       1.0  0.48914  0.29959  0.13446  1.0000
  C   C16       1.0  0.85473  0.16504  0.86571  1.0000
  C   C17       1.0  0.04651  0.73440  0.60086  1.0000
  C   C18       1.0  0.94586  0.13335  0.39906  1.0000
  C   C19       1.0  0.11262  0.75006  0.50346  1.0000
  C   C20       1.0  0.10947  0.24619  0.49636  1.0000
  C   C21       1.0  0.27629  0.75681  0.52015  1.0000
  C   C22       1.0  0.25644  0.23609  0.47967  1.0000
  C   C23       1.0  0.35935  0.77689  0.43452  1.0000
  C   C24       1.0  0.42507  0.34172  0.56535  1.0000
  C   C25       1.0  0.28452  0.81435  0.32719  1.0000
  C   C26       1.0  0.45746  0.48657  0.67259  1.0000
  C   C27       1.0  0.37956  0.84115  0.25655  1.0000
  C   C28       1.0  0.62306  0.58404  0.74330  1.0000
  C   C29       1.0  0.61250  0.78922  0.38499  1.0000
  C   C30       1.0  0.72776  0.40368  0.61499  1.0000
  C   C31       1.0  0.52650  0.76260  0.46091  1.0000
  C   C32       1.0  0.56589  0.30107  0.53909  1.0000
  N   N1        1.0  0.57680  0.04922  0.12515  1.0000
  N   N2        1.0  0.95153  0.92383  0.87474  1.0000
  N   N3        1.0  0.54183  0.83038  0.28487  1.0000
  N   N4        1.0  0.75709  0.54498  0.71504  1.0000
  O   O1        1.0  0.13706  0.67858  0.95289  1.0000
  O   O2        1.0  0.68468  0.72562  0.04714  1.0000
  O   O3        1.0  0.08872  0.45371  0.78120  1.0000
  O   O4        1.0  0.80720  0.67227  0.21892  1.0000
  O   O5        1.0  0.14829  0.72768  0.70380  1.0000
  O   O6        1.0  0.94451  0.02336  0.29615  1.0000
  O   O7        1.0  0.89285  0.72869  0.58459  1.0000
  O   O8        1.0  0.80860  0.14439  0.41541  1.0000
