data_image0
_chemical_formula_structural       Cu2H24C32N4O8
_chemical_formula_sum              "Cu2 H24 C32 N4 O8"
_cell_length_a       4.86402
_cell_length_b       10.6364
_cell_length_c       15.225
_cell_angle_alpha    90.0005
_cell_angle_beta     96.8539
_cell_angle_gamma    89.9997

_space_group_name_H-M_alt    "P 1"
_space_group_IT_number       1

loop_
  _space_group_symop_operation_xyz
  'x, y, z'

loop_
  _atom_site_type_symbol
  _atom_site_label
  _atom_site_symmetry_multiplicity
  _atom_site_fract_x
  _atom_site_fract_y
  _atom_site_fract_z
  _atom_site_occupancy
  Cu  Cu1       1.0  0.00164  0.02442  0.99860  1.0000
  Cu  Cu2       1.0  0.00165  0.97557  0.49860  1.0000
  H   H1        1.0  0.46394  0.41969  0.14498  1.0000
  H   H2        1.0  0.46395  0.58030  0.64499  1.0000
  H   H3        1.0  0.75169  0.33925  0.10946  1.0000
  H   H4        1.0  0.75170  0.66075  0.60947  1.0000
  H   H5        1.0  0.63494  0.29979  0.21225  1.0000
  H   H6        1.0  0.63494  0.70021  0.71225  1.0000
  H   H7        1.0  0.24454  0.79219  0.10529  1.0000
  H   H8        1.0  0.24458  0.20780  0.60529  1.0000
  H   H9        1.0  0.10406  0.56352  0.10833  1.0000
  H   H10       1.0  0.10409  0.43647  0.60834  1.0000
  H   H11       1.0  0.68939  0.49019  0.00528  1.0000
  H   H12       1.0  0.68940  0.50981  0.50529  1.0000
  H   H13       1.0  0.30245  0.54641  0.88614  1.0000
  H   H14       1.0  0.30250  0.45360  0.38614  1.0000
  H   H15       1.0  0.06416  0.70907  0.78648  1.0000
  H   H16       1.0  0.06419  0.29094  0.28648  1.0000
  H   H17       1.0  0.03110  0.94057  0.73440  1.0000
  H   H18       1.0  0.03108  0.05943  0.23441  1.0000
  H   H19       1.0  0.22488  0.15720  0.75285  1.0000
  H   H20       1.0  0.22487  0.84280  0.25285  1.0000
  H   H21       1.0  0.64679  0.19658  0.86277  1.0000
  H   H22       1.0  0.64678  0.80341  0.36277  1.0000
  H   H23       1.0  0.19131  0.21511  0.13281  1.0000
  H   H24       1.0  0.19132  0.78490  0.63281  1.0000
  C   C1        1.0  0.06521  0.75574  0.06308  1.0000
  C   C2        1.0  0.06523  0.24426  0.56308  1.0000
  C   C3        1.0  0.98491  0.62880  0.06370  1.0000
  C   C4        1.0  0.98491  0.37121  0.56370  1.0000
  C   C5        1.0  0.75984  0.58761  0.00659  1.0000
  C   C6        1.0  0.75986  0.41239  0.50660  1.0000
  C   C7        1.0  0.61342  0.67476  0.94851  1.0000
  C   C8        1.0  0.61345  0.32523  0.44851  1.0000
  C   C9        1.0  0.37606  0.64341  0.88694  1.0000
  C   C10       1.0  0.37610  0.35659  0.38694  1.0000
  C   C11       1.0  0.24476  0.73340  0.83291  1.0000
  C   C12       1.0  0.24478  0.26660  0.33290  1.0000
  C   C13       1.0  0.33870  0.86146  0.83535  1.0000
  C   C14       1.0  0.33871  0.13855  0.33535  1.0000
  C   C15       1.0  0.21197  0.95954  0.78233  1.0000
  C   C16       1.0  0.21198  0.04046  0.28233  1.0000
  C   C17       1.0  0.32118  0.07956  0.79162  1.0000
  C   C18       1.0  0.32117  0.92044  0.29162  1.0000
  C   C19       1.0  0.55521  0.10331  0.85289  1.0000
  C   C20       1.0  0.55520  0.89669  0.35288  1.0000
  C   C21       1.0  0.57210  0.89383  0.89556  1.0000
  C   C22       1.0  0.57213  0.10617  0.39556  1.0000
  C   C23       1.0  0.70876  0.80049  0.95246  1.0000
  C   C24       1.0  0.70879  0.19950  0.45246  1.0000
  C   C25       1.0  0.25235  0.26974  0.00346  1.0000
  C   C26       1.0  0.25234  0.73027  0.50347  1.0000
  C   C27       1.0  0.37453  0.22997  0.09781  1.0000
  C   C28       1.0  0.37454  0.77002  0.59782  1.0000
  C   C29       1.0  0.51350  0.10123  0.09485  1.0000
  C   C30       1.0  0.51351  0.89877  0.59485  1.0000
  C   C31       1.0  0.56762  0.32824  0.14384  1.0000
  C   C32       1.0  0.56763  0.67176  0.64385  1.0000
  N   N1        1.0  0.92940  0.83913  0.00903  1.0000
  N   N2        1.0  0.92942  0.16086  0.50903  1.0000
  N   N3        1.0  0.67679  0.01219  0.90335  1.0000
  N   N4        1.0  0.67679  0.98781  0.40335  1.0000
  O   O1        1.0  0.07405  0.19438  0.96062  1.0000
  O   O2        1.0  0.07405  0.80562  0.46063  1.0000
  O   O3        1.0  0.32196  0.37126  0.97209  1.0000
  O   O4        1.0  0.32196  0.62872  0.47209  1.0000
  O   O5        1.0  0.76996  0.09107  0.11715  1.0000
  O   O6        1.0  0.76997  0.90894  0.61715  1.0000
  O   O7        1.0  0.36194  0.00578  0.06838  1.0000
  O   O8        1.0  0.36195  0.99422  0.56838  1.0000
