data_image0
_chemical_formula_structural       Cu4H18C12I4N4
_chemical_formula_sum              "Cu4 H18 C12 I4 N4"
_cell_length_a       4.19806
_cell_length_b       10.2392
_cell_length_c       12.1715
_cell_angle_alpha    109.372
_cell_angle_beta     94.8398
_cell_angle_gamma    92.8187

_space_group_name_H-M_alt    "P 1"
_space_group_IT_number       1

loop_
  _space_group_symop_operation_xyz
  'x, y, z'

loop_
  _atom_site_type_symbol
  _atom_site_label
  _atom_site_symmetry_multiplicity
  _atom_site_fract_x
  _atom_site_fract_y
  _atom_site_fract_z
  _atom_site_occupancy
  Cu  Cu1       1.0  0.53232  0.11052  0.84587  1.0000
  Cu  Cu2       1.0  0.46767  0.88948  0.15413  1.0000
  Cu  Cu3       1.0  0.98897  0.05258  0.15512  1.0000
  Cu  Cu4       1.0  0.01103  0.94742  0.84489  1.0000
  H   H1        1.0  0.80229  0.14157  0.61912  1.0000
  H   H2        1.0  0.19772  0.85843  0.38088  1.0000
  H   H3        1.0  0.16192  0.05714  0.61420  1.0000
  H   H4        1.0  0.83809  0.94286  0.38580  1.0000
  H   H5        1.0  0.08345  0.15853  0.52215  1.0000
  H   H6        1.0  0.91655  0.84148  0.47785  1.0000
  H   H7        1.0  0.72252  0.43083  0.93198  1.0000
  H   H8        1.0  0.27749  0.56917  0.06802  1.0000
  H   H9        1.0  0.38252  0.60491  0.84022  1.0000
  H   H10       1.0  0.61748  0.39509  0.15978  1.0000
  H   H11       1.0  0.88157  0.55478  0.69568  1.0000
  H   H12       1.0  0.11842  0.44522  0.30432  1.0000
  H   H13       1.0  0.74808  0.38030  0.61163  1.0000
  H   H14       1.0  0.25192  0.61969  0.38837  1.0000
  H   H15       1.0  0.33016  0.54419  0.57105  1.0000
  H   H16       1.0  0.66982  0.45581  0.42895  1.0000
  H   H17       1.0  0.18974  0.37146  0.48323  1.0000
  H   H18       1.0  0.81024  0.62855  0.51677  1.0000
  C   C1        1.0  0.05937  0.15161  0.60937  1.0000
  C   C2        1.0  0.94064  0.84839  0.39063  1.0000
  C   C3        1.0  0.22739  0.27275  0.70383  1.0000
  C   C4        1.0  0.77261  0.72726  0.29616  1.0000
  C   C5        1.0  0.54398  0.40563  0.85682  1.0000
  C   C6        1.0  0.45603  0.59438  0.14317  1.0000
  C   C7        1.0  0.37834  0.49269  0.81291  1.0000
  C   C8        1.0  0.62167  0.50731  0.18709  1.0000
  C   C9        1.0  0.96009  0.45523  0.64140  1.0000
  C   C10       1.0  0.03992  0.54477  0.35860  1.0000
  C   C11       1.0  0.11395  0.47213  0.53738  1.0000
  C   C12       1.0  0.88605  0.52787  0.46262  1.0000
  I   I1        1.0  0.03712  0.19412  0.00428  1.0000
  I   I2        1.0  0.96288  0.80588  0.99572  1.0000
  I   I3        1.0  0.45677  0.85493  0.70650  1.0000
  I   I4        1.0  0.54322  0.14507  0.29350  1.0000
  N   N1        1.0  0.44807  0.26914  0.78905  1.0000
  N   N2        1.0  0.55195  0.73086  0.21095  1.0000
  N   N3        1.0  0.17904  0.40772  0.71685  1.0000
  N   N4        1.0  0.82097  0.59227  0.28315  1.0000
