data_image0
_chemical_formula_structural       Cu16H40C48I16N16
_chemical_formula_sum              "Cu16 H40 C48 I16 N16"
_cell_length_a       4.08038
_cell_length_b       21.4502
_cell_length_c       23.5597
_cell_angle_alpha    115.344
_cell_angle_beta     90.0129
_cell_angle_gamma    95.4307

_space_group_name_H-M_alt    "P 1"
_space_group_IT_number       1

loop_
  _space_group_symop_operation_xyz
  'x, y, z'

loop_
  _atom_site_type_symbol
  _atom_site_label
  _atom_site_symmetry_multiplicity
  _atom_site_fract_x
  _atom_site_fract_y
  _atom_site_fract_z
  _atom_site_occupancy
  Cu  Cu1       1.0  0.40713  0.69568  0.69216  1.0000
  Cu  Cu2       1.0  0.71069  0.30438  0.80780  1.0000
  Cu  Cu3       1.0  0.59287  0.30432  0.30784  1.0000
  Cu  Cu4       1.0  0.28931  0.69562  0.19220  1.0000
  Cu  Cu5       1.0  0.46571  0.07320  0.69271  1.0000
  Cu  Cu6       1.0  0.39245  0.92676  0.80726  1.0000
  Cu  Cu7       1.0  0.53429  0.92680  0.30729  1.0000
  Cu  Cu8       1.0  0.60755  0.07324  0.19274  1.0000
  Cu  Cu9       1.0  0.89870  0.90925  0.73226  1.0000
  Cu  Cu10      1.0  0.98974  0.09076  0.76778  1.0000
  Cu  Cu11      1.0  0.10130  0.09075  0.26774  1.0000
  Cu  Cu12      1.0  0.01026  0.90924  0.23222  1.0000
  Cu  Cu13      1.0  0.89203  0.60719  0.64222  1.0000
  Cu  Cu14      1.0  0.28417  0.39287  0.85769  1.0000
  Cu  Cu15      1.0  0.10798  0.39281  0.35778  1.0000
  Cu  Cu16      1.0  0.71583  0.60713  0.14231  1.0000
  H   H1        1.0  0.76999  0.19794  0.66048  1.0000
  H   H2        1.0  0.57282  0.80196  0.83949  1.0000
  H   H3        1.0  0.23001  0.80206  0.33952  1.0000
  H   H4        1.0  0.42720  0.19804  0.16051  1.0000
  H   H5        1.0  0.17630  0.01267  0.54977  1.0000
  H   H6        1.0  0.16388  0.98728  0.95013  1.0000
  H   H7        1.0  0.82368  0.98733  0.45023  1.0000
  H   H8        1.0  0.83614  0.01272  0.04987  1.0000
  H   H9        1.0  0.34946  0.08199  0.47575  1.0000
  H   H10       1.0  0.26848  0.91813  0.02423  1.0000
  H   H11       1.0  0.65053  0.91801  0.52426  1.0000
  H   H12       1.0  0.73154  0.08188  0.97577  1.0000
  H   H13       1.0  0.88746  0.13366  0.45538  1.0000
  H   H14       1.0  0.75571  0.86625  0.04456  1.0000
  H   H15       1.0  0.11252  0.86633  0.54462  1.0000
  H   H16       1.0  0.24431  0.13375  0.95544  1.0000
  H   H17       1.0  0.16003  0.22573  0.42810  1.0000
  H   H18       1.0  0.93531  0.77404  0.07179  1.0000
  H   H19       1.0  0.83996  0.77427  0.57190  1.0000
  H   H20       1.0  0.06470  0.22595  0.92821  1.0000
  H   H21       1.0  0.15464  0.34834  0.49988  1.0000
  H   H22       1.0  0.80652  0.65149  0.00003  1.0000
  H   H23       1.0  0.84535  0.65166  0.50011  1.0000
  H   H24       1.0  0.19348  0.34851  0.99997  1.0000
  H   H25       1.0  0.59340  0.29014  0.62924  1.0000
  H   H26       1.0  0.30354  0.71003  0.87079  1.0000
  H   H27       1.0  0.40661  0.70986  0.37076  1.0000
  H   H28       1.0  0.69646  0.28997  0.12921  1.0000
  H   H29       1.0  0.05887  0.45078  0.55366  1.0000
  H   H30       1.0  0.60745  0.54915  0.94624  1.0000
  H   H31       1.0  0.94112  0.54922  0.44634  1.0000
  H   H32       1.0  0.39254  0.45085  0.05376  1.0000
  H   H33       1.0  0.59651  0.39306  0.68885  1.0000
  H   H34       1.0  0.20436  0.60715  0.81106  1.0000
  H   H35       1.0  0.40349  0.60694  0.31115  1.0000
  H   H36       1.0  0.79563  0.39285  0.18894  1.0000
  H   H37       1.0  0.61903  0.53457  0.72863  1.0000
  H   H38       1.0  0.08447  0.46562  0.77122  1.0000
  H   H39       1.0  0.38097  0.46543  0.27137  1.0000
  H   H40       1.0  0.91552  0.53438  0.22879  1.0000
  C   C1        1.0  0.62408  0.15718  0.62145  1.0000
  C   C2        1.0  0.46786  0.84277  0.87852  1.0000
  C   C3        1.0  0.37592  0.84282  0.37855  1.0000
  C   C4        1.0  0.53216  0.15723  0.12148  1.0000
  C   C5        1.0  0.32346  0.06165  0.56178  1.0000
  C   C6        1.0  0.26242  0.93833  0.93815  1.0000
  C   C7        1.0  0.67653  0.93835  0.43822  1.0000
  C   C8        1.0  0.73759  0.06167  0.06185  1.0000
  C   C9        1.0  0.40635  0.09501  0.52470  1.0000
  C   C10       1.0  0.31230  0.90501  0.97526  1.0000
  C   C11       1.0  0.59364  0.90499  0.47530  1.0000
  C   C12       1.0  0.68771  0.09499  0.02474  1.0000
  C   C13       1.0  0.73857  0.20765  0.54528  1.0000
  C   C14       1.0  0.53222  0.79235  0.95470  1.0000
  C   C15       1.0  0.26141  0.79235  0.45472  1.0000
  C   C16       1.0  0.46780  0.20765  0.04531  1.0000
  C   C17       1.0  0.88637  0.18822  0.48756  1.0000
  C   C18       1.0  0.69981  0.81171  0.01237  1.0000
  C   C19       1.0  0.11361  0.81178  0.51244  1.0000
  C   C20       1.0  0.30021  0.18829  0.98763  1.0000
  C   C21       1.0  0.03647  0.23975  0.47228  1.0000
  C   C22       1.0  0.79771  0.76009  0.02764  1.0000
  C   C23       1.0  0.96351  0.76024  0.52772  1.0000
  C   C24       1.0  0.20230  0.23991  0.97236  1.0000
  C   C25       1.0  0.03312  0.30951  0.51315  1.0000
  C   C26       1.0  0.72400  0.69036  0.98676  1.0000
  C   C27       1.0  0.96687  0.69049  0.48684  1.0000
  C   C28       1.0  0.27600  0.30964  0.01324  1.0000
  C   C29       1.0  0.87161  0.32835  0.56961  1.0000
  C   C30       1.0  0.54380  0.67162  0.93031  1.0000
  C   C31       1.0  0.12839  0.67164  0.43039  1.0000
  C   C32       1.0  0.45620  0.32838  0.06969  1.0000
  C   C33       1.0  0.72620  0.27724  0.58628  1.0000
  C   C34       1.0  0.44976  0.72280  0.91368  1.0000
  C   C35       1.0  0.27380  0.72276  0.41372  1.0000
  C   C36       1.0  0.55025  0.27721  0.08632  1.0000
  C   C37       1.0  0.93811  0.45464  0.59584  1.0000
  C   C38       1.0  0.48328  0.54534  0.90404  1.0000
  C   C39       1.0  0.06189  0.54536  0.40416  1.0000
  C   C40       1.0  0.51672  0.45466  0.09596  1.0000
  C   C41       1.0  0.69567  0.42553  0.66682  1.0000
  C   C42       1.0  0.27051  0.57460  0.83308  1.0000
  C   C43       1.0  0.30434  0.57446  0.33318  1.0000
  C   C44       1.0  0.72949  0.42540  0.16692  1.0000
  C   C45       1.0  0.70695  0.49568  0.68599  1.0000
  C   C46       1.0  0.21116  0.50446  0.81388  1.0000
  C   C47       1.0  0.29305  0.50431  0.31400  1.0000
  C   C48       1.0  0.78884  0.49555  0.18612  1.0000
  I   I1        1.0  0.92464  0.97932  0.66022  1.0000
  I   I2        1.0  0.94515  0.02071  0.83984  1.0000
  I   I3        1.0  0.07536  0.02068  0.33978  1.0000
  I   I4        1.0  0.05486  0.97929  0.16016  1.0000
  I   I5        1.0  0.89999  0.69455  0.76250  1.0000
  I   I6        1.0  0.20489  0.30553  0.73746  1.0000
  I   I7        1.0  0.10001  0.30546  0.23750  1.0000
  I   I8        1.0  0.79510  0.69447  0.26254  1.0000
  I   I9        1.0  0.36926  0.82365  0.69426  1.0000
  I   I10       1.0  0.54552  0.17638  0.80560  1.0000
  I   I11       1.0  0.63075  0.17635  0.30574  1.0000
  I   I12       1.0  0.45448  0.82362  0.19440  1.0000
  I   I13       1.0  0.39638  0.61265  0.57336  1.0000
  I   I14       1.0  0.78353  0.38745  0.92663  1.0000
  I   I15       1.0  0.60364  0.38735  0.42664  1.0000
  I   I16       1.0  0.21646  0.61255  0.07337  1.0000
  N   N1        1.0  0.46247  0.10053  0.62176  1.0000
  N   N2        1.0  0.36259  0.89942  0.87818  1.0000
  N   N3        1.0  0.53752  0.89947  0.37825  1.0000
  N   N4        1.0  0.63742  0.10058  0.12182  1.0000
  N   N5        1.0  0.59542  0.15600  0.56322  1.0000
  N   N6        1.0  0.44070  0.84404  0.93678  1.0000
  N   N7        1.0  0.40457  0.84400  0.43678  1.0000
  N   N8        1.0  0.55932  0.15597  0.06322  1.0000
  N   N9        1.0  0.84308  0.39934  0.60910  1.0000
  N   N10       1.0  0.44406  0.60069  0.89079  1.0000
  N   N11       1.0  0.15692  0.60066  0.39090  1.0000
  N   N12       1.0  0.55594  0.39932  0.10921  1.0000
  N   N13       1.0  0.85770  0.51314  0.64147  1.0000
  N   N14       1.0  0.34412  0.48690  0.85838  1.0000
  N   N15       1.0  0.14230  0.48686  0.35853  1.0000
  N   N16       1.0  0.65589  0.51310  0.14162  1.0000
