data_image0
_chemical_formula_structural       Cu4H12C16N8Cl8
_chemical_formula_sum              "Cu4 H12 C16 N8 Cl8"
_cell_length_a       3.70805
_cell_length_b       12.5876
_cell_length_c       12.7796
_cell_angle_alpha    90.0001
_cell_angle_beta     90.0001
_cell_angle_gamma    91.858

_space_group_name_H-M_alt    "P 1"
_space_group_IT_number       1

loop_
  _space_group_symop_operation_xyz
  'x, y, z'

loop_
  _atom_site_type_symbol
  _atom_site_label
  _atom_site_symmetry_multiplicity
  _atom_site_fract_x
  _atom_site_fract_y
  _atom_site_fract_z
  _atom_site_occupancy
  Cu  Cu1       1.0  0.45568  0.68221  0.65373  1.0000
  Cu  Cu2       1.0  0.45569  0.18221  0.84627  1.0000
  Cu  Cu3       1.0  0.54432  0.31779  0.34627  1.0000
  Cu  Cu4       1.0  0.54432  0.81779  0.15373  1.0000
  H   H1        1.0  0.21191  0.38528  0.92279  1.0000
  H   H2        1.0  0.21191  0.88528  0.57721  1.0000
  H   H3        1.0  0.78809  0.61472  0.07721  1.0000
  H   H4        1.0  0.78809  0.11472  0.42279  1.0000
  H   H5        1.0  0.68746  0.29120  0.64312  1.0000
  H   H6        1.0  0.68744  0.79120  0.85688  1.0000
  H   H7        1.0  0.31255  0.70880  0.35688  1.0000
  H   H8        1.0  0.31254  0.20880  0.14312  1.0000
  H   H9        1.0  0.70657  0.47859  0.58100  1.0000
  H   H10       1.0  0.70657  0.97859  0.91900  1.0000
  H   H11       1.0  0.29344  0.52141  0.41900  1.0000
  H   H12       1.0  0.29342  0.02141  0.08100  1.0000
  C   C1        1.0  0.33892  0.51075  0.81089  1.0000
  C   C2        1.0  0.33893  0.01074  0.68911  1.0000
  C   C3        1.0  0.66108  0.48926  0.18911  1.0000
  C   C4        1.0  0.66108  0.98926  0.31089  1.0000
  C   C5        1.0  0.32404  0.40634  0.84653  1.0000
  C   C6        1.0  0.32404  0.90634  0.65347  1.0000
  C   C7        1.0  0.67596  0.59366  0.15347  1.0000
  C   C8        1.0  0.67596  0.09366  0.34652  1.0000
  C   C9        1.0  0.58442  0.35372  0.69237  1.0000
  C   C10       1.0  0.58441  0.85372  0.80762  1.0000
  C   C11       1.0  0.41559  0.64628  0.30763  1.0000
  C   C12       1.0  0.41558  0.14628  0.19237  1.0000
  C   C13       1.0  0.59400  0.45789  0.65734  1.0000
  C   C14       1.0  0.59400  0.95788  0.84266  1.0000
  C   C15       1.0  0.40601  0.54212  0.34266  1.0000
  C   C16       1.0  0.40599  0.04212  0.15734  1.0000
  N   N1        1.0  0.46950  0.53860  0.71593  1.0000
  N   N2        1.0  0.46950  0.03860  0.78407  1.0000
  N   N3        1.0  0.53051  0.46140  0.28407  1.0000
  N   N4        1.0  0.53049  0.96140  0.21593  1.0000
  N   N5        1.0  0.44714  0.32656  0.78714  1.0000
  N   N6        1.0  0.44713  0.82656  0.71286  1.0000
  N   N7        1.0  0.55286  0.67344  0.21286  1.0000
  N   N8        1.0  0.55286  0.17344  0.28714  1.0000
  Cl  Cl1       1.0  0.95438  0.68111  0.53770  1.0000
  Cl  Cl2       1.0  0.95439  0.18111  0.96230  1.0000
  Cl  Cl3       1.0  0.04562  0.31889  0.46230  1.0000
  Cl  Cl4       1.0  0.04561  0.81889  0.03770  1.0000
  Cl  Cl5       1.0  0.19580  0.61094  0.89090  1.0000
  Cl  Cl6       1.0  0.19582  0.11094  0.60910  1.0000
  Cl  Cl7       1.0  0.80420  0.38906  0.10910  1.0000
  Cl  Cl8       1.0  0.80419  0.88906  0.39090  1.0000
