data_image0
_chemical_formula_structural       Cu4H12C16Br4N8Cl4
_chemical_formula_sum              "Cu4 H12 C16 Br4 N8 Cl4"
_cell_length_a       3.84651
_cell_length_b       12.651
_cell_length_c       13.0745
_cell_angle_alpha    89.9997
_cell_angle_beta     90.0004
_cell_angle_gamma    89.4881

_space_group_name_H-M_alt    "P 1"
_space_group_IT_number       1

loop_
  _space_group_symop_operation_xyz
  'x, y, z'

loop_
  _atom_site_type_symbol
  _atom_site_label
  _atom_site_symmetry_multiplicity
  _atom_site_fract_x
  _atom_site_fract_y
  _atom_site_fract_z
  _atom_site_occupancy
  Cu  Cu1       1.0  0.55444  0.67881  0.65937  1.0000
  Cu  Cu2       1.0  0.55441  0.17881  0.84064  1.0000
  Cu  Cu3       1.0  0.44559  0.32119  0.34064  1.0000
  Cu  Cu4       1.0  0.44558  0.82119  0.15936  1.0000
  H   H1        1.0  0.79169  0.38211  0.91876  1.0000
  H   H2        1.0  0.79174  0.88212  0.58125  1.0000
  H   H3        1.0  0.20828  0.61788  0.08124  1.0000
  H   H4        1.0  0.20825  0.11788  0.41875  1.0000
  H   H5        1.0  0.32775  0.28845  0.64520  1.0000
  H   H6        1.0  0.32776  0.78845  0.85481  1.0000
  H   H7        1.0  0.67227  0.71155  0.35480  1.0000
  H   H8        1.0  0.67227  0.21155  0.14520  1.0000
  H   H9        1.0  0.30602  0.47577  0.58676  1.0000
  H   H10       1.0  0.30602  0.97577  0.91325  1.0000
  H   H11       1.0  0.69397  0.52424  0.41325  1.0000
  H   H12       1.0  0.69397  0.02423  0.08675  1.0000
  C   C1        1.0  0.66570  0.50752  0.81125  1.0000
  C   C2        1.0  0.66571  0.00753  0.68875  1.0000
  C   C3        1.0  0.33430  0.49248  0.18875  1.0000
  C   C4        1.0  0.33428  0.99248  0.31125  1.0000
  C   C5        1.0  0.68203  0.40327  0.84463  1.0000
  C   C6        1.0  0.68207  0.90328  0.65537  1.0000
  C   C7        1.0  0.31796  0.59672  0.15537  1.0000
  C   C8        1.0  0.31793  0.09672  0.34463  1.0000
  C   C9        1.0  0.42734  0.35098  0.69387  1.0000
  C   C10       1.0  0.42736  0.85099  0.80613  1.0000
  C   C11       1.0  0.57268  0.64902  0.30612  1.0000
  C   C12       1.0  0.57267  0.14902  0.19387  1.0000
  C   C13       1.0  0.41599  0.45504  0.66102  1.0000
  C   C14       1.0  0.41599  0.95504  0.83898  1.0000
  C   C15       1.0  0.58401  0.54496  0.33897  1.0000
  C   C16       1.0  0.58399  0.04496  0.16102  1.0000
  Br  Br1       1.0  0.05489  0.67757  0.53673  1.0000
  Br  Br2       1.0  0.05488  0.17757  0.96328  1.0000
  Br  Br3       1.0  0.94512  0.32243  0.46328  1.0000
  Br  Br4       1.0  0.94512  0.82243  0.03672  1.0000
  N   N1        1.0  0.53692  0.53547  0.71905  1.0000
  N   N2        1.0  0.53693  0.03547  0.78095  1.0000
  N   N3        1.0  0.46307  0.46453  0.28095  1.0000
  N   N4        1.0  0.46306  0.96453  0.21905  1.0000
  N   N5        1.0  0.56294  0.32371  0.78573  1.0000
  N   N6        1.0  0.56297  0.82372  0.71427  1.0000
  N   N7        1.0  0.43706  0.67628  0.21426  1.0000
  N   N8        1.0  0.43704  0.17628  0.28573  1.0000
  Cl  Cl1       1.0  0.80555  0.60724  0.89035  1.0000
  Cl  Cl2       1.0  0.80555  0.10725  0.60966  1.0000
  Cl  Cl3       1.0  0.19445  0.39275  0.10966  1.0000
  Cl  Cl4       1.0  0.19443  0.89275  0.39035  1.0000
