data_image0
_chemical_formula_structural       Cu4H12C16I4N8Cl4
_chemical_formula_sum              "Cu4 H12 C16 I4 N8 Cl4"
_cell_length_a       3.99105
_cell_length_b       10.4207
_cell_length_c       17.6491
_cell_angle_alpha    90
_cell_angle_beta     89.9995
_cell_angle_gamma    89.9998

_space_group_name_H-M_alt    "P 1"
_space_group_IT_number       1

loop_
  _space_group_symop_operation_xyz
  'x, y, z'

loop_
  _atom_site_type_symbol
  _atom_site_label
  _atom_site_symmetry_multiplicity
  _atom_site_fract_x
  _atom_site_fract_y
  _atom_site_fract_z
  _atom_site_occupancy
  Cu  Cu1       1.0  0.59300  0.28250  0.54627  1.0000
  Cu  Cu2       1.0  0.90700  0.71749  0.04628  1.0000
  Cu  Cu3       1.0  0.40700  0.78250  0.95373  1.0000
  Cu  Cu4       1.0  0.09299  0.21749  0.45373  1.0000
  H   H1        1.0  0.40110  0.33890  0.70607  1.0000
  H   H2        1.0  0.09892  0.66108  0.20607  1.0000
  H   H3        1.0  0.59892  0.83890  0.79393  1.0000
  H   H4        1.0  0.90110  0.16110  0.29393  1.0000
  H   H5        1.0  0.76361  0.56258  0.52776  1.0000
  H   H6        1.0  0.73640  0.43741  0.02777  1.0000
  H   H7        1.0  0.23639  0.06258  0.97223  1.0000
  H   H8        1.0  0.26359  0.93742  0.47223  1.0000
  H   H9        1.0  0.36704  0.53671  0.78835  1.0000
  H   H10       1.0  0.13294  0.46329  0.28834  1.0000
  H   H11       1.0  0.63297  0.03671  0.71166  1.0000
  H   H12       1.0  0.86705  0.96330  0.21166  1.0000
  C   C1        1.0  0.47222  0.43336  0.68467  1.0000
  C   C2        1.0  0.02780  0.56664  0.18467  1.0000
  C   C3        1.0  0.52780  0.93336  0.81533  1.0000
  C   C4        1.0  0.97221  0.06664  0.31533  1.0000
  C   C5        1.0  0.67729  0.55639  0.58630  1.0000
  C   C6        1.0  0.82271  0.44360  0.08630  1.0000
  C   C7        1.0  0.32270  0.05639  0.91371  1.0000
  C   C8        1.0  0.17728  0.94360  0.41370  1.0000
  C   C9        1.0  0.66173  0.66361  0.63389  1.0000
  C   C10       1.0  0.83826  0.33639  0.13389  1.0000
  C   C11       1.0  0.33827  0.16361  0.86611  1.0000
  C   C12       1.0  0.16174  0.83639  0.36611  1.0000
  C   C13       1.0  0.45690  0.54243  0.72999  1.0000
  C   C14       1.0  0.04309  0.45757  0.22999  1.0000
  C   C15       1.0  0.54312  0.04243  0.77001  1.0000
  C   C16       1.0  0.95691  0.95757  0.27001  1.0000
  I   I1        1.0  0.59059  0.36398  0.40666  1.0000
  I   I2        1.0  0.90941  0.63602  0.90666  1.0000
  I   I3        1.0  0.40940  0.86398  0.09335  1.0000
  I   I4        1.0  0.09059  0.13602  0.59335  1.0000
  N   N1        1.0  0.58047  0.44088  0.61222  1.0000
  N   N2        1.0  0.91953  0.55911  0.11222  1.0000
  N   N3        1.0  0.41953  0.94088  0.88778  1.0000
  N   N4        1.0  0.08047  0.05912  0.38778  1.0000
  N   N5        1.0  0.55166  0.65861  0.70478  1.0000
  N   N6        1.0  0.94831  0.34139  0.20478  1.0000
  N   N7        1.0  0.44835  0.15861  0.79522  1.0000
  N   N8        1.0  0.05168  0.84140  0.29522  1.0000
  Cl  Cl1       1.0  0.79406  0.81139  0.60020  1.0000
  Cl  Cl2       1.0  0.70590  0.18861  0.10020  1.0000
  Cl  Cl3       1.0  0.20594  0.31139  0.89980  1.0000
  Cl  Cl4       1.0  0.29406  0.68861  0.39979  1.0000
