data_image0
_chemical_formula_structural       CuH34C50N6O6
_chemical_formula_sum              "Cu1 H34 C50 N6 O6"
_cell_length_a       7.02858
_cell_length_b       10.9047
_cell_length_c       13.7688
_cell_angle_alpha    82.5813
_cell_angle_beta     89.6829
_cell_angle_gamma    73.3661

_space_group_name_H-M_alt    "P 1"
_space_group_IT_number       1

loop_
  _space_group_symop_operation_xyz
  'x, y, z'

loop_
  _atom_site_type_symbol
  _atom_site_label
  _atom_site_symmetry_multiplicity
  _atom_site_fract_x
  _atom_site_fract_y
  _atom_site_fract_z
  _atom_site_occupancy
  Cu  Cu1       1.0  0.50000  1.00000  0.00000  1.0000
  H   H1        1.0  0.14449  0.03585  0.92107  1.0000
  H   H2        1.0  0.85551  0.96415  0.07893  1.0000
  H   H3        1.0  0.28222  0.89262  0.48826  1.0000
  H   H4        1.0  0.71778  0.10738  0.51174  1.0000
  H   H5        1.0  0.20811  0.53970  0.63994  1.0000
  H   H6        1.0  0.79189  0.46030  0.36006  1.0000
  H   H7        1.0  0.35427  0.98168  0.36088  1.0000
  H   H8        1.0  0.64575  0.01832  0.63912  1.0000
  H   H9        1.0  0.43583  0.07681  0.19749  1.0000
  H   H10       1.0  0.56418  0.92319  0.80251  1.0000
  H   H11       1.0  0.41376  0.75914  0.06879  1.0000
  H   H12       1.0  0.58623  0.24086  0.93121  1.0000
  H   H13       1.0  0.33356  0.64751  0.22853  1.0000
  H   H14       1.0  0.66644  0.35249  0.77147  1.0000
  H   H15       1.0  0.21538  0.35337  0.63105  1.0000
  H   H16       1.0  0.78462  0.64663  0.36895  1.0000
  H   H17       1.0  0.22266  0.13301  0.60691  1.0000
  H   H18       1.0  0.77734  0.86699  0.39309  1.0000
  H   H19       1.0  0.26481  0.21023  0.30653  1.0000
  H   H20       1.0  0.73518  0.78977  0.69347  1.0000
  H   H21       1.0  0.26958  0.43541  0.31875  1.0000
  H   H22       1.0  0.73042  0.56459  0.68125  1.0000
  H   H23       1.0  0.08193  0.97383  0.60287  1.0000
  H   H24       1.0  0.91806  0.02618  0.39713  1.0000
  H   H25       1.0  0.06391  0.06966  0.75798  1.0000
  H   H26       1.0  0.93609  0.93035  0.24202  1.0000
  H   H27       1.0  0.33185  0.69209  0.91606  1.0000
  H   H28       1.0  0.66814  0.30791  0.08394  1.0000
  H   H29       1.0  0.35527  0.59656  0.76124  1.0000
  H   H30       1.0  0.64472  0.40344  0.23876  1.0000
  H   H31       1.0  0.72534  0.64126  0.88785  1.0000
  H   H32       1.0  0.27467  0.35874  0.11215  1.0000
  H   H33       1.0  0.87744  0.40758  0.86564  1.0000
  H   H34       1.0  0.12257  0.59242  0.13436  1.0000
  C   C1        1.0  0.24154  0.72364  0.57718  1.0000
  C   C2        1.0  0.75845  0.27636  0.42282  1.0000
  C   C3        1.0  0.27042  0.79501  0.48869  1.0000
  C   C4        1.0  0.72959  0.20499  0.51131  1.0000
  C   C5        1.0  0.29365  0.73738  0.40261  1.0000
  C   C6        1.0  0.70635  0.26262  0.59739  1.0000
  C   C7        1.0  0.25342  0.54755  0.48389  1.0000
  C   C8        1.0  0.74658  0.45245  0.51611  1.0000
  C   C9        1.0  0.23407  0.59724  0.57336  1.0000
  C   C10       1.0  0.76593  0.40277  0.42664  1.0000
  C   C11       1.0  0.33879  0.80396  0.30842  1.0000
  C   C12       1.0  0.66122  0.19603  0.69158  1.0000
  C   C13       1.0  0.36789  0.92695  0.29895  1.0000
  C   C14       1.0  0.63212  0.07304  0.70105  1.0000
  C   C15       1.0  0.41293  0.98151  0.20815  1.0000
  C   C16       1.0  0.58708  0.01848  0.79185  1.0000
  C   C17       1.0  0.40134  0.80304  0.13594  1.0000
  C   C18       1.0  0.59866  0.19696  0.86406  1.0000
  C   C19       1.0  0.35646  0.74252  0.22398  1.0000
  C   C20       1.0  0.64354  0.25748  0.77602  1.0000
  C   C21       1.0  0.24488  0.41485  0.47585  1.0000
  C   C22       1.0  0.75512  0.58515  0.52415  1.0000
  C   C23       1.0  0.22780  0.32736  0.55703  1.0000
  C   C24       1.0  0.77220  0.67264  0.44296  1.0000
  C   C25       1.0  0.23112  0.20233  0.54359  1.0000
  C   C26       1.0  0.76887  0.79767  0.45641  1.0000
  C   C27       1.0  0.25702  0.24453  0.37798  1.0000
  C   C28       1.0  0.74297  0.75547  0.62202  1.0000
  C   C29       1.0  0.25741  0.37073  0.38409  1.0000
  C   C30       1.0  0.74259  0.62927  0.61591  1.0000
  C   C31       1.0  0.22341  0.77858  0.66981  1.0000
  C   C32       1.0  0.77658  0.22143  0.33019  1.0000
  C   C33       1.0  0.14160  0.91206  0.67102  1.0000
  C   C34       1.0  0.85840  0.08795  0.32898  1.0000
  C   C35       1.0  0.12901  0.96621  0.75757  1.0000
  C   C36       1.0  0.87099  0.03379  0.24243  1.0000
  C   C37       1.0  0.19907  0.88742  0.84672  1.0000
  C   C38       1.0  0.80093  0.11258  0.15328  1.0000
  C   C39       1.0  0.27822  0.75329  0.84701  1.0000
  C   C40       1.0  0.72177  0.24672  0.15299  1.0000
  C   C41       1.0  0.28940  0.70046  0.75984  1.0000
  C   C42       1.0  0.71060  0.29955  0.24016  1.0000
  C   C43       1.0  0.82814  0.76850  0.02674  1.0000
  C   C44       1.0  0.17186  0.23150  0.97326  1.0000
  C   C45       1.0  0.91651  0.62979  0.01235  1.0000
  C   C46       1.0  0.08350  0.37021  0.98766  1.0000
  C   C47       1.0  0.84570  0.57849  0.93651  1.0000
  C   C48       1.0  0.15430  0.42151  0.06349  1.0000
  C   C49       1.0  0.92897  0.44954  0.92433  1.0000
  C   C50       1.0  0.07103  0.55046  0.07567  1.0000
  N   N1        1.0  0.28353  0.61652  0.40021  1.0000
  N   N2        1.0  0.71648  0.38348  0.59979  1.0000
  N   N3        1.0  0.43062  0.92061  0.12809  1.0000
  N   N4        1.0  0.56938  0.07938  0.87191  1.0000
  N   N5        1.0  0.24710  0.15899  0.45605  1.0000
  N   N6        1.0  0.75289  0.84101  0.54395  1.0000
  O   O1        1.0  0.67232  0.83009  0.97257  1.0000
  O   O2        1.0  0.32768  0.16991  0.02743  1.0000
  O   O3        1.0  0.90711  0.81462  0.08971  1.0000
  O   O4        1.0  0.09291  0.18538  0.91028  1.0000
  O   O5        1.0  0.19370  0.93657  0.93202  1.0000
  O   O6        1.0  0.80630  0.06344  0.06798  1.0000
