data_image0
_chemical_formula_structural       K4Zn4P8H36C16O24
_chemical_formula_sum              "K4 Zn4 P8 H36 C16 O24"
_cell_length_a       4.82665
_cell_length_b       14.2136
_cell_length_c       14.2975
_cell_angle_alpha    91.243
_cell_angle_beta     89.9996
_cell_angle_gamma    89.9998

_space_group_name_H-M_alt    "P 1"
_space_group_IT_number       1

loop_
  _space_group_symop_operation_xyz
  'x, y, z'

loop_
  _atom_site_type_symbol
  _atom_site_label
  _atom_site_symmetry_multiplicity
  _atom_site_fract_x
  _atom_site_fract_y
  _atom_site_fract_z
  _atom_site_occupancy
  K   K1        1.0  0.78184  0.82382  0.11932  1.0000
  K   K2        1.0  0.28184  0.67618  0.38069  1.0000
  K   K3        1.0  0.21816  0.17618  0.88068  1.0000
  K   K4        1.0  0.71816  0.32382  0.61932  1.0000
  Zn  Zn1       1.0  0.79775  0.50757  0.38772  1.0000
  Zn  Zn2       1.0  0.29776  0.99242  0.11228  1.0000
  Zn  Zn3       1.0  0.20224  0.49242  0.61228  1.0000
  Zn  Zn4       1.0  0.70224  0.00758  0.88772  1.0000
  P   P1        1.0  0.81379  0.59538  0.18386  1.0000
  P   P2        1.0  0.31381  0.90462  0.31614  1.0000
  P   P3        1.0  0.18620  0.40462  0.81614  1.0000
  P   P4        1.0  0.68620  0.09538  0.68386  1.0000
  P   P5        1.0  0.80495  0.11347  0.07780  1.0000
  P   P6        1.0  0.30494  0.38653  0.42219  1.0000
  P   P7        1.0  0.19505  0.88654  0.92219  1.0000
  P   P8        1.0  0.69505  0.61347  0.57781  1.0000
  H   H1        1.0  0.37695  0.64018  0.14665  1.0000
  H   H2        1.0  0.87696  0.85982  0.35336  1.0000
  H   H3        1.0  0.62305  0.35982  0.85336  1.0000
  H   H4        1.0  0.12305  0.14018  0.64664  1.0000
  H   H5        1.0  0.95446  0.49312  0.05991  1.0000
  H   H6        1.0  0.45447  0.00689  0.44009  1.0000
  H   H7        1.0  0.04553  0.50689  0.94009  1.0000
  H   H8        1.0  0.54553  0.99312  0.55991  1.0000
  H   H9        1.0  0.12141  0.46917  0.16670  1.0000
  H   H10       1.0  0.62142  0.03083  0.33330  1.0000
  H   H11       1.0  0.87858  0.53083  0.83330  1.0000
  H   H12       1.0  0.37858  0.96917  0.66670  1.0000
  H   H13       1.0  0.70275  0.38782  0.22548  1.0000
  H   H14       1.0  0.20276  0.11218  0.27452  1.0000
  H   H15       1.0  0.29725  0.61218  0.77452  1.0000
  H   H16       1.0  0.79724  0.88782  0.72548  1.0000
  H   H17       1.0  0.51675  0.41451  0.12311  1.0000
  H   H18       1.0  0.01676  0.08549  0.37689  1.0000
  H   H19       1.0  0.48324  0.58549  0.87689  1.0000
  H   H20       1.0  0.98325  0.91451  0.62311  1.0000
  H   H21       1.0  0.81161  0.31504  0.02554  1.0000
  H   H22       1.0  0.31161  0.18496  0.47446  1.0000
  H   H23       1.0  0.18839  0.68496  0.97446  1.0000
  H   H24       1.0  0.68839  0.81504  0.52554  1.0000
  H   H25       1.0  0.06012  0.30366  0.11511  1.0000
  H   H26       1.0  0.56012  0.19634  0.38489  1.0000
  H   H27       1.0  0.93988  0.69634  0.88489  1.0000
  H   H28       1.0  0.43989  0.80366  0.61511  1.0000
  H   H29       1.0  0.72968  0.21224  0.21143  1.0000
  H   H30       1.0  0.22968  0.28776  0.28857  1.0000
  H   H31       1.0  0.27032  0.78776  0.78857  1.0000
  H   H32       1.0  0.77032  0.71224  0.71142  1.0000
  H   H33       1.0  0.46586  0.22423  0.12622  1.0000
  H   H34       1.0  0.96587  0.27577  0.37378  1.0000
  H   H35       1.0  0.53414  0.77577  0.87378  1.0000
  H   H36       1.0  0.03414  0.72423  0.62622  1.0000
  C   C1        1.0  0.91800  0.48271  0.13483  1.0000
  C   C2        1.0  0.41802  0.01729  0.36517  1.0000
  C   C3        1.0  0.08199  0.51729  0.86517  1.0000
  C   C4        1.0  0.58199  0.98271  0.63483  1.0000
  C   C5        1.0  0.72523  0.39923  0.14990  1.0000
  C   C6        1.0  0.22524  0.10077  0.35010  1.0000
  C   C7        1.0  0.27476  0.60077  0.85010  1.0000
  C   C8        1.0  0.77477  0.89923  0.64990  1.0000
  C   C9        1.0  0.83604  0.30946  0.10182  1.0000
  C   C10       1.0  0.33605  0.19054  0.39818  1.0000
  C   C11       1.0  0.16396  0.69054  0.89818  1.0000
  C   C12       1.0  0.66396  0.80946  0.60182  1.0000
  C   C13       1.0  0.69150  0.22081  0.13615  1.0000
  C   C14       1.0  0.19150  0.27919  0.36385  1.0000
  C   C15       1.0  0.30850  0.77919  0.86385  1.0000
  C   C16       1.0  0.80850  0.72081  0.63614  1.0000
  O   O1        1.0  0.06246  0.66115  0.17987  1.0000
  O   O2        1.0  0.56248  0.83885  0.32013  1.0000
  O   O3        1.0  0.93754  0.33885  0.82013  1.0000
  O   O4        1.0  0.43754  0.16115  0.67987  1.0000
  O   O5        1.0  0.57303  0.63684  0.11945  1.0000
  O   O6        1.0  0.07304  0.86316  0.38056  1.0000
  O   O7        1.0  0.42696  0.36317  0.88056  1.0000
  O   O8        1.0  0.92697  0.13684  0.61944  1.0000
  O   O9        1.0  0.68637  0.58216  0.28085  1.0000
  O   O10       1.0  0.18639  0.91783  0.21915  1.0000
  O   O11       1.0  0.31363  0.41784  0.71915  1.0000
  O   O12       1.0  0.81363  0.08216  0.78085  1.0000
  O   O13       1.0  0.12536  0.11129  0.08275  1.0000
  O   O14       1.0  0.62535  0.38871  0.41725  1.0000
  O   O15       1.0  0.87464  0.88871  0.91725  1.0000
  O   O16       1.0  0.37464  0.61129  0.58276  1.0000
  O   O17       1.0  0.70836  0.11822  0.97479  1.0000
  O   O18       1.0  0.20834  0.38178  0.52521  1.0000
  O   O19       1.0  0.29164  0.88178  0.02521  1.0000
  O   O20       1.0  0.79164  0.61822  0.47479  1.0000
  O   O21       1.0  0.68873  0.02693  0.12847  1.0000
  O   O22       1.0  0.18873  0.47307  0.37153  1.0000
  O   O23       1.0  0.31126  0.97307  0.87153  1.0000
  O   O24       1.0  0.81126  0.52693  0.62847  1.0000
