data_image0
_chemical_formula_structural       Na4Zn4P8H20C8O24
_chemical_formula_sum              "Na4 Zn4 P8 H20 C8 O24"
_cell_length_a       5.28988
_cell_length_b       8.57316
_cell_length_c       16.1143
_cell_angle_alpha    90
_cell_angle_beta     89.9999
_cell_angle_gamma    90.973

_space_group_name_H-M_alt    "P 1"
_space_group_IT_number       1

loop_
  _space_group_symop_operation_xyz
  'x, y, z'

loop_
  _atom_site_type_symbol
  _atom_site_label
  _atom_site_symmetry_multiplicity
  _atom_site_fract_x
  _atom_site_fract_y
  _atom_site_fract_z
  _atom_site_occupancy
  Na  Na1       1.0  0.42144  0.67568  0.85109  1.0000
  Na  Na2       1.0  0.07856  0.82433  0.35109  1.0000
  Na  Na3       1.0  0.57856  0.32432  0.14891  1.0000
  Na  Na4       1.0  0.92144  0.17568  0.64891  1.0000
  Zn  Zn1       1.0  0.91346  0.89003  0.81210  1.0000
  Zn  Zn2       1.0  0.58653  0.60997  0.31210  1.0000
  Zn  Zn3       1.0  0.08654  0.10997  0.18790  1.0000
  Zn  Zn4       1.0  0.41346  0.39003  0.68790  1.0000
  P   P1        1.0  0.88864  0.71942  0.97976  1.0000
  P   P2        1.0  0.61136  0.78059  0.47976  1.0000
  P   P3        1.0  0.11139  0.28058  0.02024  1.0000
  P   P4        1.0  0.38860  0.21942  0.52024  1.0000
  P   P5        1.0  0.57686  0.92399  0.20953  1.0000
  P   P6        1.0  0.92314  0.57600  0.70952  1.0000
  P   P7        1.0  0.42314  0.07601  0.79047  1.0000
  P   P8        1.0  0.07686  0.42399  0.29047  1.0000
  H   H1        1.0  0.74752  0.47468  0.98721  1.0000
  H   H2        1.0  0.75248  0.02532  0.48722  1.0000
  H   H3        1.0  0.25249  0.52532  0.01279  1.0000
  H   H4        1.0  0.24752  0.97468  0.51279  1.0000
  H   H5        1.0  0.88652  0.66794  0.12575  1.0000
  H   H6        1.0  0.61349  0.83205  0.62576  1.0000
  H   H7        1.0  0.11348  0.33206  0.87425  1.0000
  H   H8        1.0  0.38651  0.16795  0.37425  1.0000
  H   H9        1.0  0.99310  0.85749  0.09999  1.0000
  H   H10       1.0  0.50691  0.64251  0.59999  1.0000
  H   H11       1.0  0.00690  0.14251  0.90001  1.0000
  H   H12       1.0  0.49309  0.35749  0.40002  1.0000
  H   H13       1.0  0.52355  0.92243  0.06265  1.0000
  H   H14       1.0  0.97643  0.57756  0.56265  1.0000
  H   H15       1.0  0.47644  0.07757  0.93735  1.0000
  H   H16       1.0  0.02354  0.42243  0.43735  1.0000
  H   H17       1.0  0.43587  0.74041  0.10581  1.0000
  H   H18       1.0  0.06414  0.75958  0.60580  1.0000
  H   H19       1.0  0.56413  0.25959  0.89419  1.0000
  H   H20       1.0  0.93586  0.24041  0.39419  1.0000
  C   C1        1.0  0.84291  0.77026  0.08742  1.0000
  C   C2        1.0  0.65709  0.72973  0.58742  1.0000
  C   C3        1.0  0.15709  0.22974  0.91258  1.0000
  C   C4        1.0  0.34291  0.27027  0.41258  1.0000
  C   C5        1.0  0.58063  0.83369  0.10782  1.0000
  C   C6        1.0  0.91936  0.66630  0.60782  1.0000
  C   C7        1.0  0.41937  0.16631  0.89218  1.0000
  C   C8        1.0  0.08063  0.33369  0.39218  1.0000
  O   O1        1.0  0.80017  0.85756  0.92730  1.0000
  O   O2        1.0  0.69983  0.64244  0.42730  1.0000
  O   O3        1.0  0.19986  0.14244  0.07270  1.0000
  O   O4        1.0  0.30016  0.35756  0.57270  1.0000
  O   O5        1.0  0.16154  0.67121  0.96664  1.0000
  O   O6        1.0  0.33847  0.82880  0.46664  1.0000
  O   O7        1.0  0.83847  0.32879  0.03337  1.0000
  O   O8        1.0  0.66154  0.17121  0.53337  1.0000
  O   O9        1.0  0.70057  0.57769  0.95815  1.0000
  O   O10       1.0  0.79943  0.92232  0.45816  1.0000
  O   O11       1.0  0.29945  0.42231  0.04184  1.0000
  O   O12       1.0  0.20056  0.07769  0.54184  1.0000
  O   O13       1.0  0.72447  0.08154  0.20353  1.0000
  O   O14       1.0  0.77552  0.41846  0.70353  1.0000
  O   O15       1.0  0.27553  0.91846  0.79647  1.0000
  O   O16       1.0  0.22447  0.58154  0.29647  1.0000
  O   O17       1.0  0.30014  0.95067  0.23702  1.0000
  O   O18       1.0  0.19985  0.54933  0.73702  1.0000
  O   O19       1.0  0.69986  0.04933  0.76298  1.0000
  O   O20       1.0  0.80013  0.45067  0.26298  1.0000
  O   O21       1.0  0.70861  0.81394  0.27046  1.0000
  O   O22       1.0  0.79139  0.68606  0.77046  1.0000
  O   O23       1.0  0.29139  0.18605  0.72954  1.0000
  O   O24       1.0  0.20861  0.31394  0.22954  1.0000
