data_image0
_chemical_formula_structural       Zn4H32C32N4Cl8O8
_chemical_formula_sum              "Zn4 H32 C32 N4 Cl8 O8"
_cell_length_a       6.72877
_cell_length_b       12.0809
_cell_length_c       12.8118
_cell_angle_alpha    90
_cell_angle_beta     90
_cell_angle_gamma    95.2298

_space_group_name_H-M_alt    "P 1"
_space_group_IT_number       1

loop_
  _space_group_symop_operation_xyz
  'x, y, z'

loop_
  _atom_site_type_symbol
  _atom_site_label
  _atom_site_symmetry_multiplicity
  _atom_site_fract_x
  _atom_site_fract_y
  _atom_site_fract_z
  _atom_site_occupancy
  Zn  Zn1       1.0  0.92551  0.65363  0.49332  1.0000
  Zn  Zn2       1.0  0.57449  0.84637  0.99332  1.0000
  Zn  Zn3       1.0  0.07449  0.34637  0.50668  1.0000
  Zn  Zn4       1.0  0.42551  0.15363  0.00668  1.0000
  H   H1        1.0  0.99941  0.33425  0.89938  1.0000
  H   H2        1.0  0.50059  0.16575  0.39938  1.0000
  H   H3        1.0  0.00059  0.66575  0.10062  1.0000
  H   H4        1.0  0.49941  0.83425  0.60062  1.0000
  H   H5        1.0  0.18087  0.67786  0.97950  1.0000
  H   H6        1.0  0.31913  0.82214  0.47950  1.0000
  H   H7        1.0  0.81913  0.32214  0.02050  1.0000
  H   H8        1.0  0.68087  0.17786  0.52050  1.0000
  H   H9        1.0  0.40055  0.68595  0.82519  1.0000
  H   H10       1.0  0.09945  0.81405  0.32519  1.0000
  H   H11       1.0  0.59945  0.31405  0.17481  1.0000
  H   H12       1.0  0.90055  0.18595  0.67481  1.0000
  H   H13       1.0  0.73512  0.50855  0.77811  1.0000
  H   H14       1.0  0.76488  0.99145  0.27811  1.0000
  H   H15       1.0  0.26488  0.49145  0.22189  1.0000
  H   H16       1.0  0.23512  0.00855  0.72189  1.0000
  H   H17       1.0  0.59910  0.38144  0.74531  1.0000
  H   H18       1.0  0.90090  0.11856  0.24531  1.0000
  H   H19       1.0  0.40090  0.61856  0.25469  1.0000
  H   H20       1.0  0.09910  0.88144  0.75469  1.0000
  H   H21       1.0  0.23499  0.35581  0.74947  1.0000
  H   H22       1.0  0.26501  0.14419  0.24947  1.0000
  H   H23       1.0  0.76501  0.64419  0.25053  1.0000
  H   H24       1.0  0.73499  0.85581  0.75053  1.0000
  H   H25       1.0  0.50262  0.61695  0.67875  1.0000
  H   H26       1.0  0.99738  0.88306  0.17875  1.0000
  H   H27       1.0  0.49738  0.38306  0.32125  1.0000
  H   H28       1.0  0.00262  0.11694  0.82125  1.0000
  H   H29       1.0  0.37916  0.49455  0.62550  1.0000
  H   H30       1.0  0.12084  0.00545  0.12550  1.0000
  H   H31       1.0  0.62084  0.50546  0.37449  1.0000
  H   H32       1.0  0.87916  0.99454  0.87450  1.0000
  C   C1        1.0  0.77533  0.45747  0.62172  1.0000
  C   C2        1.0  0.72467  0.04253  0.12172  1.0000
  C   C3        1.0  0.22467  0.54253  0.37828  1.0000
  C   C4        1.0  0.27533  0.95747  0.87828  1.0000
  C   C5        1.0  0.06821  0.50433  0.95471  1.0000
  C   C6        1.0  0.43179  0.99567  0.45471  1.0000
  C   C7        1.0  0.93179  0.49567  0.04529  1.0000
  C   C8        1.0  0.56821  0.00433  0.54529  1.0000
  C   C9        1.0  0.08621  0.41357  0.88773  1.0000
  C   C10       1.0  0.41379  0.08643  0.38773  1.0000
  C   C11       1.0  0.91379  0.58643  0.11227  1.0000
  C   C12       1.0  0.58621  0.91357  0.61227  1.0000
  C   C13       1.0  0.18419  0.60383  0.93167  1.0000
  C   C14       1.0  0.31581  0.89617  0.43167  1.0000
  C   C15       1.0  0.81581  0.39617  0.06833  1.0000
  C   C16       1.0  0.68419  0.10383  0.56833  1.0000
  C   C17       1.0  0.30939  0.61036  0.84600  1.0000
  C   C18       1.0  0.19061  0.88964  0.34600  1.0000
  C   C19       1.0  0.69061  0.38964  0.15400  1.0000
  C   C20       1.0  0.80939  0.11036  0.65400  1.0000
  C   C21       1.0  0.64304  0.46579  0.71642  1.0000
  C   C22       1.0  0.85696  0.03421  0.21642  1.0000
  C   C23       1.0  0.35696  0.53422  0.28358  1.0000
  C   C24       1.0  0.14304  0.96578  0.78358  1.0000
  C   C25       1.0  0.21496  0.42352  0.80370  1.0000
  C   C26       1.0  0.28504  0.07648  0.30370  1.0000
  C   C27       1.0  0.78504  0.57648  0.19629  1.0000
  C   C28       1.0  0.71496  0.92352  0.69630  1.0000
  C   C29       1.0  0.46177  0.52869  0.69368  1.0000
  C   C30       1.0  0.03823  0.97131  0.19368  1.0000
  C   C31       1.0  0.53823  0.47131  0.30632  1.0000
  C   C32       1.0  0.96177  0.02869  0.80632  1.0000
  N   N1        1.0  0.32418  0.52105  0.78406  1.0000
  N   N2        1.0  0.17582  0.97895  0.28406  1.0000
  N   N3        1.0  0.67582  0.47895  0.21594  1.0000
  N   N4        1.0  0.82418  0.02105  0.71594  1.0000
  Cl  Cl1       1.0  0.72023  0.75938  0.40868  1.0000
  Cl  Cl2       1.0  0.77977  0.74062  0.90868  1.0000
  Cl  Cl3       1.0  0.27977  0.24062  0.59132  1.0000
  Cl  Cl4       1.0  0.22023  0.25938  0.09131  1.0000
  Cl  Cl5       1.0  0.10541  0.71614  0.63048  1.0000
  Cl  Cl6       1.0  0.39459  0.78386  0.13048  1.0000
  Cl  Cl7       1.0  0.89459  0.28386  0.36952  1.0000
  Cl  Cl8       1.0  0.60541  0.21614  0.86952  1.0000
  O   O1        1.0  0.90341  0.38606  0.62723  1.0000
  O   O2        1.0  0.59658  0.11394  0.12723  1.0000
  O   O3        1.0  0.09658  0.61394  0.37277  1.0000
  O   O4        1.0  0.40342  0.88605  0.87277  1.0000
  O   O5        1.0  0.75240  0.52058  0.54407  1.0000
  O   O6        1.0  0.74760  0.97942  0.04407  1.0000
  O   O7        1.0  0.24760  0.47942  0.45593  1.0000
  O   O8        1.0  0.25240  0.02058  0.95593  1.0000
