data_image0
_chemical_formula_structural       Ni4H8C16S4N8O20
_chemical_formula_sum              "Ni4 H8 C16 S4 N8 O20"
_cell_length_a       7.15148
_cell_length_b       7.1718
_cell_length_c       12.9622
_cell_angle_alpha    91.0144
_cell_angle_beta     89.9909
_cell_angle_gamma    89.992

_space_group_name_H-M_alt    "P 1"
_space_group_IT_number       1

loop_
  _space_group_symop_operation_xyz
  'x, y, z'

loop_
  _atom_site_type_symbol
  _atom_site_label
  _atom_site_symmetry_multiplicity
  _atom_site_fract_x
  _atom_site_fract_y
  _atom_site_fract_z
  _atom_site_occupancy
  Ni  Ni1       1.0  0.50319  0.72461  0.67969  1.0000
  Ni  Ni2       1.0  0.00326  0.27534  0.32033  1.0000
  Ni  Ni3       1.0  0.49876  0.79215  0.18082  1.0000
  Ni  Ni4       1.0  0.99874  0.20784  0.81921  1.0000
  H   H1        1.0  0.16973  0.59426  0.73412  1.0000
  H   H2        1.0  0.66988  0.40588  0.26583  1.0000
  H   H3        1.0  0.14364  0.71776  0.63044  1.0000
  H   H4        1.0  0.64372  0.28242  0.36951  1.0000
  H   H5        1.0  0.49191  0.14345  0.13384  1.0000
  H   H6        1.0  0.99191  0.85657  0.86610  1.0000
  H   H7        1.0  0.37083  0.11690  0.23816  1.0000
  H   H8        1.0  0.87067  0.88321  0.76186  1.0000
  C   C1        1.0  0.83915  0.79609  0.56457  1.0000
  C   C2        1.0  0.33932  0.20401  0.43541  1.0000
  C   C3        1.0  0.68655  0.77282  0.48527  1.0000
  C   C4        1.0  0.18670  0.22731  0.51474  1.0000
  C   C5        1.0  0.67549  0.80951  0.37828  1.0000
  C   C6        1.0  0.17558  0.19058  0.62174  1.0000
  C   C7        1.0  0.80578  0.90856  0.30727  1.0000
  C   C8        1.0  0.30581  0.09137  0.69273  1.0000
  C   C9        1.0  0.58513  0.45084  0.07191  1.0000
  C   C10       1.0  0.08515  0.54911  0.92811  1.0000
  C   C11       1.0  0.56877  0.59539  0.98966  1.0000
  C   C12       1.0  0.06878  0.40452  0.01033  1.0000
  C   C13       1.0  0.56592  0.58092  0.88038  1.0000
  C   C14       1.0  0.06600  0.41897  0.11963  1.0000
  C   C15       1.0  0.63365  0.43054  0.80676  1.0000
  C   C16       1.0  0.13374  0.56937  0.19323  1.0000
  S   S1        1.0  0.37123  0.68384  0.42840  1.0000
  S   S2        1.0  0.87131  0.31622  0.57166  1.0000
  S   S3        1.0  0.48096  0.90332  0.92590  1.0000
  S   S4        1.0  0.98103  0.09660  0.07413  1.0000
  N   N1        1.0  0.52602  0.70340  0.52102  1.0000
  N   N2        1.0  0.02612  0.29669  0.47899  1.0000
  N   N3        1.0  0.50833  0.76531  0.33799  1.0000
  N   N4        1.0  0.00838  0.23476  0.66207  1.0000
  N   N5        1.0  0.52963  0.76942  0.02286  1.0000
  N   N6        1.0  0.02959  0.23049  0.97713  1.0000
  N   N7        1.0  0.51394  0.74139  0.83680  1.0000
  N   N8        1.0  0.01407  0.25850  0.16324  1.0000
  O   O1        1.0  0.77891  0.79125  0.65838  1.0000
  O   O2        1.0  0.27898  0.20882  0.34162  1.0000
  O   O3        1.0  0.00695  0.81046  0.53955  1.0000
  O   O4        1.0  0.50713  0.18967  0.46041  1.0000
  O   O5        1.0  0.93404  0.00435  0.34831  1.0000
  O   O6        1.0  0.43398  0.99548  0.65163  1.0000
  O   O7        1.0  0.76596  0.89642  0.21134  1.0000
  O   O8        1.0  0.26592  0.10343  0.78866  1.0000
  O   O9        1.0  0.23219  0.63753  0.66990  1.0000
  O   O10       1.0  0.73231  0.36265  0.33007  1.0000
  O   O11       1.0  0.58461  0.51862  0.16494  1.0000
  O   O12       1.0  0.08479  0.48131  0.83507  1.0000
  O   O13       1.0  0.58946  0.28123  0.04874  1.0000
  O   O14       1.0  0.08937  0.71870  0.95132  1.0000
  O   O15       1.0  0.72816  0.29960  0.84343  1.0000
  O   O16       1.0  0.22831  0.70021  0.15652  1.0000
  O   O17       1.0  0.59731  0.45664  0.71167  1.0000
  O   O18       1.0  0.09726  0.54331  0.28831  1.0000
  O   O19       1.0  0.40527  0.05694  0.17059  1.0000
  O   O20       1.0  0.90515  0.94310  0.82944  1.0000
