data_image0
_chemical_formula_structural       Na2H26C12S2O18
_chemical_formula_sum              "Na2 H26 C12 S2 O18"
_cell_length_a       4.83236
_cell_length_b       4.945
_cell_length_c       21.3008
_cell_angle_alpha    90.0007
_cell_angle_beta     95.1977
_cell_angle_gamma    90.0015

_space_group_name_H-M_alt    "P 1"
_space_group_IT_number       1

loop_
  _space_group_symop_operation_xyz
  'x, y, z'

loop_
  _atom_site_type_symbol
  _atom_site_label
  _atom_site_symmetry_multiplicity
  _atom_site_fract_x
  _atom_site_fract_y
  _atom_site_fract_z
  _atom_site_occupancy
  Na  Na1       1.0  0.26626  0.04562  0.94887  1.0000
  Na  Na2       1.0  0.73376  0.54561  0.05113  1.0000
  H   H1        1.0  0.40302  0.62053  0.82525  1.0000
  H   H2        1.0  0.59699  0.12053  0.17475  1.0000
  H   H3        1.0  0.86279  0.58612  0.77766  1.0000
  H   H4        1.0  0.13722  0.08611  0.22234  1.0000
  H   H5        1.0  0.40732  0.19544  0.72519  1.0000
  H   H6        1.0  0.59267  0.69544  0.27481  1.0000
  H   H7        1.0  0.86550  0.16244  0.67755  1.0000
  H   H8        1.0  0.13450  0.66244  0.32245  1.0000
  H   H9        1.0  0.38647  0.40533  0.59155  1.0000
  H   H10       1.0  0.61353  0.90534  0.40844  1.0000
  H   H11       1.0  0.82988  0.35914  0.53887  1.0000
  H   H12       1.0  0.17011  0.85915  0.46113  1.0000
  H   H13       1.0  0.55628  0.14521  0.50723  1.0000
  H   H14       1.0  0.44371  0.64523  0.49277  1.0000
  H   H15       1.0  0.22170  0.21246  0.82838  1.0000
  H   H16       1.0  0.77829  0.71246  0.17162  1.0000
  H   H17       1.0  0.82996  0.05104  0.82323  1.0000
  H   H18       1.0  0.17002  0.55103  0.17676  1.0000
  H   H19       1.0  0.44857  0.73782  0.68256  1.0000
  H   H20       1.0  0.55144  0.23783  0.31744  1.0000
  H   H21       1.0  0.04500  0.57330  0.67425  1.0000
  H   H22       1.0  0.95501  0.07330  0.32574  1.0000
  H   H23       1.0  0.19977  0.99633  0.59497  1.0000
  H   H24       1.0  0.80021  0.49635  0.40503  1.0000
  H   H25       1.0  0.80639  0.82347  0.58797  1.0000
  H   H26       1.0  0.19360  0.32348  0.41203  1.0000
  C   C1        1.0  0.54947  0.45350  0.83691  1.0000
  C   C2        1.0  0.45053  0.95351  0.16309  1.0000
  C   C3        1.0  0.72855  0.40907  0.78219  1.0000
  C   C4        1.0  0.27146  0.90906  0.21781  1.0000
  C   C5        1.0  0.54238  0.37164  0.72021  1.0000
  C   C6        1.0  0.45761  0.87165  0.27979  1.0000
  C   C7        1.0  0.71522  0.32491  0.66440  1.0000
  C   C8        1.0  0.28477  0.82491  0.33560  1.0000
  C   C9        1.0  0.53379  0.23959  0.60492  1.0000
  C   C10       1.0  0.46621  0.73960  0.39508  1.0000
  C   C11       1.0  0.70194  0.18403  0.54911  1.0000
  C   C12       1.0  0.29805  0.68404  0.45089  1.0000
  S   S1        1.0  0.75687  0.57505  0.90738  1.0000
  S   S2        1.0  0.24313  0.07506  0.09263  1.0000
  O   O1        1.0  0.41237  0.21268  0.85168  1.0000
  O   O2        1.0  0.58763  0.71269  0.14832  1.0000
  O   O3        1.0  0.90606  0.17734  0.79290  1.0000
  O   O4        1.0  0.09394  0.67733  0.20710  1.0000
  O   O5        1.0  0.36346  0.60292  0.70944  1.0000
  O   O6        1.0  0.63655  0.10293  0.29056  1.0000
  O   O7        1.0  0.85679  0.56850  0.65017  1.0000
  O   O8        1.0  0.14322  0.06849  0.34983  1.0000
  O   O9        1.0  0.38641  0.00070  0.61997  1.0000
  O   O10       1.0  0.61357  0.50072  0.38003  1.0000
  O   O11       1.0  0.88616  0.95743  0.55995  1.0000
  O   O12       1.0  0.11382  0.45744  0.44005  1.0000
  O   O13       1.0  0.55783  0.68627  0.94885  1.0000
  O   O14       1.0  0.44218  0.18627  0.05115  1.0000
  O   O15       1.0  0.90689  0.34625  0.93784  1.0000
  O   O16       1.0  0.09311  0.84625  0.06216  1.0000
  O   O17       1.0  0.93866  0.78043  0.88222  1.0000
  O   O18       1.0  0.06135  0.28043  0.11778  1.0000
