data_image0
_chemical_formula_structural       Li2B2H28C36N4O12
_chemical_formula_sum              "Li2 B2 H28 C36 N4 O12"
_cell_length_a       8.7594
_cell_length_b       9.87419
_cell_length_c       11.7767
_cell_angle_alpha    105.191
_cell_angle_beta     92.0482
_cell_angle_gamma    112.402

_space_group_name_H-M_alt    "P 1"
_space_group_IT_number       1

loop_
  _space_group_symop_operation_xyz
  'x, y, z'

loop_
  _atom_site_type_symbol
  _atom_site_label
  _atom_site_symmetry_multiplicity
  _atom_site_fract_x
  _atom_site_fract_y
  _atom_site_fract_z
  _atom_site_occupancy
  Li  Li1       1.0  0.00302  0.67655  0.30722  1.0000
  Li  Li2       1.0  0.99698  0.32345  0.69278  1.0000
  B   B1        1.0  0.61451  0.94254  0.20419  1.0000
  B   B2        1.0  0.38549  0.05746  0.79581  1.0000
  H   H1        1.0  0.47643  0.80820  0.85216  1.0000
  H   H2        1.0  0.52357  0.19179  0.14784  1.0000
  H   H3        1.0  0.48983  0.57564  0.71555  1.0000
  H   H4        1.0  0.51018  0.42436  0.28445  1.0000
  H   H5        1.0  0.63773  0.43439  0.78964  1.0000
  H   H6        1.0  0.36226  0.56561  0.21036  1.0000
  H   H7        1.0  0.76593  0.52897  0.00367  1.0000
  H   H8        1.0  0.23407  0.47102  0.99634  1.0000
  H   H9        1.0  0.79577  0.38725  0.40437  1.0000
  H   H10       1.0  0.20423  0.61275  0.59562  1.0000
  H   H11       1.0  0.66235  0.49069  0.56800  1.0000
  H   H12       1.0  0.33765  0.50931  0.43200  1.0000
  H   H13       1.0  0.39184  0.31939  0.61421  1.0000
  H   H14       1.0  0.60816  0.68062  0.38579  1.0000
  H   H15       1.0  0.25770  0.04468  0.49367  1.0000
  H   H16       1.0  0.74230  0.95532  0.50633  1.0000
  H   H17       1.0  0.94749  0.20661  0.97227  1.0000
  H   H18       1.0  0.05251  0.79339  0.02773  1.0000
  H   H19       1.0  0.74877  0.12703  0.02177  1.0000
  H   H20       1.0  0.25123  0.87297  0.97824  1.0000
  H   H21       1.0  0.78236  0.25953  0.93752  1.0000
  H   H22       1.0  0.21764  0.74047  0.06248  1.0000
  H   H23       1.0  0.78862  0.76955  0.71008  1.0000
  H   H24       1.0  0.21138  0.23045  0.28992  1.0000
  H   H25       1.0  0.00621  0.82259  0.75669  1.0000
  H   H26       1.0  0.99379  0.17741  0.24331  1.0000
  H   H27       1.0  0.94029  0.95223  0.70879  1.0000
  H   H28       1.0  0.05971  0.04777  0.29122  1.0000
  C   C1        1.0  0.61165  0.79812  0.00354  1.0000
  C   C2        1.0  0.38835  0.20188  0.99646  1.0000
  C   C3        1.0  0.54048  0.74654  0.88352  1.0000
  C   C4        1.0  0.45952  0.25345  0.11648  1.0000
  C   C5        1.0  0.54947  0.61604  0.80803  1.0000
  C   C6        1.0  0.45053  0.38396  0.19197  1.0000
  C   C7        1.0  0.63161  0.53664  0.84910  1.0000
  C   C8        1.0  0.36839  0.46336  0.15090  1.0000
  C   C9        1.0  0.70318  0.58862  0.96785  1.0000
  C   C10       1.0  0.29681  0.41138  0.03215  1.0000
  C   C11       1.0  0.69343  0.71844  0.04616  1.0000
  C   C12       1.0  0.30657  0.28156  0.95384  1.0000
  C   C13       1.0  0.76914  0.77430  0.17200  1.0000
  C   C14       1.0  0.23085  0.22570  0.82800  1.0000
  C   C15       1.0  0.60219  0.15815  0.35722  1.0000
  C   C16       1.0  0.39781  0.84185  0.64278  1.0000
  C   C17       1.0  0.67814  0.31343  0.42471  1.0000
  C   C18       1.0  0.32186  0.68657  0.57529  1.0000
  C   C19       1.0  0.60209  0.37004  0.51600  1.0000
  C   C20       1.0  0.39791  0.62996  0.48399  1.0000
  C   C21       1.0  0.45050  0.27495  0.54218  1.0000
  C   C22       1.0  0.54950  0.72505  0.45782  1.0000
  C   C23       1.0  0.37479  0.12186  0.47511  1.0000
  C   C24       1.0  0.62521  0.87814  0.52489  1.0000
  C   C25       1.0  0.44864  0.06218  0.38192  1.0000
  C   C26       1.0  0.55136  0.93783  0.61808  1.0000
  C   C27       1.0  0.36513  0.90150  0.30876  1.0000
  C   C28       1.0  0.63487  0.09850  0.69124  1.0000
  C   C29       1.0  0.90076  0.35496  0.11482  1.0000
  C   C30       1.0  0.09925  0.64505  0.88518  1.0000
  C   C31       1.0  0.84164  0.22980  0.00557  1.0000
  C   C32       1.0  0.15836  0.77020  0.99444  1.0000
  C   C33       1.0  0.93671  0.76494  0.57451  1.0000
  C   C34       1.0  0.06329  0.23506  0.42549  1.0000
  C   C35       1.0  0.91614  0.83098  0.69463  1.0000
  C   C36       1.0  0.08386  0.16902  0.30537  1.0000
  N   N1        1.0  0.94842  0.45600  0.20282  1.0000
  N   N2        1.0  0.05158  0.54400  0.79718  1.0000
  N   N3        1.0  0.95284  0.71103  0.47781  1.0000
  N   N4        1.0  0.04716  0.28897  0.52219  1.0000
  O   O1        1.0  0.60331  0.92523  0.07644  1.0000
  O   O2        1.0  0.39669  0.07477  0.92356  1.0000
  O   O3        1.0  0.73347  0.88300  0.24412  1.0000
  O   O4        1.0  0.26653  0.11700  0.75588  1.0000
  O   O5        1.0  0.86582  0.72675  0.21092  1.0000
  O   O6        1.0  0.13418  0.27325  0.78908  1.0000
  O   O7        1.0  0.67667  0.10546  0.26785  1.0000
  O   O8        1.0  0.32333  0.89454  0.73215  1.0000
  O   O9        1.0  0.44610  0.84958  0.22645  1.0000
  O   O10       1.0  0.55390  0.15042  0.77355  1.0000
  O   O11       1.0  0.22377  0.81533  0.31871  1.0000
  O   O12       1.0  0.77623  0.18466  0.68129  1.0000
