data_image0
_chemical_formula_structural       Li2B2H48C44O16
_chemical_formula_sum              "Li2 B2 H48 C44 O16"
_cell_length_a       8.75734
_cell_length_b       9.63793
_cell_length_c       14.2997
_cell_angle_alpha    88.5493
_cell_angle_beta     86.7572
_cell_angle_gamma    62.9711

_space_group_name_H-M_alt    "P 1"
_space_group_IT_number       1

loop_
  _space_group_symop_operation_xyz
  'x, y, z'

loop_
  _atom_site_type_symbol
  _atom_site_label
  _atom_site_symmetry_multiplicity
  _atom_site_fract_x
  _atom_site_fract_y
  _atom_site_fract_z
  _atom_site_occupancy
  Li  Li1       1.0  0.65240  0.62668  0.89843  1.0000
  Li  Li2       1.0  0.27866  0.37366  0.39866  1.0000
  B   B1        1.0  0.83391  0.05621  0.74660  1.0000
  B   B2        1.0  0.88989  0.94397  0.24691  1.0000
  H   H1        1.0  0.72781  0.60694  0.70303  1.0000
  H   H2        1.0  0.33434  0.39291  0.20306  1.0000
  H   H3        1.0  0.68724  0.58873  0.53270  1.0000
  H   H4        1.0  0.27621  0.41098  0.03262  1.0000
  H   H5        1.0  0.68367  0.79618  0.42338  1.0000
  H   H6        1.0  0.48076  0.20355  0.92335  1.0000
  H   H7        1.0  0.72093  0.01737  0.48174  1.0000
  H   H8        1.0  0.73905  0.98246  0.98188  1.0000
  H   H9        1.0  0.96106  0.47900  0.83565  1.0000
  H   H10       1.0  0.43977  0.52107  0.33579  1.0000
  H   H11       1.0  0.27740  0.38640  0.81560  1.0000
  H   H12       1.0  0.66364  0.61340  0.31563  1.0000
  H   H13       1.0  0.46531  0.11824  0.75760  1.0000
  H   H14       1.0  0.58360  0.88148  0.25769  1.0000
  H   H15       1.0  0.34147  0.93938  0.72226  1.0000
  H   H16       1.0  0.28074  0.06058  0.22257  1.0000
  H   H17       1.0  0.67382  0.36964  0.03422  1.0000
  H   H18       1.0  0.04330  0.63073  0.53465  1.0000
  H   H19       1.0  0.89818  0.29506  0.00341  1.0000
  H   H20       1.0  0.19328  0.70494  0.50358  1.0000
  H   H21       1.0  0.90707  0.25608  0.17218  1.0000
  H   H22       1.0  0.16350  0.74434  0.67234  1.0000
  H   H23       1.0  0.71194  0.43027  0.19207  1.0000
  H   H24       1.0  0.14242  0.57029  0.69240  1.0000
  H   H25       1.0  0.93151  0.51971  0.21633  1.0000
  H   H26       1.0  0.45159  0.48056  0.71637  1.0000
  H   H27       1.0  0.06191  0.40285  0.12162  1.0000
  H   H28       1.0  0.46506  0.59726  0.62161  1.0000
  H   H29       1.0  0.72661  0.70477  0.11265  1.0000
  H   H30       1.0  0.43158  0.29541  0.61280  1.0000
  H   H31       1.0  0.91420  0.64297  0.03668  1.0000
  H   H32       1.0  0.55704  0.35717  0.53661  1.0000
  H   H33       1.0  0.35092  0.57415  0.90460  1.0000
  H   H34       1.0  0.92517  0.42552  0.40463  1.0000
  H   H35       1.0  0.22950  0.73958  0.83325  1.0000
  H   H36       1.0  0.96956  0.26008  0.33315  1.0000
  H   H37       1.0  0.02039  0.79033  0.96109  1.0000
  H   H38       1.0  0.81137  0.20895  0.46090  1.0000
  H   H39       1.0  0.18087  0.70481  0.04505  1.0000
  H   H40       1.0  0.88590  0.29478  0.54492  1.0000
  H   H41       1.0  0.07756  0.01550  0.94200  1.0000
  H   H42       1.0  0.09407  0.98402  0.44188  1.0000
  H   H43       1.0  0.09516  0.98220  0.06486  1.0000
  H   H44       1.0  0.07809  0.01758  0.56474  1.0000
  H   H45       1.0  0.36786  0.97928  0.95486  1.0000
  H   H46       1.0  0.34774  0.02079  0.45475  1.0000
  H   H47       1.0  0.40646  0.84194  0.04840  1.0000
  H   H48       1.0  0.24878  0.15811  0.54834  1.0000
  C   C1        1.0  0.77470  0.83170  0.78726  1.0000
  C   C2        1.0  0.60599  0.16853  0.28739  1.0000
  C   C3        1.0  0.75144  0.81914  0.68753  1.0000
  C   C4        1.0  0.57045  0.18086  0.18764  1.0000
  C   C5        1.0  0.72734  0.69510  0.65358  1.0000
  C   C6        1.0  0.42231  0.30477  0.15363  1.0000
  C   C7        1.0  0.70371  0.68589  0.55915  1.0000
  C   C8        1.0  0.38981  0.31390  0.05915  1.0000
  C   C9        1.0  0.70108  0.80286  0.49763  1.0000
  C   C10       1.0  0.50454  0.19698  0.99764  1.0000
  C   C11       1.0  0.72300  0.92702  0.52964  1.0000
  C   C12       1.0  0.65055  0.07285  0.02974  1.0000
  C   C13       1.0  0.75072  0.93526  0.62460  1.0000
  C   C14       1.0  0.68614  0.06472  0.12475  1.0000
  C   C15       1.0  0.78763  0.31513  0.80342  1.0000
  C   C16       1.0  0.10242  0.68514  0.30377  1.0000
  C   C17       1.0  0.97340  0.26219  0.79066  1.0000
  C   C18       1.0  0.23531  0.73796  0.29094  1.0000
  C   C19       1.0  0.04568  0.36117  0.81112  1.0000
  C   C20       1.0  0.40661  0.63888  0.31130  1.0000
  C   C21       1.0  0.22142  0.30976  0.79979  1.0000
  C   C22       1.0  0.53099  0.69018  0.29992  1.0000
  C   C23       1.0  0.32746  0.15794  0.76713  1.0000
  C   C24       1.0  0.48533  0.84196  0.26730  1.0000
  C   C25       1.0  0.25943  0.05784  0.74665  1.0000
  C   C26       1.0  0.31716  0.94212  0.24692  1.0000
  C   C27       1.0  0.08152  0.10895  0.75860  1.0000
  C   C28       1.0  0.19023  0.89115  0.25893  1.0000
  C   C29       1.0  0.78929  0.38271  0.04580  1.0000
  C   C30       1.0  0.17196  0.61749  0.54609  1.0000
  C   C31       1.0  0.83117  0.37582  0.14797  1.0000
  C   C32       1.0  0.20721  0.62456  0.64820  1.0000
  C   C33       1.0  0.92854  0.47380  0.14747  1.0000
  C   C34       1.0  0.40259  0.52643  0.64754  1.0000
  C   C35       1.0  0.83222  0.60301  0.07801  1.0000
  C   C36       1.0  0.43523  0.39716  0.57811  1.0000
  C   C37       1.0  0.28315  0.70203  0.90247  1.0000
  C   C38       1.0  0.98551  0.29763  0.40242  1.0000
  C   C39       1.0  0.14597  0.77572  0.98091  1.0000
  C   C40       1.0  0.92217  0.22379  0.48078  1.0000
  C   C41       1.0  0.14945  0.93124  0.99585  1.0000
  C   C42       1.0  0.08143  0.06842  0.49574  1.0000
  C   C43       1.0  0.34018  0.88543  0.98269  1.0000
  C   C44       1.0  0.22610  0.11450  0.48262  1.0000
  O   O1        1.0  0.80706  0.94716  0.81254  1.0000
  O   O2        1.0  0.75375  0.05314  0.31275  1.0000
  O   O3        1.0  0.76437  0.74252  0.84877  1.0000
  O   O4        1.0  0.50634  0.25783  0.34885  1.0000
  O   O5        1.0  0.77356  0.05569  0.65340  1.0000
  O   O6        1.0  0.82935  0.94431  0.15365  1.0000
  O   O7        1.0  0.72902  0.21391  0.78559  1.0000
  O   O8        1.0  0.94258  0.78639  0.28598  1.0000
  O   O9        1.0  0.68353  0.44841  0.82977  1.0000
  O   O10       1.0  0.13158  0.55191  0.33010  1.0000
  O   O11       1.0  0.01890  0.00963  0.73934  1.0000
  O   O12       1.0  0.02830  0.99056  0.23976  1.0000
  O   O13       1.0  0.75858  0.53718  0.01417  1.0000
  O   O14       1.0  0.29547  0.46287  0.51447  1.0000
  O   O15       1.0  0.40876  0.75923  0.91447  1.0000
  O   O16       1.0  0.16824  0.24068  0.41445  1.0000
