data_image0
_chemical_formula_structural       Cd6H18C54O36
_chemical_formula_sum              "Cd6 H18 C54 O36"
_cell_length_a       7.92728
_cell_length_b       15.7744
_cell_length_c       15.7748
_cell_angle_alpha    120.003
_cell_angle_beta     89.9934
_cell_angle_gamma    90.0055

_space_group_name_H-M_alt    "P 1"
_space_group_IT_number       1

loop_
  _space_group_symop_operation_xyz
  'x, y, z'

loop_
  _atom_site_type_symbol
  _atom_site_label
  _atom_site_symmetry_multiplicity
  _atom_site_fract_x
  _atom_site_fract_y
  _atom_site_fract_z
  _atom_site_occupancy
  Cd  Cd1       1.0  0.01836  0.37638  0.31229  1.0000
  Cd  Cd2       1.0  0.01847  0.68766  0.06419  1.0000
  Cd  Cd3       1.0  0.01839  0.93580  0.62349  1.0000
  Cd  Cd4       1.0  0.51843  0.31232  0.37647  1.0000
  Cd  Cd5       1.0  0.51845  0.06419  0.68767  1.0000
  Cd  Cd6       1.0  0.51828  0.62364  0.93592  1.0000
  H   H1        1.0  0.31109  0.46047  0.08656  1.0000
  H   H2        1.0  0.31112  0.91348  0.37394  1.0000
  H   H3        1.0  0.31119  0.62610  0.53952  1.0000
  H   H4        1.0  0.81114  0.08652  0.46045  1.0000
  H   H5        1.0  0.81110  0.37390  0.91347  1.0000
  H   H6        1.0  0.81117  0.53953  0.62613  1.0000
  H   H7        1.0  0.29491  0.26715  0.77313  1.0000
  H   H8        1.0  0.29469  0.22692  0.49401  1.0000
  H   H9        1.0  0.29479  0.50590  0.73273  1.0000
  H   H10       1.0  0.79473  0.77308  0.26709  1.0000
  H   H11       1.0  0.79458  0.49406  0.22689  1.0000
  H   H12       1.0  0.79476  0.73275  0.50593  1.0000
  H   H13       1.0  0.07564  0.17753  0.96723  1.0000
  H   H14       1.0  0.07550  0.03272  0.21031  1.0000
  H   H15       1.0  0.07545  0.78965  0.82236  1.0000
  H   H16       1.0  0.57550  0.96718  0.17752  1.0000
  H   H17       1.0  0.57544  0.21030  0.03272  1.0000
  H   H18       1.0  0.57556  0.82244  0.78969  1.0000
  C   C1        1.0  0.19215  0.32029  0.03755  1.0000
  C   C2        1.0  0.19217  0.96244  0.28271  1.0000
  C   C3        1.0  0.19222  0.71728  0.67973  1.0000
  C   C4        1.0  0.69210  0.03756  0.32029  1.0000
  C   C5        1.0  0.69218  0.28269  0.96245  1.0000
  C   C6        1.0  0.69215  0.67971  0.71728  1.0000
  C   C7        1.0  0.27602  0.39034  0.02376  1.0000
  C   C8        1.0  0.27600  0.97626  0.36659  1.0000
  C   C9        1.0  0.27609  0.63343  0.60965  1.0000
  C   C10       1.0  0.77595  0.02373  0.39031  1.0000
  C   C11       1.0  0.77601  0.36656  0.97626  1.0000
  C   C12       1.0  0.77605  0.60965  0.63343  1.0000
  C   C13       1.0  0.31239  0.37043  0.92805  1.0000
  C   C14       1.0  0.31229  0.07198  0.44241  1.0000
  C   C15       1.0  0.31235  0.55762  0.62955  1.0000
  C   C16       1.0  0.81222  0.92805  0.37046  1.0000
  C   C17       1.0  0.81224  0.44241  0.07196  1.0000
  C   C18       1.0  0.81234  0.62953  0.55762  1.0000
  C   C19       1.0  0.14125  0.34215  0.13724  1.0000
  C   C20       1.0  0.14113  0.86278  0.20483  1.0000
  C   C21       1.0  0.14115  0.79513  0.65794  1.0000
  C   C22       1.0  0.64123  0.13727  0.34216  1.0000
  C   C23       1.0  0.64122  0.20488  0.86277  1.0000
  C   C24       1.0  0.64121  0.65787  0.79511  1.0000
  C   C25       1.0  0.12668  0.11640  0.77702  1.0000
  C   C26       1.0  0.12675  0.22293  0.33937  1.0000
  C   C27       1.0  0.12670  0.66065  0.88361  1.0000
  C   C28       1.0  0.62676  0.77704  0.11645  1.0000
  C   C29       1.0  0.62670  0.33940  0.22297  1.0000
  C   C30       1.0  0.62665  0.88358  0.66062  1.0000
  C   C31       1.0  0.39802  0.44576  0.91298  1.0000
  C   C32       1.0  0.39793  0.08705  0.53280  1.0000
  C   C33       1.0  0.39793  0.46717  0.55424  1.0000
  C   C34       1.0  0.89786  0.91303  0.44580  1.0000
  C   C35       1.0  0.89783  0.53281  0.08699  1.0000
  C   C36       1.0  0.89797  0.55422  0.46719  1.0000
  C   C37       1.0  0.26597  0.28120  0.84666  1.0000
  C   C38       1.0  0.26591  0.15336  0.43455  1.0000
  C   C39       1.0  0.26599  0.56545  0.71879  1.0000
  C   C40       1.0  0.76586  0.84663  0.28121  1.0000
  C   C41       1.0  0.76587  0.43455  0.15334  1.0000
  C   C42       1.0  0.76589  0.71875  0.56543  1.0000
  C   C43       1.0  0.18284  0.21144  0.86112  1.0000
  C   C44       1.0  0.18290  0.13884  0.35027  1.0000
  C   C45       1.0  0.18296  0.64973  0.78859  1.0000
  C   C46       1.0  0.68283  0.86116  0.21146  1.0000
  C   C47       1.0  0.68290  0.35026  0.13885  1.0000
  C   C48       1.0  0.68278  0.78853  0.64968  1.0000
  C   C49       1.0  0.14396  0.23131  0.95641  1.0000
  C   C50       1.0  0.14399  0.04356  0.27488  1.0000
  C   C51       1.0  0.14404  0.72509  0.76869  1.0000
  C   C52       1.0  0.64391  0.95641  0.23131  1.0000
  C   C53       1.0  0.64399  0.27485  0.04357  1.0000
  C   C54       1.0  0.64394  0.76867  0.72509  1.0000
  O   O1        1.0  0.05724  0.27720  0.14581  1.0000
  O   O2        1.0  0.05719  0.85428  0.13135  1.0000
  O   O3        1.0  0.05719  0.86864  0.72294  1.0000
  O   O4        1.0  0.55725  0.14587  0.27725  1.0000
  O   O5        1.0  0.55714  0.13138  0.85419  1.0000
  O   O6        1.0  0.55720  0.72284  0.86863  1.0000
  O   O7        1.0  0.17276  0.42446  0.21243  1.0000
  O   O8        1.0  0.17249  0.78755  0.21191  1.0000
  O   O9        1.0  0.17246  0.78801  0.57562  1.0000
  O   O10       1.0  0.67278  0.21244  0.42447  1.0000
  O   O11       1.0  0.67277  0.21202  0.78758  1.0000
  O   O12       1.0  0.67268  0.57557  0.78800  1.0000
  O   O13       1.0  0.22710  0.06309  0.70607  1.0000
  O   O14       1.0  0.22716  0.29386  0.35693  1.0000
  O   O15       1.0  0.22707  0.64307  0.93697  1.0000
  O   O16       1.0  0.72722  0.70612  0.06314  1.0000
  O   O17       1.0  0.72712  0.35698  0.29389  1.0000
  O   O18       1.0  0.72712  0.93688  0.64300  1.0000
  O   O19       1.0  0.97703  0.08942  0.77733  1.0000
  O   O20       1.0  0.97703  0.22262  0.31215  1.0000
  O   O21       1.0  0.97702  0.68789  0.91052  1.0000
  O   O22       1.0  0.47709  0.77731  0.08949  1.0000
  O   O23       1.0  0.47696  0.31226  0.22272  1.0000
  O   O24       1.0  0.47704  0.91058  0.68793  1.0000
  O   O25       1.0  0.48518  0.51276  0.98461  1.0000
  O   O26       1.0  0.48512  0.01540  0.52810  1.0000
  O   O27       1.0  0.48508  0.47183  0.48723  1.0000
  O   O28       1.0  0.98502  0.98469  0.51275  1.0000
  O   O29       1.0  0.98499  0.52807  0.01531  1.0000
  O   O30       1.0  0.98517  0.48723  0.47184  1.0000
  O   O31       1.0  0.38144  0.44587  0.83387  1.0000
  O   O32       1.0  0.38140  0.16616  0.61207  1.0000
  O   O33       1.0  0.38143  0.38799  0.55415  1.0000
  O   O34       1.0  0.88135  0.83392  0.44597  1.0000
  O   O35       1.0  0.88140  0.61206  0.16608  1.0000
  O   O36       1.0  0.88143  0.55411  0.38799  1.0000
