data_image0
_chemical_formula_structural       FeH14C20S2N16
_chemical_formula_sum              "Fe1 H14 C20 S2 N16"
_cell_length_a       7.93558
_cell_length_b       8.71491
_cell_length_c       9.67699
_cell_angle_alpha    70.706
_cell_angle_beta     85.9499
_cell_angle_gamma    64.9105

_space_group_name_H-M_alt    "P 1"
_space_group_IT_number       1

loop_
  _space_group_symop_operation_xyz
  'x, y, z'

loop_
  _atom_site_type_symbol
  _atom_site_label
  _atom_site_symmetry_multiplicity
  _atom_site_fract_x
  _atom_site_fract_y
  _atom_site_fract_z
  _atom_site_occupancy
  Fe  Fe1       1.0  0.52208  0.49869  0.99267  1.0000
  H   H1        1.0  0.29379  0.25893  0.23014  1.0000
  H   H2        1.0  0.69706  0.75168  0.76868  1.0000
  H   H3        1.0  0.80127  0.74187  0.16047  1.0000
  H   H4        1.0  0.18493  0.26288  0.84977  1.0000
  H   H5        1.0  0.71103  0.61112  0.37649  1.0000
  H   H6        1.0  0.28252  0.38613  0.63652  1.0000
  H   H7        1.0  0.65469  0.44949  0.62674  1.0000
  H   H8        1.0  0.34577  0.53907  0.38456  1.0000
  H   H9        1.0  0.88268  0.13268  0.75922  1.0000
  H   H10       1.0  0.12213  0.85405  0.24599  1.0000
  H   H11       1.0  0.34821  0.89620  0.45675  1.0000
  H   H12       1.0  0.64283  0.11173  0.53273  1.0000
  H   H13       1.0  0.15986  0.88886  0.88102  1.0000
  H   H14       1.0  0.86380  0.09762  0.12104  1.0000
  C   C1        1.0  0.47529  0.78347  0.13234  1.0000
  C   C2        1.0  0.53319  0.21849  0.85942  1.0000
  C   C3        1.0  0.19389  0.39732  0.18451  1.0000
  C   C4        1.0  0.79231  0.61172  0.81417  1.0000
  C   C5        1.0  0.93961  0.64574  0.14879  1.0000
  C   C6        1.0  0.04484  0.36016  0.85666  1.0000
  C   C7        1.0  0.97146  0.38229  0.37560  1.0000
  C   C8        1.0  0.02358  0.61966  0.63101  1.0000
  C   C9        1.0  0.80941  0.47337  0.43539  1.0000
  C   C10       1.0  0.18656  0.52379  0.57481  1.0000
  C   C11       1.0  0.77840  0.38169  0.57559  1.0000
  C   C12       1.0  0.22127  0.60966  0.43386  1.0000
  C   C13       1.0  0.90652  0.20652  0.65059  1.0000
  C   C14       1.0  0.09538  0.78423  0.35503  1.0000
  C   C15       1.0  0.06288  0.13090  0.57892  1.0000
  C   C16       1.0  0.93786  0.86519  0.42367  1.0000
  C   C17       1.0  0.33800  0.85321  0.57492  1.0000
  C   C18       1.0  0.66333  0.15071  0.41596  1.0000
  C   C19       1.0  0.23993  0.85245  0.79236  1.0000
  C   C20       1.0  0.77890  0.14028  0.20539  1.0000
  S   S1        1.0  0.46268  0.93148  0.20490  1.0000
  S   S2        1.0  0.52190  0.07723  0.78880  1.0000
  N   N1        1.0  0.49111  0.67176  0.08195  1.0000
  N   N2        1.0  0.53467  0.32609  0.90801  1.0000
  N   N3        1.0  0.21226  0.52259  0.07230  1.0000
  N   N4        1.0  0.76462  0.48508  0.92052  1.0000
  N   N5        1.0  0.05143  0.68063  0.04871  1.0000
  N   N6        1.0  0.92630  0.32569  0.94937  1.0000
  N   N7        1.0  0.02364  0.46831  0.23851  1.0000
  N   N8        1.0  0.96638  0.53776  0.76747  1.0000
  N   N9        1.0  0.09565  0.21467  0.44453  1.0000
  N   N10       1.0  0.90156  0.78700  0.55851  1.0000
  N   N11       1.0  0.20332  0.95435  0.64637  1.0000
  N   N12       1.0  0.80123  0.04197  0.35154  1.0000
  N   N13       1.0  0.44810  0.69833  0.66937  1.0000
  N   N14       1.0  0.56488  0.30687  0.31690  1.0000
  N   N15       1.0  0.38749  0.69862  0.80708  1.0000
  N   N16       1.0  0.63751  0.29973  0.18337  1.0000
