data_image0
_chemical_formula_structural       Ag8H48C52N16O8
_chemical_formula_sum              "Ag8 H48 C52 N16 O8"
_cell_length_a       9.9024
_cell_length_b       9.90241
_cell_length_c       15.603
_cell_angle_alpha    96.1738
_cell_angle_beta     107.008
_cell_angle_gamma    111.638

_space_group_name_H-M_alt    "P 1"
_space_group_IT_number       1

loop_
  _space_group_symop_operation_xyz
  'x, y, z'

loop_
  _atom_site_type_symbol
  _atom_site_label
  _atom_site_symmetry_multiplicity
  _atom_site_fract_x
  _atom_site_fract_y
  _atom_site_fract_z
  _atom_site_occupancy
  Ag  Ag1       1.0  0.89883  0.37535  0.31351  1.0000
  Ag  Ag2       1.0  0.43833  0.41437  0.81336  1.0000
  Ag  Ag3       1.0  0.09163  0.21586  0.34487  1.0000
  Ag  Ag4       1.0  0.62917  0.25280  0.84510  1.0000
  Ag  Ag5       1.0  0.83859  0.65517  0.05471  1.0000
  Ag  Ag6       1.0  0.89918  0.21700  0.55480  1.0000
  Ag  Ag7       1.0  0.02935  0.49398  0.08946  1.0000
  Ag  Ag8       1.0  0.09499  0.06082  0.58937  1.0000
  H   H1        1.0  0.59595  0.33869  0.24462  1.0000
  H   H2        1.0  0.40675  0.64853  0.74495  1.0000
  H   H3        1.0  0.34460  0.33655  0.24482  1.0000
  H   H4        1.0  0.40914  0.90008  0.74523  1.0000
  H   H5        1.0  0.27858  0.00524  0.38948  1.0000
  H   H6        1.0  0.88502  0.11038  0.88928  1.0000
  H   H7        1.0  0.53091  0.00037  0.40120  1.0000
  H   H8        1.0  0.90163  0.86977  0.90092  1.0000
  H   H9        1.0  0.64198  0.93836  0.31499  1.0000
  H   H10       1.0  0.87699  0.67211  0.81484  1.0000
  H   H11       1.0  0.71934  0.80786  0.40391  1.0000
  H   H12       1.0  0.09619  0.68308  0.90375  1.0000
  H   H13       1.0  0.72741  0.55941  0.39179  1.0000
  H   H14       1.0  0.33230  0.66241  0.89171  1.0000
  H   H15       1.0  0.04384  0.67331  0.25797  1.0000
  H   H16       1.0  0.08414  0.21256  0.75752  1.0000
  H   H17       1.0  0.04276  0.92332  0.26058  1.0000
  H   H18       1.0  0.83688  0.21674  0.76005  1.0000
  H   H19       1.0  0.44241  0.74132  0.40072  1.0000
  H   H20       1.0  0.15987  0.95772  0.90090  1.0000
  H   H21       1.0  0.45150  0.64574  0.30197  1.0000
  H   H22       1.0  0.15659  0.85012  0.80200  1.0000
  H   H23       1.0  0.32447  0.73702  0.28686  1.0000
  H   H24       1.0  0.05040  0.96222  0.78711  1.0000
  H   H25       1.0  0.37129  0.23277  0.99449  1.0000
  H   H26       1.0  0.26187  0.62443  0.49445  1.0000
  H   H27       1.0  0.13425  0.25802  0.00092  1.0000
  H   H28       1.0  0.24310  0.86791  0.50108  1.0000
  H   H29       1.0  0.38647  0.70183  0.14485  1.0000
  H   H30       1.0  0.94253  0.75896  0.64467  1.0000
  H   H31       1.0  0.63793  0.69318  0.14914  1.0000
  H   H32       1.0  0.95529  0.51165  0.64870  1.0000
  H   H33       1.0  0.58552  0.23551  0.08321  1.0000
  H   H34       1.0  0.34712  0.49821  0.58278  1.0000
  H   H35       1.0  0.55654  0.03415  0.99910  1.0000
  H   H36       1.0  0.46464  0.44337  0.49886  1.0000
  H   H37       1.0  0.57508  0.79305  0.00722  1.0000
  H   H38       1.0  0.71415  0.43316  0.50739  1.0000
  H   H39       1.0  0.05404  0.00454  0.13695  1.0000
  H   H40       1.0  0.63149  0.08331  0.63677  1.0000
  H   H41       1.0  0.05382  0.25605  0.14388  1.0000
  H   H42       1.0  0.38677  0.09046  0.64347  1.0000
  H   H43       1.0  0.42039  0.97185  0.14147  1.0000
  H   H44       1.0  0.66930  0.72117  0.64143  1.0000
  H   H45       1.0  0.33635  0.92990  0.01810  1.0000
  H   H46       1.0  0.58854  0.68245  0.51808  1.0000
  H   H47       1.0  0.30182  0.05881  0.08594  1.0000
  H   H48       1.0  0.52680  0.78417  0.58586  1.0000
  C   C1        1.0  0.58343  0.16423  0.31925  1.0000
  C   C2        1.0  0.65575  0.73544  0.81934  1.0000
  C   C3        1.0  0.52848  0.26253  0.27749  1.0000
  C   C4        1.0  0.51577  0.74879  0.77774  1.0000
  C   C5        1.0  0.38775  0.26086  0.27733  1.0000
  C   C6        1.0  0.51727  0.88933  0.77762  1.0000
  C   C7        1.0  0.35120  0.07671  0.35697  1.0000
  C   C8        1.0  0.78102  0.00532  0.85688  1.0000
  C   C9        1.0  0.49066  0.07080  0.36132  1.0000
  C   C10       1.0  0.79130  0.87020  0.86119  1.0000
  C   C11       1.0  0.74425  0.04033  0.32267  1.0000
  C   C12       1.0  0.78264  0.57760  0.82259  1.0000
  C   C13       1.0  0.87588  0.88683  0.32923  1.0000
  C   C14       1.0  0.94231  0.45206  0.82890  1.0000
  C   C15       1.0  0.78785  0.78038  0.36757  1.0000
  C   C16       1.0  0.08716  0.57819  0.86734  1.0000
  C   C17       1.0  0.79545  0.64269  0.36266  1.0000
  C   C18       1.0  0.21982  0.56539  0.86246  1.0000
  C   C19       1.0  0.97154  0.70595  0.28881  1.0000
  C   C20       1.0  0.08247  0.31569  0.78839  1.0000
  C   C21       1.0  0.97098  0.84593  0.29059  1.0000
  C   C22       1.0  0.94435  0.31831  0.79012  1.0000
  C   C23       1.0  0.24540  0.52904  0.32899  1.0000
  C   C24       1.0  0.30039  0.08308  0.82910  1.0000
  C   C25       1.0  0.37238  0.67333  0.32988  1.0000
  C   C26       1.0  0.15699  0.95711  0.83004  1.0000
  C   C27       1.0  0.52752  0.46065  0.07364  1.0000
  C   C28       1.0  0.11258  0.54691  0.57332  1.0000
  C   C29       1.0  0.38087  0.33738  0.03153  1.0000
  C   C30       1.0  0.19407  0.65168  0.53139  1.0000
  C   C31       1.0  0.24809  0.35255  0.03373  1.0000
  C   C32       1.0  0.18114  0.78668  0.53373  1.0000
  C   C33       1.0  0.38905  0.59936  0.11342  1.0000
  C   C34       1.0  0.01364  0.72507  0.61324  1.0000
  C   C35       1.0  0.52800  0.59434  0.11530  1.0000
  C   C36       1.0  0.02042  0.58794  0.61496  1.0000
  C   C37       1.0  0.68080  0.32912  0.07559  1.0000
  C   C38       1.0  0.24585  0.39540  0.57519  1.0000
  C   C39       1.0  0.80404  0.16848  0.07495  1.0000
  C   C40       1.0  0.40583  0.27152  0.57462  1.0000
  C   C41       1.0  0.66803  0.03351  0.03594  1.0000
  C   C42       1.0  0.50201  0.36867  0.53574  1.0000
  C   C43       1.0  0.67936  0.89833  0.03774  1.0000
  C   C44       1.0  0.63912  0.35926  0.53776  1.0000
  C   C45       1.0  0.94461  0.01476  0.10924  1.0000
  C   C46       1.0  0.59368  0.16510  0.60905  1.0000
  C   C47       1.0  0.94517  0.15534  0.11225  1.0000
  C   C48       1.0  0.45601  0.16750  0.61188  1.0000
  C   C49       1.0  0.17234  0.82845  0.08261  1.0000
  C   C50       1.0  0.75403  0.91086  0.58287  1.0000
  C   C51       1.0  0.31747  0.95444  0.08282  1.0000
  C   C52       1.0  0.62827  0.76571  0.58286  1.0000
  N   N1        1.0  0.72517  0.16608  0.31975  1.0000
  N   N2        1.0  0.65418  0.59409  0.81985  1.0000
  N   N3        1.0  0.87503  0.02761  0.32893  1.0000
  N   N4        1.0  0.80137  0.45291  0.82873  1.0000
  N   N5        1.0  0.29728  0.16875  0.31561  1.0000
  N   N6        1.0  0.64763  0.01800  0.81576  1.0000
  N   N7        1.0  0.88451  0.60296  0.32372  1.0000
  N   N8        1.0  0.22044  0.43741  0.82342  1.0000
  N   N9        1.0  0.66684  0.45713  0.07342  1.0000
  N   N10       1.0  0.11575  0.40731  0.57306  1.0000
  N   N11       1.0  0.80601  0.30996  0.07472  1.0000
  N   N12       1.0  0.26409  0.26930  0.57436  1.0000
  N   N13       1.0  0.24899  0.48059  0.07395  1.0000
  N   N14       1.0  0.09315  0.82584  0.57389  1.0000
  N   N15       1.0  0.81443  0.88598  0.07350  1.0000
  N   N16       1.0  0.68703  0.25979  0.57352  1.0000
  O   O1        1.0  0.11101  0.48165  0.26636  1.0000
  O   O2        1.0  0.28535  0.15459  0.76629  1.0000
  O   O3        1.0  0.27903  0.46042  0.39103  1.0000
  O   O4        1.0  0.43095  0.11160  0.89126  1.0000
  O   O5        1.0  0.04586  0.79535  0.01489  1.0000
  O   O6        1.0  0.71941  0.97001  0.51531  1.0000
  O   O7        1.0  0.18331  0.76271  0.14811  1.0000
  O   O8        1.0  0.88523  0.96505  0.64829  1.0000
