data_image0
_chemical_formula_structural       V4Zn4P4H32C40N8O24
_chemical_formula_sum              "V4 Zn4 P4 H32 C40 N8 O24"
_cell_length_a       7.8109
_cell_length_b       9.62633
_cell_length_c       17.1992
_cell_angle_alpha    90.0005
_cell_angle_beta     89.9997
_cell_angle_gamma    103.759

_space_group_name_H-M_alt    "P 1"
_space_group_IT_number       1

loop_
  _space_group_symop_operation_xyz
  'x, y, z'

loop_
  _atom_site_type_symbol
  _atom_site_label
  _atom_site_symmetry_multiplicity
  _atom_site_fract_x
  _atom_site_fract_y
  _atom_site_fract_z
  _atom_site_occupancy
  V   V1        1.0  0.88305  0.50641  0.37758  1.0000
  V   V2        1.0  0.88305  0.00642  0.12242  1.0000
  V   V3        1.0  0.11695  0.49359  0.62242  1.0000
  V   V4        1.0  0.11696  0.99360  0.87758  1.0000
  Zn  Zn1       1.0  0.53158  0.27659  0.44900  1.0000
  Zn  Zn2       1.0  0.53157  0.77659  0.05100  1.0000
  Zn  Zn3       1.0  0.46842  0.72341  0.55100  1.0000
  Zn  Zn4       1.0  0.46842  0.22341  0.94900  1.0000
  P   P1        1.0  0.76082  0.52417  0.54346  1.0000
  P   P2        1.0  0.76082  0.02417  0.95654  1.0000
  P   P3        1.0  0.23918  0.47583  0.45654  1.0000
  P   P4        1.0  0.23918  0.97584  0.04346  1.0000
  H   H1        1.0  0.07440  0.81721  0.51082  1.0000
  H   H2        1.0  0.07440  0.31722  0.98918  1.0000
  H   H3        1.0  0.92561  0.18278  0.48918  1.0000
  H   H4        1.0  0.92561  0.68279  0.01082  1.0000
  H   H5        1.0  0.43062  0.26050  0.62595  1.0000
  H   H6        1.0  0.43063  0.76050  0.87405  1.0000
  H   H7        1.0  0.56937  0.73950  0.37404  1.0000
  H   H8        1.0  0.56938  0.23950  0.12595  1.0000
  H   H9        1.0  0.21669  0.08872  0.71153  1.0000
  H   H10       1.0  0.21670  0.58872  0.78847  1.0000
  H   H11       1.0  0.78330  0.91127  0.28847  1.0000
  H   H12       1.0  0.78331  0.41128  0.21153  1.0000
  H   H13       1.0  0.03897  0.86285  0.65183  1.0000
  H   H14       1.0  0.03897  0.36285  0.84817  1.0000
  H   H15       1.0  0.96103  0.13715  0.34817  1.0000
  H   H16       1.0  0.96104  0.63715  0.15182  1.0000
  H   H17       1.0  0.10154  0.80700  0.39027  1.0000
  H   H18       1.0  0.10154  0.30700  0.10973  1.0000
  H   H19       1.0  0.89845  0.19300  0.60973  1.0000
  H   H20       1.0  0.89846  0.69300  0.89027  1.0000
  H   H21       1.0  0.17376  0.79351  0.25126  1.0000
  H   H22       1.0  0.17376  0.29351  0.24873  1.0000
  H   H23       1.0  0.82624  0.20649  0.74873  1.0000
  H   H24       1.0  0.82624  0.70649  0.75127  1.0000
  H   H25       1.0  0.42397  0.98038  0.19404  1.0000
  H   H26       1.0  0.42397  0.48038  0.30596  1.0000
  H   H27       1.0  0.57605  0.01961  0.80596  1.0000
  H   H28       1.0  0.57604  0.51962  0.69404  1.0000
  H   H29       1.0  0.58240  0.18138  0.28198  1.0000
  H   H30       1.0  0.58239  0.68138  0.21803  1.0000
  H   H31       1.0  0.41762  0.81861  0.71802  1.0000
  H   H32       1.0  0.41760  0.31862  0.78198  1.0000
  C   C1        1.0  0.14979  0.91521  0.53754  1.0000
  C   C2        1.0  0.14979  0.41522  0.96246  1.0000
  C   C3        1.0  0.85021  0.08478  0.46246  1.0000
  C   C4        1.0  0.85021  0.58479  0.03754  1.0000
  C   C5        1.0  0.34734  0.16151  0.60323  1.0000
  C   C6        1.0  0.34734  0.66151  0.89677  1.0000
  C   C7        1.0  0.65266  0.83849  0.39677  1.0000
  C   C8        1.0  0.65266  0.33849  0.10323  1.0000
  C   C9        1.0  0.22888  0.06642  0.65000  1.0000
  C   C10       1.0  0.22889  0.56642  0.85000  1.0000
  C   C11       1.0  0.77111  0.93358  0.35000  1.0000
  C   C12       1.0  0.77112  0.43359  0.15000  1.0000
  C   C13       1.0  0.12966  0.94101  0.61635  1.0000
  C   C14       1.0  0.12966  0.44101  0.88365  1.0000
  C   C15       1.0  0.87034  0.05898  0.38365  1.0000
  C   C16       1.0  0.87034  0.55899  0.11635  1.0000
  C   C17       1.0  0.27046  0.01649  0.49404  1.0000
  C   C18       1.0  0.27046  0.51649  0.00597  1.0000
  C   C19       1.0  0.72954  0.98351  0.50596  1.0000
  C   C20       1.0  0.72954  0.48351  0.99403  1.0000
  C   C21       1.0  0.30287  0.00080  0.40999  1.0000
  C   C22       1.0  0.30287  0.50080  0.09001  1.0000
  C   C23       1.0  0.69713  0.99920  0.59000  1.0000
  C   C24       1.0  0.69713  0.49920  0.90999  1.0000
  C   C25       1.0  0.20733  0.88819  0.36488  1.0000
  C   C26       1.0  0.20732  0.38819  0.13512  1.0000
  C   C27       1.0  0.79268  0.11181  0.63511  1.0000
  C   C28       1.0  0.79267  0.61181  0.86488  1.0000
  C   C29       1.0  0.24903  0.88091  0.28652  1.0000
  C   C30       1.0  0.24903  0.38091  0.21348  1.0000
  C   C31       1.0  0.75097  0.11909  0.71348  1.0000
  C   C32       1.0  0.75097  0.61908  0.78652  1.0000
  C   C33       1.0  0.38612  0.98528  0.25474  1.0000
  C   C34       1.0  0.38612  0.48528  0.24526  1.0000
  C   C35       1.0  0.61389  0.01472  0.74527  1.0000
  C   C36       1.0  0.61388  0.51471  0.75473  1.0000
  C   C37       1.0  0.47418  0.09584  0.30263  1.0000
  C   C38       1.0  0.47417  0.59584  0.19737  1.0000
  C   C39       1.0  0.52583  0.90416  0.69737  1.0000
  C   C40       1.0  0.52582  0.40416  0.80263  1.0000
  N   N1        1.0  0.43269  0.10357  0.37796  1.0000
  N   N2        1.0  0.43269  0.60357  0.12204  1.0000
  N   N3        1.0  0.56731  0.89643  0.62204  1.0000
  N   N4        1.0  0.56730  0.39643  0.87796  1.0000
  N   N5        1.0  0.36741  0.13647  0.52755  1.0000
  N   N6        1.0  0.36741  0.63648  0.97245  1.0000
  N   N7        1.0  0.63259  0.86352  0.47245  1.0000
  N   N8        1.0  0.63260  0.36353  0.02755  1.0000
  O   O1        1.0  0.71260  0.36281  0.52910  1.0000
  O   O2        1.0  0.71259  0.86281  0.97091  1.0000
  O   O3        1.0  0.28740  0.63719  0.47091  1.0000
  O   O4        1.0  0.28741  0.13719  0.02910  1.0000
  O   O5        1.0  0.71474  0.36911  0.35825  1.0000
  O   O6        1.0  0.71474  0.86911  0.14175  1.0000
  O   O7        1.0  0.28526  0.63089  0.64175  1.0000
  O   O8        1.0  0.28526  0.13089  0.85825  1.0000
  O   O9        1.0  0.61289  0.58496  0.57438  1.0000
  O   O10       1.0  0.61289  0.08496  0.92563  1.0000
  O   O11       1.0  0.38711  0.41504  0.42562  1.0000
  O   O12       1.0  0.38710  0.91504  0.07438  1.0000
  O   O13       1.0  0.83645  0.60380  0.46451  1.0000
  O   O14       1.0  0.83644  0.10381  0.03550  1.0000
  O   O15       1.0  0.16355  0.39620  0.53549  1.0000
  O   O16       1.0  0.16355  0.89621  0.96451  1.0000
  O   O17       1.0  0.91899  0.56259  0.60235  1.0000
  O   O18       1.0  0.91899  0.06259  0.89766  1.0000
  O   O19       1.0  0.08101  0.43741  0.39765  1.0000
  O   O20       1.0  0.08101  0.93743  0.10235  1.0000
  O   O21       1.0  0.91413  0.61565  0.30426  1.0000
  O   O22       1.0  0.91411  0.11566  0.19574  1.0000
  O   O23       1.0  0.08587  0.38435  0.69574  1.0000
  O   O24       1.0  0.08587  0.88435  0.80426  1.0000
