data_image0
_chemical_formula_structural       Zn4H48C60N12O16
_chemical_formula_sum              "Zn4 H48 C60 N12 O16"
_cell_length_a       8.55301
_cell_length_b       10.8271
_cell_length_c       15.7447
_cell_angle_alpha    102.341
_cell_angle_beta     90
_cell_angle_gamma    89.9998

_space_group_name_H-M_alt    "P 1"
_space_group_IT_number       1

loop_
  _space_group_symop_operation_xyz
  'x, y, z'

loop_
  _atom_site_type_symbol
  _atom_site_label
  _atom_site_symmetry_multiplicity
  _atom_site_fract_x
  _atom_site_fract_y
  _atom_site_fract_z
  _atom_site_occupancy
  Zn  Zn1       1.0  0.52507  0.11372  0.88531  1.0000
  Zn  Zn2       1.0  0.02507  0.88627  0.61469  1.0000
  Zn  Zn3       1.0  0.47493  0.88628  0.11469  1.0000
  Zn  Zn4       1.0  0.97493  0.11372  0.38531  1.0000
  H   H1        1.0  0.70488  0.39003  0.56844  1.0000
  H   H2        1.0  0.20488  0.60997  0.93156  1.0000
  H   H3        1.0  0.29511  0.60997  0.43156  1.0000
  H   H4        1.0  0.79512  0.39003  0.06844  1.0000
  H   H5        1.0  0.67973  0.34699  0.40992  1.0000
  H   H6        1.0  0.17973  0.65301  0.09008  1.0000
  H   H7        1.0  0.32027  0.65301  0.59008  1.0000
  H   H8        1.0  0.82027  0.34699  0.90992  1.0000
  H   H9        1.0  0.45760  0.13446  0.69643  1.0000
  H   H10       1.0  0.95760  0.86554  0.80357  1.0000
  H   H11       1.0  0.54241  0.86554  0.30357  1.0000
  H   H12       1.0  0.04240  0.13446  0.19643  1.0000
  H   H13       1.0  0.45044  0.30672  0.61667  1.0000
  H   H14       1.0  0.95044  0.69328  0.88332  1.0000
  H   H15       1.0  0.54956  0.69328  0.38333  1.0000
  H   H16       1.0  0.04956  0.30672  0.11667  1.0000
  H   H17       1.0  0.57723  0.56593  0.85813  1.0000
  H   H18       1.0  0.07723  0.43406  0.64187  1.0000
  H   H19       1.0  0.42277  0.43407  0.14187  1.0000
  H   H20       1.0  0.92277  0.56593  0.35813  1.0000
  H   H21       1.0  0.55845  0.38649  0.92879  1.0000
  H   H22       1.0  0.05845  0.61351  0.57121  1.0000
  H   H23       1.0  0.44155  0.61351  0.07121  1.0000
  H   H24       1.0  0.94154  0.38649  0.42879  1.0000
  H   H25       1.0  0.34484  0.88772  0.89342  1.0000
  H   H26       1.0  0.84486  0.11228  0.60659  1.0000
  H   H27       1.0  0.65515  0.11228  0.10658  1.0000
  H   H28       1.0  0.15514  0.88772  0.39341  1.0000
  H   H29       1.0  0.33572  0.66064  0.82060  1.0000
  H   H30       1.0  0.83573  0.33936  0.67940  1.0000
  H   H31       1.0  0.66427  0.33936  0.17940  1.0000
  H   H32       1.0  0.16426  0.66064  0.32060  1.0000
  H   H33       1.0  0.68735  0.73806  0.64167  1.0000
  H   H34       1.0  0.18735  0.26194  0.85833  1.0000
  H   H35       1.0  0.31266  0.26194  0.35833  1.0000
  H   H36       1.0  0.81265  0.73806  0.14166  1.0000
  H   H37       1.0  0.68440  0.96175  0.72228  1.0000
  H   H38       1.0  0.18440  0.03825  0.77772  1.0000
  H   H39       1.0  0.31561  0.03825  0.27773  1.0000
  H   H40       1.0  0.81560  0.96174  0.22227  1.0000
  H   H41       1.0  0.92434  0.11901  0.99210  1.0000
  H   H42       1.0  0.42434  0.88099  0.50789  1.0000
  H   H43       1.0  0.07566  0.88098  0.00790  1.0000
  H   H44       1.0  0.57567  0.11902  0.49211  1.0000
  H   H45       1.0  0.20838  0.17586  0.06067  1.0000
  H   H46       1.0  0.70837  0.82415  0.43934  1.0000
  H   H47       1.0  0.79162  0.82414  0.93933  1.0000
  H   H48       1.0  0.29163  0.17586  0.56066  1.0000
  C   C1        1.0  0.51236  0.52445  0.59044  1.0000
  C   C2        1.0  0.01236  0.47556  0.90956  1.0000
  C   C3        1.0  0.48763  0.47556  0.40957  1.0000
  C   C4        1.0  0.98764  0.52445  0.09044  1.0000
  C   C5        1.0  0.61438  0.43846  0.53942  1.0000
  C   C6        1.0  0.11438  0.56154  0.96058  1.0000
  C   C7        1.0  0.38561  0.56154  0.46058  1.0000
  C   C8        1.0  0.88562  0.43846  0.03942  1.0000
  C   C9        1.0  0.60061  0.41402  0.44951  1.0000
  C   C10       1.0  0.10061  0.58598  0.05049  1.0000
  C   C11       1.0  0.39939  0.58597  0.55049  1.0000
  C   C12       1.0  0.89939  0.41403  0.94951  1.0000
  C   C13       1.0  0.48282  0.23155  0.73018  1.0000
  C   C14       1.0  0.98282  0.76845  0.76982  1.0000
  C   C15       1.0  0.51718  0.76845  0.26983  1.0000
  C   C16       1.0  0.01717  0.23155  0.23017  1.0000
  C   C17       1.0  0.47962  0.32832  0.68533  1.0000
  C   C18       1.0  0.97961  0.67168  0.81467  1.0000
  C   C19       1.0  0.52039  0.67168  0.31467  1.0000
  C   C20       1.0  0.02038  0.32832  0.18533  1.0000
  C   C21       1.0  0.51396  0.45335  0.72855  1.0000
  C   C22       1.0  0.01395  0.54664  0.77145  1.0000
  C   C23       1.0  0.48605  0.54665  0.27145  1.0000
  C   C24       1.0  0.98604  0.45335  0.22855  1.0000
  C   C25       1.0  0.54610  0.47375  0.81843  1.0000
  C   C26       1.0  0.04609  0.52625  0.68157  1.0000
  C   C27       1.0  0.45391  0.52625  0.18157  1.0000
  C   C28       1.0  0.95390  0.47375  0.31843  1.0000
  C   C29       1.0  0.54068  0.37231  0.85885  1.0000
  C   C30       1.0  0.04068  0.62769  0.64114  1.0000
  C   C31       1.0  0.45932  0.62769  0.14115  1.0000
  C   C32       1.0  0.95931  0.37231  0.35885  1.0000
  C   C33       1.0  0.41853  0.85094  0.83724  1.0000
  C   C34       1.0  0.91854  0.14905  0.66276  1.0000
  C   C35       1.0  0.58146  0.14905  0.16276  1.0000
  C   C36       1.0  0.08146  0.85095  0.33724  1.0000
  C   C37       1.0  0.41524  0.72399  0.79696  1.0000
  C   C38       1.0  0.91525  0.27601  0.70305  1.0000
  C   C39       1.0  0.58475  0.27602  0.20305  1.0000
  C   C40       1.0  0.08475  0.72398  0.29695  1.0000
  C   C41       1.0  0.51497  0.67958  0.72652  1.0000
  C   C42       1.0  0.01497  0.32041  0.77348  1.0000
  C   C43       1.0  0.48504  0.32041  0.27348  1.0000
  C   C44       1.0  0.98502  0.67959  0.22652  1.0000
  C   C45       1.0  0.61037  0.76726  0.69741  1.0000
  C   C46       1.0  0.11038  0.23275  0.80259  1.0000
  C   C47       1.0  0.38963  0.23275  0.30260  1.0000
  C   C48       1.0  0.88962  0.76725  0.19740  1.0000
  C   C49       1.0  0.60764  0.89248  0.74162  1.0000
  C   C50       1.0  0.10765  0.10751  0.75837  1.0000
  C   C51       1.0  0.39236  0.10752  0.25838  1.0000
  C   C52       1.0  0.89235  0.89248  0.24162  1.0000
  C   C53       1.0  0.82929  0.10336  0.94266  1.0000
  C   C54       1.0  0.32929  0.89664  0.55735  1.0000
  C   C55       1.0  0.17071  0.89664  0.05735  1.0000
  C   C56       1.0  0.67072  0.10337  0.44266  1.0000
  C   C57       1.0  0.29828  0.19799  0.01508  1.0000
  C   C58       1.0  0.79828  0.80201  0.48492  1.0000
  C   C59       1.0  0.70172  0.80200  0.98492  1.0000
  C   C60       1.0  0.20172  0.19799  0.51508  1.0000
  N   N1        1.0  0.51855  0.55073  0.68350  1.0000
  N   N2        1.0  0.01855  0.44927  0.81650  1.0000
  N   N3        1.0  0.48145  0.44927  0.31650  1.0000
  N   N4        1.0  0.98144  0.55073  0.18350  1.0000
  N   N5        1.0  0.51278  0.25186  0.81639  1.0000
  N   N6        1.0  0.01278  0.74814  0.68361  1.0000
  N   N7        1.0  0.48723  0.74814  0.18361  1.0000
  N   N8        1.0  0.98722  0.25186  0.31639  1.0000
  N   N9        1.0  0.51507  0.93436  0.81120  1.0000
  N   N10       1.0  0.01508  0.06564  0.68880  1.0000
  N   N11       1.0  0.48493  0.06564  0.18880  1.0000
  N   N12       1.0  0.98492  0.93436  0.31119  1.0000
  O   O1        1.0  0.70050  0.16217  0.96861  1.0000
  O   O2        1.0  0.20050  0.83783  0.53139  1.0000
  O   O3        1.0  0.29950  0.83782  0.03140  1.0000
  O   O4        1.0  0.79951  0.16218  0.46861  1.0000
  O   O5        1.0  0.85315  0.03461  0.86978  1.0000
  O   O6        1.0  0.35316  0.96538  0.63022  1.0000
  O   O7        1.0  0.14684  0.96539  0.13022  1.0000
  O   O8        1.0  0.64684  0.03462  0.36979  1.0000
  O   O9        1.0  0.33663  0.10036  0.95597  1.0000
  O   O10       1.0  0.83663  0.89964  0.54403  1.0000
  O   O11       1.0  0.66337  0.89964  0.04403  1.0000
  O   O12       1.0  0.16338  0.10036  0.45596  1.0000
  O   O13       1.0  0.35081  0.30726  0.02445  1.0000
  O   O14       1.0  0.85080  0.69275  0.47555  1.0000
  O   O15       1.0  0.64919  0.69274  0.97555  1.0000
  O   O16       1.0  0.14919  0.30726  0.52445  1.0000
