data_image0
_chemical_formula_structural       Cu2H20C26N6Cl2
_chemical_formula_sum              "Cu2 H20 C26 N6 Cl2"
_cell_length_a       8.88369
_cell_length_b       8.88355
_cell_length_c       10.648
_cell_angle_alpha    102.731
_cell_angle_beta     102.731
_cell_angle_gamma    116.271

_space_group_name_H-M_alt    "P 1"
_space_group_IT_number       1

loop_
  _space_group_symop_operation_xyz
  'x, y, z'

loop_
  _atom_site_type_symbol
  _atom_site_label
  _atom_site_symmetry_multiplicity
  _atom_site_fract_x
  _atom_site_fract_y
  _atom_site_fract_z
  _atom_site_occupancy
  Cu  Cu1       1.0  0.90049  0.09953  0.50000  1.0000
  Cu  Cu2       1.0  0.09953  0.90047  0.50000  1.0000
  H   H1        1.0  0.84791  0.39691  0.46269  1.0000
  H   H2        1.0  0.60310  0.15207  0.53732  1.0000
  H   H3        1.0  0.15208  0.60309  0.53731  1.0000
  H   H4        1.0  0.39690  0.84792  0.46268  1.0000
  H   H5        1.0  0.77418  0.49764  0.27369  1.0000
  H   H6        1.0  0.50236  0.22581  0.72631  1.0000
  H   H7        1.0  0.22582  0.50236  0.72631  1.0000
  H   H8        1.0  0.49764  0.77419  0.27368  1.0000
  H   H9        1.0  0.70198  0.01440  0.99326  1.0000
  H   H10       1.0  0.98561  0.29804  0.00674  1.0000
  H   H11       1.0  0.29802  0.98559  0.00674  1.0000
  H   H12       1.0  0.01438  0.70196  0.99325  1.0000
  H   H13       1.0  0.78191  0.93512  0.19780  1.0000
  H   H14       1.0  0.06490  0.21811  0.80221  1.0000
  H   H15       1.0  0.21808  0.06487  0.80221  1.0000
  H   H16       1.0  0.93511  0.78191  0.19779  1.0000
  H   H17       1.0  0.43950  0.27747  0.11550  1.0000
  H   H18       1.0  0.72252  0.56050  0.88450  1.0000
  H   H19       1.0  0.56051  0.72253  0.88450  1.0000
  H   H20       1.0  0.27748  0.43950  0.11550  1.0000
  C   C1        1.0  0.81684  0.31575  0.35713  1.0000
  C   C2        1.0  0.68426  0.18316  0.64287  1.0000
  C   C3        1.0  0.18316  0.68426  0.64288  1.0000
  C   C4        1.0  0.31574  0.81683  0.35712  1.0000
  C   C5        1.0  0.77474  0.37199  0.24977  1.0000
  C   C6        1.0  0.62801  0.22524  0.75022  1.0000
  C   C7        1.0  0.22524  0.62801  0.75021  1.0000
  C   C8        1.0  0.37198  0.77475  0.24978  1.0000
  C   C9        1.0  0.73356  0.26494  0.11429  1.0000
  C   C10       1.0  0.73507  0.26643  0.88572  1.0000
  C   C11       1.0  0.26644  0.73506  0.88572  1.0000
  C   C12       1.0  0.26493  0.73356  0.11428  1.0000
  C   C13       1.0  0.73607  0.10441  0.09602  1.0000
  C   C14       1.0  0.89560  0.26394  0.90398  1.0000
  C   C15       1.0  0.26392  0.89558  0.90398  1.0000
  C   C16       1.0  0.10440  0.73606  0.09602  1.0000
  C   C17       1.0  0.78168  0.06021  0.20959  1.0000
  C   C18       1.0  0.93981  0.21833  0.79042  1.0000
  C   C19       1.0  0.21831  0.93979  0.79042  1.0000
  C   C20       1.0  0.06020  0.78167  0.20958  1.0000
  C   C21       1.0  0.59352  0.40648  1.00000  1.0000
  C   C22       1.0  0.40648  0.59352  1.00000  1.0000
  C   C23       1.0  0.46614  0.37424  0.06387  1.0000
  C   C24       1.0  0.62577  0.53388  0.93613  1.0000
  C   C25       1.0  0.53386  0.62576  0.93613  1.0000
  C   C26       1.0  0.37423  0.46613  0.06387  1.0000
  N   N1        1.0  0.82384  0.16370  0.34052  1.0000
  N   N2        1.0  0.83630  0.17616  0.65948  1.0000
  N   N3        1.0  0.17616  0.83629  0.65947  1.0000
  N   N4        1.0  0.16371  0.82384  0.34052  1.0000
  N   N5        1.0  0.68762  0.31238  1.00000  1.0000
  N   N6        1.0  0.31239  0.68762  0.00000  1.0000
  Cl  Cl1       1.0  0.78354  0.78354  0.40348  1.0000
  Cl  Cl2       1.0  0.21647  0.21647  0.59651  1.0000
