data_image0
_chemical_formula_structural       CuH30C30N6O6
_chemical_formula_sum              "Cu1 H30 C30 N6 O6"
_cell_length_a       6.89578
_cell_length_b       7.81408
_cell_length_c       15.6062
_cell_angle_alpha    79.3635
_cell_angle_beta     77.9032
_cell_angle_gamma    68.5709

_space_group_name_H-M_alt    "P 1"
_space_group_IT_number       1

loop_
  _space_group_symop_operation_xyz
  'x, y, z'

loop_
  _atom_site_type_symbol
  _atom_site_label
  _atom_site_symmetry_multiplicity
  _atom_site_fract_x
  _atom_site_fract_y
  _atom_site_fract_z
  _atom_site_occupancy
  Cu  Cu1       1.0  0.50000  0.50000  0.50000  1.0000
  H   H1        1.0  0.50824  0.41401  0.32582  1.0000
  H   H2        1.0  0.49176  0.58600  0.67418  1.0000
  H   H3        1.0  0.76448  0.35646  0.18600  1.0000
  H   H4        1.0  0.23553  0.64353  0.81399  1.0000
  H   H5        1.0  0.20287  0.46253  0.31426  1.0000
  H   H6        1.0  0.79714  0.53746  0.68574  1.0000
  H   H7        1.0  0.92657  0.52095  0.44505  1.0000
  H   H8        1.0  0.07344  0.47903  0.55495  1.0000
  H   H9        1.0  0.31568  0.11169  0.29894  1.0000
  H   H10       1.0  0.68433  0.88832  0.70106  1.0000
  H   H11       1.0  0.67848  0.90060  0.29361  1.0000
  H   H12       1.0  0.32152  0.09940  0.70639  1.0000
  H   H13       1.0  0.85035  0.11537  0.03752  1.0000
  H   H14       1.0  0.14965  0.88463  0.96248  1.0000
  H   H15       1.0  0.49203  0.33847  0.03061  1.0000
  H   H16       1.0  0.50797  0.66154  0.96940  1.0000
  H   H17       1.0  0.21765  0.16782  0.02667  1.0000
  H   H18       1.0  0.78235  0.83217  0.97334  1.0000
  H   H19       1.0  0.92849  0.71158  0.11309  1.0000
  H   H20       1.0  0.07151  0.28841  0.88691  1.0000
  H   H21       1.0  0.04509  0.92777  0.61931  1.0000
  H   H22       1.0  0.95489  0.07223  0.38069  1.0000
  H   H23       1.0  0.93420  0.08606  0.70018  1.0000
  H   H24       1.0  0.06577  0.91394  0.29982  1.0000
  H   H25       1.0  0.09905  0.13959  0.60290  1.0000
  H   H26       1.0  0.90093  0.86041  0.39711  1.0000
  H   H27       1.0  0.48120  0.17157  0.50291  1.0000
  H   H28       1.0  0.51878  0.82844  0.49709  1.0000
  H   H29       1.0  0.32210  0.14140  0.45334  1.0000
  H   H30       1.0  0.67789  0.85861  0.54666  1.0000
  C   C1        1.0  0.66281  0.42669  0.31850  1.0000
  C   C2        1.0  0.33720  0.57331  0.68149  1.0000
  C   C3        1.0  0.80660  0.39335  0.24173  1.0000
  C   C4        1.0  0.19340  0.60665  0.75827  1.0000
  C   C5        1.0  0.00833  0.40123  0.23833  1.0000
  C   C6        1.0  0.99167  0.59877  0.76167  1.0000
  C   C7        1.0  0.05268  0.44856  0.31258  1.0000
  C   C8        1.0  0.94733  0.55144  0.68742  1.0000
  C   C9        1.0  0.89919  0.48112  0.38676  1.0000
  C   C10       1.0  0.10083  0.51887  0.61324  1.0000
  C   C11       1.0  0.36697  0.24595  0.16425  1.0000
  C   C12       1.0  0.63305  0.75405  0.83575  1.0000
  C   C13       1.0  0.42689  0.12018  0.23895  1.0000
  C   C14       1.0  0.57312  0.87981  0.76105  1.0000
  C   C15       1.0  0.63408  0.99975  0.23579  1.0000
  C   C16       1.0  0.36592  0.00025  0.76421  1.0000
  C   C17       1.0  0.72779  0.11698  0.09479  1.0000
  C   C18       1.0  0.27222  0.88302  0.90521  1.0000
  C   C19       1.0  0.52590  0.24434  0.09068  1.0000
  C   C20       1.0  0.47411  0.75566  0.90932  1.0000
  C   C21       1.0  0.08256  0.43138  0.07884  1.0000
  C   C22       1.0  0.91745  0.56861  0.92116  1.0000
  C   C23       1.0  0.12373  0.31375  0.01458  1.0000
  C   C24       1.0  0.87628  0.68624  0.98542  1.0000
  C   C25       1.0  0.95835  0.61815  0.06394  1.0000
  C   C26       1.0  0.04167  0.38184  0.93606  1.0000
  C   C27       1.0  0.78752  0.17116  0.58331  1.0000
  C   C28       1.0  0.21246  0.82884  0.41670  1.0000
  C   C29       1.0  0.97889  0.07435  0.62902  1.0000
  C   C30       1.0  0.02108  0.92566  0.37099  1.0000
  N   N1        1.0  0.70778  0.46901  0.39020  1.0000
  N   N2        1.0  0.29223  0.53099  0.60980  1.0000
  N   N3        1.0  0.15859  0.36337  0.16120  1.0000
  N   N4        1.0  0.84141  0.63663  0.83880  1.0000
  N   N5        1.0  0.78614  0.99390  0.16531  1.0000
  N   N6        1.0  0.21387  0.00610  0.83469  1.0000
  O   O1        1.0  0.73275  0.34880  0.56917  1.0000
  O   O2        1.0  0.26726  0.65121  0.43083  1.0000
  O   O3        1.0  0.69154  0.07824  0.56263  1.0000
  O   O4        1.0  0.30843  0.92178  0.43739  1.0000
  O   O5        1.0  0.36154  0.23860  0.46974  1.0000
  O   O6        1.0  0.63846  0.76141  0.53024  1.0000
