data_image0
_chemical_formula_structural       Cu4H56C60S8I4F8
_chemical_formula_sum              "Cu4 H56 C60 S8 I4 F8"
_cell_length_a       7.40201
_cell_length_b       15.657
_cell_length_c       15.9517
_cell_angle_alpha    118.592
_cell_angle_beta     89.9996
_cell_angle_gamma    89.9999

_space_group_name_H-M_alt    "P 1"
_space_group_IT_number       1

loop_
  _space_group_symop_operation_xyz
  'x, y, z'

loop_
  _atom_site_type_symbol
  _atom_site_label
  _atom_site_symmetry_multiplicity
  _atom_site_fract_x
  _atom_site_fract_y
  _atom_site_fract_z
  _atom_site_occupancy
  Cu  Cu1       1.0  0.02724  0.52445  0.59058  1.0000
  Cu  Cu2       1.0  0.52724  0.97555  0.40942  1.0000
  Cu  Cu3       1.0  0.97276  0.47555  0.40942  1.0000
  Cu  Cu4       1.0  0.47276  0.02445  0.59058  1.0000
  H   H1        1.0  0.57271  0.49511  0.56496  1.0000
  H   H2        1.0  0.07271  0.00489  0.43503  1.0000
  H   H3        1.0  0.42729  0.50489  0.43504  1.0000
  H   H4        1.0  0.92729  0.99511  0.56496  1.0000
  H   H5        1.0  0.68565  0.38775  0.54682  1.0000
  H   H6        1.0  0.18566  0.11224  0.45318  1.0000
  H   H7        1.0  0.31434  0.61225  0.45318  1.0000
  H   H8        1.0  0.81435  0.88775  0.54682  1.0000
  H   H9        1.0  0.15334  0.77868  0.72076  1.0000
  H   H10       1.0  0.65333  0.72133  0.27924  1.0000
  H   H11       1.0  0.84667  0.22133  0.27925  1.0000
  H   H12       1.0  0.34666  0.27867  0.72075  1.0000
  H   H13       1.0  0.78219  0.59379  0.88469  1.0000
  H   H14       1.0  0.28219  0.90621  0.11531  1.0000
  H   H15       1.0  0.21781  0.40621  0.11531  1.0000
  H   H16       1.0  0.71782  0.09379  0.88469  1.0000
  H   H17       1.0  0.45535  0.55707  0.78671  1.0000
  H   H18       1.0  0.95535  0.94294  0.21329  1.0000
  H   H19       1.0  0.54465  0.44293  0.21329  1.0000
  H   H20       1.0  0.04465  0.05706  0.78671  1.0000
  H   H21       1.0  0.25155  0.48664  0.75313  1.0000
  H   H22       1.0  0.75156  0.01337  0.24687  1.0000
  H   H23       1.0  0.74845  0.51337  0.24688  1.0000
  H   H24       1.0  0.24845  0.98663  0.75312  1.0000
  H   H25       1.0  0.89774  0.33088  0.62306  1.0000
  H   H26       1.0  0.39774  0.16912  0.37694  1.0000
  H   H27       1.0  0.10226  0.66912  0.37694  1.0000
  H   H28       1.0  0.60226  0.83088  0.62306  1.0000
  H   H29       1.0  0.51310  0.38153  0.67605  1.0000
  H   H30       1.0  0.01310  0.11847  0.32395  1.0000
  H   H31       1.0  0.48690  0.61847  0.32395  1.0000
  H   H32       1.0  0.98690  0.88153  0.67605  1.0000
  H   H33       1.0  0.36570  0.38294  0.59020  1.0000
  H   H34       1.0  0.86571  0.11706  0.40980  1.0000
  H   H35       1.0  0.63429  0.61706  0.40980  1.0000
  H   H36       1.0  0.13430  0.88294  0.59019  1.0000
  H   H37       1.0  0.04471  0.75743  0.01805  1.0000
  H   H38       1.0  0.54473  0.74256  0.98195  1.0000
  H   H39       1.0  0.95528  0.24256  0.98196  1.0000
  H   H40       1.0  0.45528  0.25743  0.01804  1.0000
  H   H41       1.0  0.96183  0.24428  0.71703  1.0000
  H   H42       1.0  0.46184  0.25572  0.28297  1.0000
  H   H43       1.0  0.03817  0.75572  0.28297  1.0000
  H   H44       1.0  0.53816  0.74428  0.71703  1.0000
  H   H45       1.0  0.18970  0.61994  0.87975  1.0000
  H   H46       1.0  0.68971  0.88005  0.12025  1.0000
  H   H47       1.0  0.81029  0.38005  0.12025  1.0000
  H   H48       1.0  0.31031  0.11994  0.87974  1.0000
  H   H49       1.0  0.00634  0.91686  0.86167  1.0000
  H   H50       1.0  0.50633  0.58315  0.13833  1.0000
  H   H51       1.0  0.99366  0.08315  0.13834  1.0000
  H   H52       1.0  0.49364  0.41686  0.86166  1.0000
  H   H53       1.0  0.85081  0.50717  0.97805  1.0000
  H   H54       1.0  0.35082  0.99283  0.02195  1.0000
  H   H55       1.0  0.14919  0.49283  0.02195  1.0000
  H   H56       1.0  0.64920  0.00717  0.97805  1.0000
  C   C1        1.0  0.61749  0.45363  0.60066  1.0000
  C   C2        1.0  0.11750  0.04637  0.39934  1.0000
  C   C3        1.0  0.38250  0.54638  0.39934  1.0000
  C   C4        1.0  0.88251  0.95362  0.60065  1.0000
  C   C5        1.0  0.01808  0.84259  0.94552  1.0000
  C   C6        1.0  0.51808  0.65741  0.05448  1.0000
  C   C7        1.0  0.98192  0.15741  0.05449  1.0000
  C   C8        1.0  0.48190  0.34259  0.94552  1.0000
  C   C9        1.0  0.18026  0.68984  0.79024  1.0000
  C   C10       1.0  0.68025  0.81017  0.20976  1.0000
  C   C11       1.0  0.81974  0.31016  0.20977  1.0000
  C   C12       1.0  0.31975  0.18983  0.79023  1.0000
  C   C13       1.0  0.13016  0.77423  0.78601  1.0000
  C   C14       1.0  0.63016  0.72578  0.21399  1.0000
  C   C15       1.0  0.86986  0.22578  0.21400  1.0000
  C   C16       1.0  0.36984  0.27422  0.78600  1.0000
  C   C17       1.0  0.82440  0.51785  0.84806  1.0000
  C   C18       1.0  0.32440  0.98215  0.15194  1.0000
  C   C19       1.0  0.17560  0.48216  0.15194  1.0000
  C   C20       1.0  0.67561  0.01785  0.84806  1.0000
  C   C21       1.0  0.36380  0.51341  0.72708  1.0000
  C   C22       1.0  0.86381  0.98659  0.27293  1.0000
  C   C23       1.0  0.63620  0.48660  0.27293  1.0000
  C   C24       1.0  0.13620  0.01340  0.72707  1.0000
  C   C25       1.0  0.83706  0.46815  0.74825  1.0000
  C   C26       1.0  0.33705  0.03185  0.25175  1.0000
  C   C27       1.0  0.16296  0.53185  0.25176  1.0000
  C   C28       1.0  0.66295  0.96815  0.74825  1.0000
  C   C29       1.0  0.88786  0.36983  0.70073  1.0000
  C   C30       1.0  0.38787  0.13017  0.29927  1.0000
  C   C31       1.0  0.11214  0.63018  0.29927  1.0000
  C   C32       1.0  0.61213  0.86983  0.70073  1.0000
  C   C33       1.0  0.46197  0.42790  0.64685  1.0000
  C   C34       1.0  0.96197  0.07210  0.35316  1.0000
  C   C35       1.0  0.53803  0.57211  0.35316  1.0000
  C   C36       1.0  0.03803  0.92789  0.64684  1.0000
  C   C37       1.0  0.06955  0.76126  0.95272  1.0000
  C   C38       1.0  0.56957  0.73873  0.04727  1.0000
  C   C39       1.0  0.93043  0.23873  0.04728  1.0000
  C   C40       1.0  0.43043  0.26127  0.95272  1.0000
  C   C41       1.0  0.92562  0.32117  0.75250  1.0000
  C   C42       1.0  0.42564  0.17882  0.24750  1.0000
  C   C43       1.0  0.07436  0.67883  0.24750  1.0000
  C   C44       1.0  0.57436  0.82118  0.75250  1.0000
  C   C45       1.0  0.15136  0.68401  0.87411  1.0000
  C   C46       1.0  0.65137  0.81598  0.12589  1.0000
  C   C47       1.0  0.84862  0.31598  0.12589  1.0000
  C   C48       1.0  0.34864  0.18401  0.87410  1.0000
  C   C49       1.0  0.04766  0.85130  0.86384  1.0000
  C   C50       1.0  0.54765  0.64871  0.13616  1.0000
  C   C51       1.0  0.95236  0.14871  0.13617  1.0000
  C   C52       1.0  0.45234  0.35130  0.86384  1.0000
  C   C53       1.0  0.91393  0.37299  0.85145  1.0000
  C   C54       1.0  0.41394  0.12701  0.14856  1.0000
  C   C55       1.0  0.08606  0.62701  0.14855  1.0000
  C   C56       1.0  0.58606  0.87299  0.85145  1.0000
  C   C57       1.0  0.86415  0.47032  0.90071  1.0000
  C   C58       1.0  0.36416  0.02967  0.09929  1.0000
  C   C59       1.0  0.13585  0.52968  0.09929  1.0000
  C   C60       1.0  0.63586  0.97032  0.90072  1.0000
  S   S1        1.0  0.78514  0.53370  0.68609  1.0000
  S   S2        1.0  0.28514  0.96629  0.31391  1.0000
  S   S3        1.0  0.21486  0.46630  0.31391  1.0000
  S   S4        1.0  0.71485  0.03370  0.68608  1.0000
  S   S5        1.0  0.27425  0.59426  0.68484  1.0000
  S   S6        1.0  0.77425  0.90574  0.31516  1.0000
  S   S7        1.0  0.72575  0.40574  0.31516  1.0000
  S   S8        1.0  0.22575  0.09425  0.68484  1.0000
  I   I1        1.0  0.07864  0.34525  0.46057  1.0000
  I   I2        1.0  0.57864  0.15475  0.53942  1.0000
  I   I3        1.0  0.92136  0.65475  0.53943  1.0000
  I   I4        1.0  0.42137  0.84525  0.46057  1.0000
  F   F1        1.0  0.93459  0.91740  0.02256  1.0000
  F   F2        1.0  0.43461  0.58259  0.97744  1.0000
  F   F3        1.0  0.06539  0.08259  0.97745  1.0000
  F   F4        1.0  0.56537  0.41741  0.02256  1.0000
  F   F5        1.0  0.95096  0.32576  0.90287  1.0000
  F   F6        1.0  0.45099  0.17424  0.09714  1.0000
  F   F7        1.0  0.04903  0.67425  0.09713  1.0000
  F   F8        1.0  0.54903  0.82576  0.90287  1.0000
