data_image0
_chemical_formula_structural       Ag2H22C34N8O10
_chemical_formula_sum              "Ag2 H22 C34 N8 O10"
_cell_length_a       7.55998
_cell_length_b       8.08161
_cell_length_c       14.0323
_cell_angle_alpha    74.7428
_cell_angle_beta     79.4502
_cell_angle_gamma    73.3884

_space_group_name_H-M_alt    "P 1"
_space_group_IT_number       1

loop_
  _space_group_symop_operation_xyz
  'x, y, z'

loop_
  _atom_site_type_symbol
  _atom_site_label
  _atom_site_symmetry_multiplicity
  _atom_site_fract_x
  _atom_site_fract_y
  _atom_site_fract_z
  _atom_site_occupancy
  Ag  Ag1       1.0  0.38143  0.36145  0.51901  1.0000
  Ag  Ag2       1.0  0.61856  0.63856  0.48099  1.0000
  H   H1        1.0  0.48748  0.49063  0.29735  1.0000
  H   H2        1.0  0.51251  0.50937  0.70265  1.0000
  H   H3        1.0  0.95289  0.09222  0.20090  1.0000
  H   H4        1.0  0.04710  0.90778  0.79911  1.0000
  H   H5        1.0  0.92728  0.90540  0.37364  1.0000
  H   H6        1.0  0.07272  0.09460  0.62636  1.0000
  H   H7        1.0  0.67420  0.02560  0.50107  1.0000
  H   H8        1.0  0.32580  0.97441  0.49894  1.0000
  H   H9        1.0  0.79039  0.68244  0.97162  1.0000
  H   H10       1.0  0.20962  0.31755  0.02838  1.0000
  H   H11       1.0  0.53095  0.92327  0.89262  1.0000
  H   H12       1.0  0.46906  0.07672  0.10738  1.0000
  H   H13       1.0  0.20059  0.93155  0.97235  1.0000
  H   H14       1.0  0.79942  0.06845  0.02764  1.0000
  H   H15       1.0  0.81155  0.76462  0.27393  1.0000
  H   H16       1.0  0.18845  0.23539  0.72606  1.0000
  H   H17       1.0  0.28208  0.34281  0.21094  1.0000
  H   H18       1.0  0.71792  0.65719  0.78906  1.0000
  H   H19       1.0  0.19726  0.16184  0.37639  1.0000
  H   H20       1.0  0.80273  0.83816  0.62361  1.0000
  H   H21       1.0  0.92136  0.29592  0.48830  1.0000
  H   H22       1.0  0.07864  0.70408  0.51170  1.0000
  C   C1        1.0  0.58614  0.36157  0.31004  1.0000
  C   C2        1.0  0.41386  0.63843  0.68996  1.0000
  C   C3        1.0  0.72043  0.30497  0.23449  1.0000
  C   C4        1.0  0.27957  0.69503  0.76551  1.0000
  C   C5        1.0  0.84447  0.13778  0.25769  1.0000
  C   C6        1.0  0.15553  0.86221  0.74232  1.0000
  C   C7        1.0  0.82997  0.03419  0.35376  1.0000
  C   C8        1.0  0.17003  0.96582  0.64625  1.0000
  C   C9        1.0  0.69245  0.09968  0.42441  1.0000
  C   C10       1.0  0.30754  0.90032  0.57559  1.0000
  C   C11       1.0  0.75190  0.41713  0.13225  1.0000
  C   C12       1.0  0.24809  0.58287  0.86775  1.0000
  C   C13       1.0  0.60113  0.56854  0.08829  1.0000
  C   C14       1.0  0.39887  0.43145  0.91171  1.0000
  C   C15       1.0  0.64553  0.69238  0.00253  1.0000
  C   C16       1.0  0.35448  0.30761  0.99747  1.0000
  C   C17       1.0  0.50059  0.82528  0.95941  1.0000
  C   C18       1.0  0.49942  0.17472  0.04059  1.0000
  C   C19       1.0  0.31846  0.83014  0.00282  1.0000
  C   C20       1.0  0.68155  0.16986  0.99718  1.0000
  C   C21       1.0  0.28794  0.70124  0.08895  1.0000
  C   C22       1.0  0.71206  0.29875  0.91105  1.0000
  C   C23       1.0  0.09383  0.70539  0.13765  1.0000
  C   C24       1.0  0.90618  0.29461  0.86234  1.0000
  C   C25       1.0  0.90233  0.63284  0.29596  1.0000
  C   C26       1.0  0.09767  0.36716  0.70404  1.0000
  C   C27       1.0  0.05856  0.57294  0.23159  1.0000
  C   C28       1.0  0.94144  0.42706  0.76841  1.0000
  C   C29       1.0  0.16471  0.39871  0.26004  1.0000
  C   C30       1.0  0.83529  0.60129  0.73996  1.0000
  C   C31       1.0  0.11638  0.29738  0.35301  1.0000
  C   C32       1.0  0.88362  0.70263  0.64699  1.0000
  C   C33       1.0  0.96450  0.36958  0.41479  1.0000
  C   C34       1.0  0.03549  0.63043  0.58521  1.0000
  N   N1        1.0  0.57356  0.26101  0.40307  1.0000
  N   N2        1.0  0.42643  0.73900  0.59693  1.0000
  N   N3        1.0  0.42643  0.57397  0.13101  1.0000
  N   N4        1.0  0.57357  0.42602  0.86899  1.0000
  N   N5        1.0  0.85652  0.53483  0.38576  1.0000
  N   N6        1.0  0.14348  0.46518  0.61424  1.0000
  N   N7        1.0  0.66238  0.14234  0.68719  1.0000
  N   N8        1.0  0.33762  0.85766  0.31281  1.0000
  O   O1        1.0  0.90505  0.38108  0.08320  1.0000
  O   O2        1.0  0.09496  0.61891  0.91681  1.0000
  O   O3        1.0  0.96141  0.82269  0.10378  1.0000
  O   O4        1.0  0.03859  0.17731  0.89622  1.0000
  O   O5        1.0  0.53258  0.09058  0.66585  1.0000
  O   O6        1.0  0.46742  0.90943  0.33415  1.0000
  O   O7        1.0  0.71852  0.27117  0.62710  1.0000
  O   O8        1.0  0.28148  0.72883  0.37290  1.0000
  O   O9        1.0  0.73484  0.06611  0.76631  1.0000
  O   O10       1.0  0.26516  0.93389  0.23369  1.0000
