data_image0
_chemical_formula_structural       Ag2H22C34N6Cl2O12
_chemical_formula_sum              "Ag2 H22 C34 N6 Cl2 O12"
_cell_length_a       7.48084
_cell_length_b       8.39179
_cell_length_c       14.2132
_cell_angle_alpha    106.619
_cell_angle_beta     92.4682
_cell_angle_gamma    103.72

_space_group_name_H-M_alt    "P 1"
_space_group_IT_number       1

loop_
  _space_group_symop_operation_xyz
  'x, y, z'

loop_
  _atom_site_type_symbol
  _atom_site_label
  _atom_site_symmetry_multiplicity
  _atom_site_fract_x
  _atom_site_fract_y
  _atom_site_fract_z
  _atom_site_occupancy
  Ag  Ag1       1.0  0.63698  0.37578  0.00978  1.0000
  Ag  Ag2       1.0  0.36302  0.62423  0.99022  1.0000
  H   H1        1.0  0.83012  0.45597  0.22271  1.0000
  H   H2        1.0  0.16988  0.54402  0.77729  1.0000
  H   H3        1.0  0.24252  0.93944  0.28645  1.0000
  H   H4        1.0  0.75746  0.06057  0.71355  1.0000
  H   H5        1.0  0.14988  0.94704  0.11839  1.0000
  H   H6        1.0  0.85011  0.05296  0.88162  1.0000
  H   H7        1.0  0.90021  0.70004  0.00546  1.0000
  H   H8        1.0  0.09980  0.29996  0.99454  1.0000
  H   H9        1.0  0.20986  0.59420  0.52490  1.0000
  H   H10       1.0  0.79014  0.40579  0.47510  1.0000
  H   H11       1.0  0.53954  0.67576  0.60298  1.0000
  H   H12       1.0  0.46047  0.32424  0.39702  1.0000
  H   H13       1.0  0.78886  0.84684  0.52874  1.0000
  H   H14       1.0  0.21114  0.15316  0.47125  1.0000
  H   H15       1.0  0.90961  0.19760  0.29644  1.0000
  H   H16       1.0  0.09040  0.80240  0.70356  1.0000
  H   H17       1.0  0.87956  0.19910  0.11991  1.0000
  H   H18       1.0  0.12045  0.80091  0.88009  1.0000
  H   H19       1.0  0.65124  0.95209  0.99504  1.0000
  H   H20       1.0  0.34877  0.04792  0.00496  1.0000
  H   H21       1.0  0.48850  0.71516  0.20756  1.0000
  H   H22       1.0  0.51150  0.28485  0.79244  1.0000
  C   C1        1.0  0.90641  0.56332  0.19990  1.0000
  C   C2        1.0  0.09358  0.43668  0.80010  1.0000
  C   C3        1.0  0.04782  0.69198  0.26597  1.0000
  C   C4        1.0  0.95217  0.30802  0.73403  1.0000
  C   C5        1.0  0.13614  0.83371  0.23669  1.0000
  C   C6        1.0  0.86385  0.16629  0.76332  1.0000
  C   C7        1.0  0.08385  0.83721  0.14208  1.0000
  C   C8        1.0  0.91614  0.16279  0.85793  1.0000
  C   C9        1.0  0.94605  0.70226  0.07977  1.0000
  C   C10       1.0  0.05395  0.29774  0.92023  1.0000
  C   C11       1.0  0.08822  0.66334  0.36331  1.0000
  C   C12       1.0  0.91177  0.33665  0.63669  1.0000
  C   C13       1.0  0.28356  0.71754  0.41251  1.0000
  C   C14       1.0  0.71643  0.28246  0.58749  1.0000
  C   C15       1.0  0.32210  0.66868  0.49623  1.0000
  C   C16       1.0  0.67790  0.33132  0.50377  1.0000
  C   C17       1.0  0.50524  0.71450  0.53904  1.0000
  C   C18       1.0  0.49476  0.28550  0.46096  1.0000
  C   C19       1.0  0.64336  0.80802  0.49828  1.0000
  C   C20       1.0  0.35665  0.19197  0.50172  1.0000
  C   C21       1.0  0.59136  0.85018  0.41419  1.0000
  C   C22       1.0  0.40864  0.14981  0.58581  1.0000
  C   C23       1.0  0.73616  0.95151  0.36934  1.0000
  C   C24       1.0  0.26384  0.04848  0.63066  1.0000
  C   C25       1.0  0.69981  0.95737  0.26588  1.0000
  C   C26       1.0  0.30019  0.04263  0.73412  1.0000
  C   C27       1.0  0.80978  0.09526  0.24021  1.0000
  C   C28       1.0  0.19023  0.90474  0.75980  1.0000
  C   C29       1.0  0.79312  0.09569  0.14252  1.0000
  C   C30       1.0  0.20688  0.90432  0.85748  1.0000
  C   C31       1.0  0.66714  0.96010  0.07294  1.0000
  C   C32       1.0  0.33286  0.03991  0.92706  1.0000
  C   C33       1.0  0.57484  0.82610  0.19193  1.0000
  C   C34       1.0  0.42516  0.17391  0.80806  1.0000
  N   N1        1.0  0.85617  0.56731  0.10878  1.0000
  N   N2        1.0  0.14383  0.43269  0.89122  1.0000
  N   N3        1.0  0.41549  0.80521  0.37196  1.0000
  N   N4        1.0  0.58451  0.19479  0.62804  1.0000
  N   N5        1.0  0.55907  0.82780  0.09734  1.0000
  N   N6        1.0  0.44093  0.17220  0.90266  1.0000
  Cl  Cl1       1.0  0.64302  0.65032  0.79388  1.0000
  Cl  Cl2       1.0  0.35698  0.34969  0.20612  1.0000
  O   O1        1.0  0.96114  0.58582  0.39881  1.0000
  O   O2        1.0  0.03886  0.41418  0.60119  1.0000
  O   O3        1.0  0.88857  0.03180  0.41704  1.0000
  O   O4        1.0  0.11143  0.96818  0.58295  1.0000
  O   O5        1.0  0.60696  0.81909  0.83601  1.0000
  O   O6        1.0  0.39304  0.18092  0.16398  1.0000
  O   O7        1.0  0.68878  0.58454  0.87534  1.0000
  O   O8        1.0  0.31122  0.41546  0.12466  1.0000
  O   O9        1.0  0.79897  0.66708  0.73636  1.0000
  O   O10       1.0  0.20103  0.33293  0.26364  1.0000
  O   O11       1.0  0.47816  0.53162  0.73158  1.0000
  O   O12       1.0  0.52184  0.46838  0.26841  1.0000
