data_image0
_chemical_formula_structural       Ni2H18C26N2O10
_chemical_formula_sum              "Ni2 H18 C26 N2 O10"
_cell_length_a       7.13236
_cell_length_b       10.0904
_cell_length_c       9.89285
_cell_angle_alpha    112.852
_cell_angle_beta     96.736
_cell_angle_gamma    107.187

_space_group_name_H-M_alt    "P 1"
_space_group_IT_number       1

loop_
  _space_group_symop_operation_xyz
  'x, y, z'

loop_
  _atom_site_type_symbol
  _atom_site_label
  _atom_site_symmetry_multiplicity
  _atom_site_fract_x
  _atom_site_fract_y
  _atom_site_fract_z
  _atom_site_occupancy
  Ni  Ni1       1.0  0.08460  0.87982  0.87696  1.0000
  Ni  Ni2       1.0  0.91541  0.12018  0.12304  1.0000
  H   H1        1.0  0.43987  0.99397  0.82774  1.0000
  H   H2        1.0  0.56013  0.00603  0.17225  1.0000
  H   H3        1.0  0.24846  0.99679  0.73274  1.0000
  H   H4        1.0  0.75154  0.00321  0.26726  1.0000
  H   H5        1.0  0.11975  0.42267  0.83249  1.0000
  H   H6        1.0  0.88024  0.57733  0.16751  1.0000
  H   H7        1.0  0.45436  0.81138  0.26610  1.0000
  H   H8        1.0  0.54565  0.18863  0.73390  1.0000
  H   H9        1.0  0.39158  0.34911  0.19457  1.0000
  H   H10       1.0  0.60843  0.65089  0.80543  1.0000
  H   H11       1.0  0.49227  0.84898  0.50988  1.0000
  H   H12       1.0  0.50773  0.15101  0.49011  1.0000
  H   H13       1.0  0.75397  0.96057  0.75327  1.0000
  H   H14       1.0  0.24602  0.03942  0.24672  1.0000
  H   H15       1.0  0.95751  0.59866  0.59546  1.0000
  H   H16       1.0  0.04249  0.40135  0.40455  1.0000
  H   H17       1.0  0.71436  0.47546  0.33979  1.0000
  H   H18       1.0  0.28565  0.52454  0.66021  1.0000
  C   C1        1.0  0.16639  0.19827  0.90501  1.0000
  C   C2        1.0  0.83362  0.80173  0.09499  1.0000
  C   C3        1.0  0.24455  0.36872  0.00506  1.0000
  C   C4        1.0  0.75545  0.63128  0.99494  1.0000
  C   C5        1.0  0.20797  0.46844  0.94916  1.0000
  C   C6        1.0  0.79203  0.53156  0.05085  1.0000
  C   C7        1.0  0.28174  0.62812  0.04453  1.0000
  C   C8        1.0  0.71825  0.37187  0.95548  1.0000
  C   C9        1.0  0.39482  0.68695  0.19425  1.0000
  C   C10       1.0  0.60518  0.31306  0.80575  1.0000
  C   C11       1.0  0.44143  0.58839  0.24933  1.0000
  C   C12       1.0  0.55856  0.41161  0.75067  1.0000
  C   C13       1.0  0.36217  0.42891  0.15396  1.0000
  C   C14       1.0  0.63784  0.57109  0.84604  1.0000
  C   C15       1.0  0.58163  0.65294  0.40054  1.0000
  C   C16       1.0  0.41837  0.34706  0.59946  1.0000
  C   C17       1.0  0.59510  0.79048  0.52105  1.0000
  C   C18       1.0  0.40490  0.20952  0.47894  1.0000
  C   C19       1.0  0.73904  0.85305  0.65852  1.0000
  C   C20       1.0  0.26095  0.14695  0.34148  1.0000
  C   C21       1.0  0.85255  0.65017  0.56934  1.0000
  C   C22       1.0  0.14745  0.34984  0.43066  1.0000
  C   C23       1.0  0.71393  0.58164  0.42837  1.0000
  C   C24       1.0  0.28608  0.41836  0.57163  1.0000
  C   C25       1.0  0.23819  0.73272  0.98400  1.0000
  C   C26       1.0  0.76180  0.26728  0.01600  1.0000
  N   N1        1.0  0.86694  0.78470  0.68268  1.0000
  N   N2        1.0  0.13305  0.21530  0.31732  1.0000
  O   O1        1.0  0.11390  0.67300  0.85315  1.0000
  O   O2        1.0  0.88610  0.32700  0.14686  1.0000
  O   O3        1.0  0.31559  0.88077  0.06255  1.0000
  O   O4        1.0  0.68440  0.11923  0.93745  1.0000
  O   O5        1.0  0.30179  0.92540  0.75738  1.0000
  O   O6        1.0  0.69820  0.07459  0.24262  1.0000
  O   O7        1.0  0.16232  0.14775  0.76711  1.0000
  O   O8        1.0  0.83768  0.85225  0.23289  1.0000
  O   O9        1.0  0.11356  0.10942  0.97245  1.0000
  O   O10       1.0  0.88645  0.89059  0.02755  1.0000
