data_image0
_chemical_formula_structural       Co4H44C52N4O24
_chemical_formula_sum              "Co4 H44 C52 N4 O24"
_cell_length_a       9.84533
_cell_length_b       9.60216
_cell_length_c       15.7182
_cell_angle_alpha    99.5396
_cell_angle_beta     90.0274
_cell_angle_gamma    120.83

_space_group_name_H-M_alt    "P 1"
_space_group_IT_number       1

loop_
  _space_group_symop_operation_xyz
  'x, y, z'

loop_
  _atom_site_type_symbol
  _atom_site_label
  _atom_site_symmetry_multiplicity
  _atom_site_fract_x
  _atom_site_fract_y
  _atom_site_fract_z
  _atom_site_occupancy
  Co  Co1       1.0  0.21537  0.29288  0.77602  1.0000
  Co  Co2       1.0  0.92257  0.70703  0.72401  1.0000
  Co  Co3       1.0  0.78464  0.70712  0.22398  1.0000
  Co  Co4       1.0  0.07743  0.29296  0.27599  1.0000
  H   H1        1.0  0.24253  0.51150  0.68617  1.0000
  H   H2        1.0  0.73096  0.48847  0.81377  1.0000
  H   H3        1.0  0.75748  0.48850  0.31383  1.0000
  H   H4        1.0  0.26903  0.51153  0.18623  1.0000
  H   H5        1.0  0.18206  0.32926  0.63239  1.0000
  H   H6        1.0  0.85303  0.67058  0.86763  1.0000
  H   H7        1.0  0.81794  0.67074  0.36761  1.0000
  H   H8        1.0  0.14697  0.32942  0.13237  1.0000
  H   H9        1.0  0.06336  0.06670  0.88999  1.0000
  H   H10       1.0  0.99640  0.93338  0.61017  1.0000
  H   H11       1.0  0.93664  0.93329  0.11001  1.0000
  H   H12       1.0  0.00360  0.06662  0.38983  1.0000
  H   H13       1.0  0.17394  0.03030  0.83518  1.0000
  H   H14       1.0  0.14351  0.96953  0.66480  1.0000
  H   H15       1.0  0.82606  0.96969  0.16482  1.0000
  H   H16       1.0  0.85649  0.03047  0.33520  1.0000
  H   H17       1.0  0.75835  0.28290  0.76061  1.0000
  H   H18       1.0  0.47572  0.71721  0.73946  1.0000
  H   H19       1.0  0.24164  0.71709  0.23938  1.0000
  H   H20       1.0  0.52427  0.28279  0.26054  1.0000
  H   H21       1.0  0.31081  0.95758  0.60539  1.0000
  H   H22       1.0  0.35391  0.04304  0.89436  1.0000
  H   H23       1.0  0.68919  0.04243  0.39461  1.0000
  H   H24       1.0  0.64610  0.95697  0.10564  1.0000
  H   H25       1.0  0.70735  0.88904  0.56433  1.0000
  H   H26       1.0  0.81870  0.11104  0.93583  1.0000
  H   H27       1.0  0.29265  0.11096  0.43567  1.0000
  H   H28       1.0  0.18130  0.88895  0.06418  1.0000
  H   H29       1.0  0.57019  0.68520  0.47956  1.0000
  H   H30       1.0  0.88543  0.31492  0.02075  1.0000
  H   H31       1.0  0.42981  0.31481  0.52044  1.0000
  H   H32       1.0  0.11458  0.68509  0.97925  1.0000
  H   H33       1.0  0.39833  0.44916  0.36409  1.0000
  H   H34       1.0  0.94936  0.55083  0.13622  1.0000
  H   H35       1.0  0.60166  0.55084  0.63590  1.0000
  H   H36       1.0  0.05065  0.44918  0.86378  1.0000
  H   H37       1.0  0.17036  0.75325  0.52288  1.0000
  H   H38       1.0  0.41770  0.24703  0.97683  1.0000
  H   H39       1.0  0.82964  0.24675  0.47712  1.0000
  H   H40       1.0  0.58231  0.75296  0.02317  1.0000
  H   H41       1.0  0.01616  0.51287  0.40423  1.0000
  H   H42       1.0  0.50361  0.48728  0.09554  1.0000
  H   H43       1.0  0.98383  0.48713  0.59578  1.0000
  H   H44       1.0  0.49640  0.51271  0.90446  1.0000
  C   C1        1.0  0.52655  0.13057  0.68718  1.0000
  C   C2        1.0  0.39638  0.86978  0.81275  1.0000
  C   C3        1.0  0.47344  0.86943  0.31281  1.0000
  C   C4        1.0  0.60362  0.13022  0.18725  1.0000
  C   C5        1.0  0.68417  0.17785  0.70900  1.0000
  C   C6        1.0  0.50665  0.82239  0.79100  1.0000
  C   C7        1.0  0.31583  0.82214  0.29100  1.0000
  C   C8        1.0  0.49335  0.17761  0.20900  1.0000
  C   C9        1.0  0.49139  0.89700  0.57877  1.0000
  C   C10       1.0  0.59496  0.10337  0.92119  1.0000
  C   C11       1.0  0.50860  0.10300  0.42123  1.0000
  C   C12       1.0  0.40504  0.89662  0.07880  1.0000
  C   C13       1.0  0.74717  0.09022  0.66302  1.0000
  C   C14       1.0  0.65734  0.91000  0.83701  1.0000
  C   C15       1.0  0.25283  0.90979  0.33698  1.0000
  C   C16       1.0  0.34266  0.08999  0.16299  1.0000
  C   C17       1.0  0.43231  0.99162  0.62235  1.0000
  C   C18       1.0  0.44131  0.00887  0.87751  1.0000
  C   C19       1.0  0.56768  0.00838  0.37765  1.0000
  C   C20       1.0  0.55870  0.99114  0.12250  1.0000
  C   C21       1.0  0.65201  0.95209  0.59851  1.0000
  C   C22       1.0  0.70039  0.04812  0.90154  1.0000
  C   C23       1.0  0.34799  0.04792  0.40149  1.0000
  C   C24       1.0  0.29961  0.95188  0.09846  1.0000
  C   C25       1.0  0.91813  0.14383  0.67905  1.0000
  C   C26       1.0  0.77453  0.85616  0.82101  1.0000
  C   C27       1.0  0.08186  0.85616  0.32095  1.0000
  C   C28       1.0  0.22547  0.14383  0.17900  1.0000
  C   C29       1.0  0.45766  0.22524  0.73432  1.0000
  C   C30       1.0  0.23285  0.77504  0.76561  1.0000
  C   C31       1.0  0.54233  0.77476  0.26568  1.0000
  C   C32       1.0  0.76716  0.22496  0.23439  1.0000
  C   C33       1.0  0.44810  0.65364  0.46677  1.0000
  C   C34       1.0  0.79490  0.34650  0.03341  1.0000
  C   C35       1.0  0.55190  0.34637  0.53322  1.0000
  C   C36       1.0  0.20511  0.65351  0.96659  1.0000
  C   C37       1.0  0.35253  0.51957  0.40147  1.0000
  C   C38       1.0  0.83325  0.48049  0.09871  1.0000
  C   C39       1.0  0.64746  0.48043  0.59853  1.0000
  C   C40       1.0  0.16676  0.51951  0.90129  1.0000
  C   C41       1.0  0.38911  0.74716  0.51258  1.0000
  C   C42       1.0  0.64247  0.25311  0.98747  1.0000
  C   C43       1.0  0.61089  0.25284  0.48742  1.0000
  C   C44       1.0  0.35754  0.74689  0.01253  1.0000
  C   C45       1.0  0.22853  0.69156  0.49044  1.0000
  C   C46       1.0  0.53747  0.30873  0.00943  1.0000
  C   C47       1.0  0.77146  0.30843  0.50956  1.0000
  C   C48       1.0  0.46253  0.69127  0.99057  1.0000
  C   C49       1.0  0.13968  0.55626  0.42416  1.0000
  C   C50       1.0  0.58377  0.44395  0.07569  1.0000
  C   C51       1.0  0.86032  0.44375  0.57584  1.0000
  C   C52       1.0  0.41624  0.55604  0.92431  1.0000
  N   N1        1.0  0.20005  0.47174  0.37895  1.0000
  N   N2        1.0  0.72857  0.52834  0.12106  1.0000
  N   N3        1.0  0.79995  0.52826  0.62105  1.0000
  N   N4        1.0  0.27144  0.47166  0.87894  1.0000
  O   O1        1.0  0.27042  0.42322  0.67296  1.0000
  O   O2        1.0  0.84721  0.57653  0.82704  1.0000
  O   O3        1.0  0.72957  0.57678  0.32704  1.0000
  O   O4        1.0  0.15279  0.42347  0.17296  1.0000
  O   O5        1.0  0.16979  0.12431  0.86950  1.0000
  O   O6        1.0  0.04522  0.87560  0.63054  1.0000
  O   O7        1.0  0.83020  0.87568  0.13050  1.0000
  O   O8        1.0  0.95478  0.12439  0.36946  1.0000
  O   O9        1.0  0.30657  0.16309  0.71753  1.0000
  O   O10       1.0  0.14361  0.83682  0.78246  1.0000
  O   O11       1.0  0.69343  0.83691  0.28247  1.0000
  O   O12       1.0  0.85639  0.16318  0.21754  1.0000
  O   O13       1.0  0.54157  0.35753  0.78858  1.0000
  O   O14       1.0  0.18473  0.64291  0.71128  1.0000
  O   O15       1.0  0.45842  0.64247  0.21143  1.0000
  O   O16       1.0  0.81528  0.35710  0.28872  1.0000
  O   O17       1.0  0.98291  0.20555  0.75784  1.0000
  O   O18       1.0  0.77754  0.79452  0.74220  1.0000
  O   O19       1.0  0.01709  0.79445  0.24216  1.0000
  O   O20       1.0  0.22246  0.20549  0.25780  1.0000
  O   O21       1.0  0.98991  0.12648  0.61499  1.0000
  O   O22       1.0  0.86363  0.87334  0.88507  1.0000
  O   O23       1.0  0.01009  0.87352  0.38501  1.0000
  O   O24       1.0  0.13636  0.12664  0.11494  1.0000
