data_image0
_chemical_formula_structural       H22Pb2C36N4O8
_chemical_formula_sum              "H22 Pb2 C36 N4 O8"
_cell_length_a       8.09284
_cell_length_b       10.4156
_cell_length_c       10.366
_cell_angle_alpha    109.046
_cell_angle_beta     99.6558
_cell_angle_gamma    103.03

_space_group_name_H-M_alt    "P 1"
_space_group_IT_number       1

loop_
  _space_group_symop_operation_xyz
  'x, y, z'

loop_
  _atom_site_type_symbol
  _atom_site_label
  _atom_site_symmetry_multiplicity
  _atom_site_fract_x
  _atom_site_fract_y
  _atom_site_fract_z
  _atom_site_occupancy
  H   H1        1.0  0.97068  0.31704  0.58518  1.0000
  H   H2        1.0  0.02934  0.68281  0.41483  1.0000
  H   H3        1.0  0.81998  0.41884  0.76452  1.0000
  H   H4        1.0  0.18014  0.58123  0.23548  1.0000
  H   H5        1.0  0.28112  0.47775  0.08581  1.0000
  H   H6        1.0  0.71896  0.52231  0.91420  1.0000
  H   H7        1.0  0.40779  0.37124  0.89242  1.0000
  H   H8        1.0  0.59232  0.62880  0.10762  1.0000
  H   H9        1.0  0.08123  0.39474  0.36335  1.0000
  H   H10       1.0  0.91871  0.60529  0.63665  1.0000
  H   H11       1.0  0.86408  0.29060  0.13032  1.0000
  H   H12       1.0  0.13589  0.70942  0.86966  1.0000
  H   H13       1.0  0.87813  0.87512  0.12340  1.0000
  H   H14       1.0  0.12179  0.12490  0.87664  1.0000
  H   H15       1.0  0.08919  0.99763  0.35932  1.0000
  H   H16       1.0  0.91089  0.00240  0.64061  1.0000
  H   H17       1.0  0.70653  0.20067  0.93662  1.0000
  H   H18       1.0  0.29350  0.79930  0.06337  1.0000
  H   H19       1.0  0.34876  0.82451  0.60677  1.0000
  H   H20       1.0  0.65123  0.17546  0.39322  1.0000
  H   H21       1.0  0.69038  0.78474  0.94553  1.0000
  H   H22       1.0  0.30941  0.21525  0.05459  1.0000
  Pb  Pb1       1.0  0.39409  0.31518  0.56741  1.0000
  Pb  Pb2       1.0  0.60593  0.68472  0.43250  1.0000
  C   C1        1.0  0.03448  0.35486  0.69779  1.0000
  C   C2        1.0  0.96559  0.64509  0.30223  1.0000
  C   C3        1.0  0.95190  0.41395  0.79946  1.0000
  C   C4        1.0  0.04822  0.58610  0.20054  1.0000
  C   C5        1.0  0.03923  0.46483  0.94391  1.0000
  C   C6        1.0  0.96090  0.53526  0.05609  1.0000
  C   C7        1.0  0.20524  0.44598  0.97751  1.0000
  C   C8        1.0  0.79486  0.55409  0.02250  1.0000
  C   C9        1.0  0.27824  0.38557  0.86960  1.0000
  C   C10       1.0  0.72185  0.61446  0.13041  1.0000
  C   C11       1.0  0.03135  0.27953  0.30602  1.0000
  C   C12       1.0  0.96862  0.72050  0.69396  1.0000
  C   C13       1.0  0.91102  0.21988  0.17433  1.0000
  C   C14       1.0  0.08893  0.78014  0.82566  1.0000
  C   C15       1.0  0.84917  0.07108  0.10249  1.0000
  C   C16       1.0  0.15076  0.92893  0.89752  1.0000
  C   C17       1.0  0.91725  0.99075  0.17118  1.0000
  C   C18       1.0  0.08269  0.00926  0.82882  1.0000
  C   C19       1.0  0.03590  0.05827  0.30383  1.0000
  C   C20       1.0  0.96412  0.94176  0.69614  1.0000
  C   C21       1.0  0.71643  0.00324  0.96402  1.0000
  C   C22       1.0  0.28347  0.99674  0.03600  1.0000
  C   C23       1.0  0.65520  0.08501  0.89394  1.0000
  C   C24       1.0  0.34475  0.91497  0.10607  1.0000
  C   C25       1.0  0.52505  0.02151  0.76579  1.0000
  C   C26       1.0  0.47488  0.97848  0.23423  1.0000
  C   C27       1.0  0.45324  0.87346  0.70487  1.0000
  C   C28       1.0  0.54671  0.12652  0.29515  1.0000
  C   C29       1.0  0.51628  0.78952  0.77036  1.0000
  C   C30       1.0  0.48363  0.21045  0.22967  1.0000
  C   C31       1.0  0.64601  0.85460  0.89876  1.0000
  C   C32       1.0  0.35384  0.14538  0.10130  1.0000
  C   C33       1.0  0.46423  0.11373  0.69489  1.0000
  C   C34       1.0  0.53576  0.88627  0.30513  1.0000
  C   C35       1.0  0.45233  0.62956  0.70106  1.0000
  C   C36       1.0  0.54766  0.37040  0.29889  1.0000
  N   N1        1.0  0.09247  0.20066  0.37133  1.0000
  N   N2        1.0  0.90754  0.79937  0.62864  1.0000
  N   N3        1.0  0.19633  0.34255  0.73175  1.0000
  N   N4        1.0  0.80374  0.65740  0.26826  1.0000
  O   O1        1.0  0.33690  0.05849  0.58480  1.0000
  O   O2        1.0  0.66309  0.94153  0.41521  1.0000
  O   O3        1.0  0.54756  0.24797  0.75243  1.0000
  O   O4        1.0  0.45247  0.75203  0.24757  1.0000
  O   O5        1.0  0.33305  0.57044  0.58461  1.0000
  O   O6        1.0  0.66699  0.42954  0.41531  1.0000
  O   O7        1.0  0.52795  0.56063  0.76117  1.0000
  O   O8        1.0  0.47207  0.43932  0.23874  1.0000
