data_image0
_chemical_formula_structural       Cu2H28C32N4O10
_chemical_formula_sum              "Cu2 H28 C32 N4 O10"
_cell_length_a       7.46251
_cell_length_b       9.79038
_cell_length_c       11.9925
_cell_angle_alpha    74.1567
_cell_angle_beta     81.521
_cell_angle_gamma    73.9368

_space_group_name_H-M_alt    "P 1"
_space_group_IT_number       1

loop_
  _space_group_symop_operation_xyz
  'x, y, z'

loop_
  _atom_site_type_symbol
  _atom_site_label
  _atom_site_symmetry_multiplicity
  _atom_site_fract_x
  _atom_site_fract_y
  _atom_site_fract_z
  _atom_site_occupancy
  Cu  Cu1       1.0  0.74104  0.69249  0.68790  1.0000
  Cu  Cu2       1.0  0.25896  0.30751  0.31210  1.0000
  H   H1        1.0  0.99660  0.67100  0.45576  1.0000
  H   H2        1.0  0.00340  0.32899  0.54425  1.0000
  H   H3        1.0  0.07234  0.85847  0.27917  1.0000
  H   H4        1.0  0.92767  0.14153  0.72083  1.0000
  H   H5        1.0  0.92638  0.12684  0.26758  1.0000
  H   H6        1.0  0.07363  0.87316  0.73242  1.0000
  H   H7        1.0  0.70054  0.31985  0.36599  1.0000
  H   H8        1.0  0.29947  0.68015  0.63401  1.0000
  H   H9        1.0  0.48946  0.37442  0.53609  1.0000
  H   H10       1.0  0.51056  0.62558  0.46391  1.0000
  H   H11       1.0  0.33909  0.28304  0.73870  1.0000
  H   H12       1.0  0.66091  0.71697  0.26130  1.0000
  H   H13       1.0  0.31085  0.06663  0.90457  1.0000
  H   H14       1.0  0.68915  0.93338  0.09543  1.0000
  H   H15       1.0  0.48143  0.81292  0.88480  1.0000
  H   H16       1.0  0.51855  0.18708  0.11520  1.0000
  H   H17       1.0  0.25317  0.63979  0.91747  1.0000
  H   H18       1.0  0.74682  0.36021  0.08253  1.0000
  H   H19       1.0  0.14190  0.50392  0.99966  1.0000
  H   H20       1.0  0.85809  0.49608  0.00034  1.0000
  H   H21       1.0  0.46865  0.39096  0.00021  1.0000
  H   H22       1.0  0.53134  0.60904  0.99979  1.0000
  H   H23       1.0  0.38307  0.31491  0.90784  1.0000
  H   H24       1.0  0.61693  0.68509  0.09216  1.0000
  H   H25       1.0  0.00008  0.49451  0.67462  1.0000
  H   H26       1.0  0.99992  0.50549  0.32538  1.0000
  H   H27       1.0  0.80479  0.44041  0.69072  1.0000
  H   H28       1.0  0.19521  0.55959  0.30929  1.0000
  C   C1        1.0  0.93578  0.78785  0.44816  1.0000
  C   C2        1.0  0.06422  0.21214  0.55184  1.0000
  C   C3        1.0  0.97544  0.89455  0.34892  1.0000
  C   C4        1.0  0.02456  0.10544  0.65108  1.0000
  C   C5        1.0  0.89382  0.04180  0.34230  1.0000
  C   C6        1.0  0.10617  0.95819  0.65771  1.0000
  C   C7        1.0  0.76986  0.08276  0.43565  1.0000
  C   C8        1.0  0.23013  0.91723  0.56435  1.0000
  C   C9        1.0  0.67646  0.23096  0.43947  1.0000
  C   C10       1.0  0.32354  0.76904  0.56052  1.0000
  C   C11       1.0  0.56047  0.26162  0.53401  1.0000
  C   C12       1.0  0.43954  0.73838  0.46599  1.0000
  C   C13       1.0  0.52954  0.14749  0.63314  1.0000
  C   C14       1.0  0.47046  0.85251  0.36685  1.0000
  C   C15       1.0  0.41444  0.17148  0.73406  1.0000
  C   C16       1.0  0.58556  0.82852  0.26594  1.0000
  C   C17       1.0  0.39833  0.05207  0.82535  1.0000
  C   C18       1.0  0.60166  0.94793  0.17465  1.0000
  C   C19       1.0  0.49283  0.90966  0.81578  1.0000
  C   C20       1.0  0.50716  0.09034  0.18422  1.0000
  C   C21       1.0  0.61995  0.00073  0.63101  1.0000
  C   C22       1.0  0.38005  0.99927  0.36899  1.0000
  C   C23       1.0  0.73940  0.96818  0.53207  1.0000
  C   C24       1.0  0.26059  0.03182  0.46793  1.0000
  C   C25       1.0  0.10633  0.56264  0.81768  1.0000
  C   C26       1.0  0.89367  0.43735  0.18232  1.0000
  C   C27       1.0  0.22628  0.53466  0.91802  1.0000
  C   C28       1.0  0.77372  0.46534  0.08198  1.0000
  C   C29       1.0  0.40825  0.41656  0.91627  1.0000
  C   C30       1.0  0.59175  0.58345  0.08374  1.0000
  C   C31       1.0  0.55813  0.45859  0.82304  1.0000
  C   C32       1.0  0.44187  0.54142  0.17696  1.0000
  N   N1        1.0  0.82123  0.82439  0.53743  1.0000
  N   N2        1.0  0.17876  0.17561  0.46257  1.0000
  N   N3        1.0  0.59946  0.88501  0.72052  1.0000
  N   N4        1.0  0.40054  0.11500  0.27948  1.0000
  O   O1        1.0  0.95557  0.66349  0.81372  1.0000
  O   O2        1.0  0.04443  0.33650  0.18628  1.0000
  O   O3        1.0  0.16356  0.48395  0.74378  1.0000
  O   O4        1.0  0.83645  0.51605  0.25621  1.0000
  O   O5        1.0  0.56203  0.59473  0.79863  1.0000
  O   O6        1.0  0.43798  0.40527  0.20137  1.0000
  O   O7        1.0  0.67041  0.36135  0.77860  1.0000
  O   O8        1.0  0.32959  0.63865  0.22140  1.0000
  O   O9        1.0  0.87695  0.51219  0.63687  1.0000
  O   O10       1.0  0.12305  0.48781  0.36313  1.0000
