data_image0
_chemical_formula_structural       Cd3H34C48N8O18
_chemical_formula_sum              "Cd3 H34 C48 N8 O18"
_cell_length_a       8.9172
_cell_length_b       10.0473
_cell_length_c       14.3935
_cell_angle_alpha    75.7613
_cell_angle_beta     92.0066
_cell_angle_gamma    70.7743

_space_group_name_H-M_alt    "P 1"
_space_group_IT_number       1

loop_
  _space_group_symop_operation_xyz
  'x, y, z'

loop_
  _atom_site_type_symbol
  _atom_site_label
  _atom_site_symmetry_multiplicity
  _atom_site_fract_x
  _atom_site_fract_y
  _atom_site_fract_z
  _atom_site_occupancy
  Cd  Cd1       1.0  0.99999  1.00000  1.00000  1.0000
  Cd  Cd2       1.0  0.38143  0.43801  0.09513  1.0000
  Cd  Cd3       1.0  0.61856  0.56198  0.90487  1.0000
  H   H1        1.0  0.99156  0.16929  0.75014  1.0000
  H   H2        1.0  0.00844  0.83071  0.24984  1.0000
  H   H3        1.0  0.69540  0.35092  0.13544  1.0000
  H   H4        1.0  0.30459  0.64907  0.86456  1.0000
  H   H5        1.0  0.69009  0.19831  0.12273  1.0000
  H   H6        1.0  0.30990  0.80168  0.87727  1.0000
  H   H7        1.0  0.08495  0.03634  0.21874  1.0000
  H   H8        1.0  0.91505  0.96366  0.78125  1.0000
  H   H9        1.0  0.02148  0.49347  0.10372  1.0000
  H   H10       1.0  0.97851  0.50654  0.89628  1.0000
  H   H11       1.0  0.83977  0.55547  0.22601  1.0000
  H   H12       1.0  0.16023  0.44453  0.77399  1.0000
  H   H13       1.0  0.63653  0.47877  0.31497  1.0000
  H   H14       1.0  0.36349  0.52121  0.68504  1.0000
  H   H15       1.0  0.78450  0.39336  0.41828  1.0000
  H   H16       1.0  0.21550  0.60662  0.58172  1.0000
  H   H17       1.0  0.67858  0.29082  0.37781  1.0000
  H   H18       1.0  0.32142  0.70917  0.62218  1.0000
  H   H19       1.0  0.90509  0.09805  0.34045  1.0000
  H   H20       1.0  0.09492  0.90193  0.65955  1.0000
  H   H21       1.0  0.48084  0.82189  0.74132  1.0000
  H   H22       1.0  0.51918  0.17810  0.25869  1.0000
  H   H23       1.0  0.79658  0.81356  0.51790  1.0000
  H   H24       1.0  0.20343  0.18645  0.48211  1.0000
  H   H25       1.0  0.72923  0.08202  0.48675  1.0000
  H   H26       1.0  0.27077  0.91799  0.51326  1.0000
  H   H27       1.0  0.41300  0.08805  0.70791  1.0000
  H   H28       1.0  0.58702  0.91194  0.29211  1.0000
  H   H29       1.0  0.51239  0.29184  0.64948  1.0000
  H   H30       1.0  0.48759  0.70816  0.35054  1.0000
  H   H31       1.0  0.41395  0.32886  0.53233  1.0000
  H   H32       1.0  0.58604  0.67115  0.46768  1.0000
  H   H33       1.0  0.62176  0.30182  0.54669  1.0000
  H   H34       1.0  0.37824  0.69819  0.45333  1.0000
  C   C1        1.0  0.27685  0.12032  0.97280  1.0000
  C   C2        1.0  0.72314  0.87968  0.02718  1.0000
  C   C3        1.0  0.32482  0.24475  0.97103  1.0000
  C   C4        1.0  0.67517  0.75524  0.02896  1.0000
  C   C5        1.0  0.03126  0.14956  0.22106  1.0000
  C   C6        1.0  0.96875  0.85044  0.77892  1.0000
  C   C7        1.0  0.06331  0.26089  0.15229  1.0000
  C   C8        1.0  0.93670  0.73911  0.84770  1.0000
  C   C9        1.0  0.99774  0.40753  0.15706  1.0000
  C   C10       1.0  0.00227  0.59246  0.84294  1.0000
  C   C11       1.0  0.89651  0.44179  0.22499  1.0000
  C   C12       1.0  0.10351  0.55820  0.77501  1.0000
  C   C13       1.0  0.85696  0.33233  0.29051  1.0000
  C   C14       1.0  0.14303  0.66767  0.70950  1.0000
  C   C15       1.0  0.73158  0.37571  0.35390  1.0000
  C   C16       1.0  0.26841  0.62428  0.64611  1.0000
  C   C17       1.0  0.42530  0.31588  0.90886  1.0000
  C   C18       1.0  0.57469  0.68412  0.09113  1.0000
  C   C19       1.0  0.32488  0.00458  0.92144  1.0000
  C   C20       1.0  0.67510  0.99541  0.07856  1.0000
  C   C21       1.0  0.70416  0.64169  0.65993  1.0000
  C   C22       1.0  0.29586  0.35831  0.34007  1.0000
  C   C23       1.0  0.84643  0.42250  0.65819  1.0000
  C   C24       1.0  0.15358  0.57752  0.34180  1.0000
  C   C25       1.0  0.79389  0.42000  0.75288  1.0000
  C   C26       1.0  0.20610  0.58001  0.24712  1.0000
  C   C27       1.0  0.84184  0.30241  0.84602  1.0000
  C   C28       1.0  0.15815  0.69760  0.15397  1.0000
  C   C29       1.0  0.95132  0.30294  0.61961  1.0000
  C   C30       1.0  0.04869  0.69707  0.38038  1.0000
  C   C31       1.0  0.64429  0.79832  0.63236  1.0000
  C   C32       1.0  0.35572  0.20168  0.36765  1.0000
  C   C33       1.0  0.93187  0.18506  0.28971  1.0000
  C   C34       1.0  0.06815  0.81493  0.71028  1.0000
  C   C35       1.0  0.53474  0.87870  0.68550  1.0000
  C   C36       1.0  0.46527  0.12132  0.31451  1.0000
  C   C37       1.0  0.70859  0.87575  0.55653  1.0000
  C   C38       1.0  0.29142  0.12427  0.44347  1.0000
  C   C39       1.0  0.56496  0.10510  0.59386  1.0000
  C   C40       1.0  0.43504  0.89490  0.40615  1.0000
  C   C41       1.0  0.67182  0.02509  0.54041  1.0000
  C   C42       1.0  0.32818  0.97493  0.45960  1.0000
  C   C43       1.0  0.49496  0.02805  0.66570  1.0000
  C   C44       1.0  0.50503  0.97196  0.33431  1.0000
  C   C45       1.0  0.52861  0.26484  0.58011  1.0000
  C   C46       1.0  0.47139  0.73516  0.41991  1.0000
  C   C47       1.0  0.15883  0.22782  0.07733  1.0000
  C   C48       1.0  0.84115  0.77218  0.92266  1.0000
  N   N1        1.0  0.17311  0.11423  0.03864  1.0000
  N   N2        1.0  0.82688  0.88578  0.96135  1.0000
  N   N3        1.0  0.24766  0.30986  0.03552  1.0000
  N   N4        1.0  0.75233  0.69012  0.96447  1.0000
  N   N5        1.0  0.70143  0.55653  0.75110  1.0000
  N   N6        1.0  0.29855  0.44346  0.24893  1.0000
  N   N7        1.0  0.79013  0.56086  0.60271  1.0000
  N   N8        1.0  0.20990  0.43915  0.39727  1.0000
  O   O1        1.0  0.46058  0.28547  0.83208  1.0000
  O   O2        1.0  0.53944  0.71454  0.16792  1.0000
  O   O3        1.0  0.45769  0.41440  0.94147  1.0000
  O   O4        1.0  0.54229  0.58561  0.05853  1.0000
  O   O5        1.0  0.96645  0.32316  0.53347  1.0000
  O   O6        1.0  0.03356  0.67686  0.46653  1.0000
  O   O7        1.0  0.02973  0.17350  0.68311  1.0000
  O   O8        1.0  0.97026  0.82651  0.31688  1.0000
  O   O9        1.0  0.91993  0.17159  0.84297  1.0000
  O   O10       1.0  0.08007  0.82842  0.15701  1.0000
  O   O11       1.0  0.81155  0.33520  0.92434  1.0000
  O   O12       1.0  0.18846  0.66480  0.07566  1.0000
  O   O13       1.0  0.22672  0.93580  0.91593  1.0000
  O   O14       1.0  0.77326  0.06419  0.08406  1.0000
  O   O15       1.0  0.45915  0.97451  0.89168  1.0000
  O   O16       1.0  0.54084  0.02547  0.10832  1.0000
  O   O17       1.0  0.63690  0.28338  0.15140  1.0000
  O   O18       1.0  0.36309  0.71661  0.84859  1.0000
