data_image0
_chemical_formula_structural       Cu2H20C40N4O12F24
_chemical_formula_sum              "Cu2 H20 C40 N4 O12 F24"
_cell_length_a       8.4939
_cell_length_b       11.1145
_cell_length_c       12.7102
_cell_angle_alpha    89.9993
_cell_angle_beta     90.0017
_cell_angle_gamma    101.671

_space_group_name_H-M_alt    "P 1"
_space_group_IT_number       1

loop_
  _space_group_symop_operation_xyz
  'x, y, z'

loop_
  _atom_site_type_symbol
  _atom_site_label
  _atom_site_symmetry_multiplicity
  _atom_site_fract_x
  _atom_site_fract_y
  _atom_site_fract_z
  _atom_site_occupancy
  Cu  Cu1       1.0  1.00000  1.00000  0.00000  1.0000
  Cu  Cu2       1.0  0.00001  0.50000  0.50000  1.0000
  H   H1        1.0  0.03042  0.25389  0.73049  1.0000
  H   H2        1.0  0.03042  0.75389  0.76950  1.0000
  H   H3        1.0  0.96959  0.74611  0.26951  1.0000
  H   H4        1.0  0.96958  0.24611  0.23050  1.0000
  H   H5        1.0  0.09142  0.21098  0.54643  1.0000
  H   H6        1.0  0.09142  0.71097  0.95357  1.0000
  H   H7        1.0  0.90859  0.78902  0.45358  1.0000
  H   H8        1.0  0.90859  0.28902  0.04642  1.0000
  H   H9        1.0  0.87179  0.82878  0.60525  1.0000
  H   H10       1.0  0.87178  0.32878  0.89475  1.0000
  H   H11       1.0  0.12821  0.17122  0.39475  1.0000
  H   H12       1.0  0.12821  0.67122  0.10524  1.0000
  H   H13       1.0  0.81714  0.89063  0.78645  1.0000
  H   H14       1.0  0.81713  0.39063  0.71355  1.0000
  H   H15       1.0  0.18286  0.10937  0.21356  1.0000
  H   H16       1.0  0.18286  0.60937  0.28644  1.0000
  H   H17       1.0  0.49387  0.15045  0.89952  1.0000
  H   H18       1.0  0.49388  0.65046  0.60049  1.0000
  H   H19       1.0  0.50612  0.84955  0.10049  1.0000
  H   H20       1.0  0.50613  0.34955  0.39950  1.0000
  C   C1        1.0  0.99793  0.16247  0.69702  1.0000
  C   C2        1.0  0.99793  0.66246  0.80298  1.0000
  C   C3        1.0  0.00208  0.83753  0.30298  1.0000
  C   C4        1.0  0.00207  0.33753  0.19702  1.0000
  C   C5        1.0  0.03063  0.13489  0.59467  1.0000
  C   C6        1.0  0.03063  0.63489  0.90532  1.0000
  C   C7        1.0  0.96938  0.86510  0.40534  1.0000
  C   C8        1.0  0.96937  0.36511  0.09467  1.0000
  C   C9        1.0  0.98498  0.01484  0.55489  1.0000
  C   C10       1.0  0.98497  0.51483  0.94511  1.0000
  C   C11       1.0  0.01502  0.98516  0.44512  1.0000
  C   C12       1.0  0.01502  0.48516  0.05488  1.0000
  C   C13       1.0  0.90795  0.92542  0.62662  1.0000
  C   C14       1.0  0.90794  0.42542  0.87338  1.0000
  C   C15       1.0  0.09205  0.07458  0.37338  1.0000
  C   C16       1.0  0.09205  0.57458  0.12662  1.0000
  C   C17       1.0  0.87640  0.95610  0.72854  1.0000
  C   C18       1.0  0.87639  0.45610  0.77146  1.0000
  C   C19       1.0  0.12360  0.04389  0.27147  1.0000
  C   C20       1.0  0.12360  0.54390  0.22854  1.0000
  C   C21       1.0  0.28890  0.00378  0.87983  1.0000
  C   C22       1.0  0.28892  0.50379  0.62018  1.0000
  C   C23       1.0  0.71109  0.99621  0.12017  1.0000
  C   C24       1.0  0.71109  0.49621  0.37982  1.0000
  C   C25       1.0  0.37092  0.11414  0.92375  1.0000
  C   C26       1.0  0.37094  0.61415  0.57627  1.0000
  C   C27       1.0  0.62907  0.88586  0.07626  1.0000
  C   C28       1.0  0.62908  0.38586  0.42373  1.0000
  C   C29       1.0  0.29766  0.17916  0.99683  1.0000
  C   C30       1.0  0.29766  0.67916  0.50318  1.0000
  C   C31       1.0  0.70233  0.82084  0.00318  1.0000
  C   C32       1.0  0.70235  0.32084  0.49682  1.0000
  C   C33       1.0  0.62542  0.05409  0.20804  1.0000
  C   C34       1.0  0.62541  0.55409  0.29196  1.0000
  C   C35       1.0  0.37457  0.94591  0.79197  1.0000
  C   C36       1.0  0.37459  0.44592  0.70805  1.0000
  C   C37       1.0  0.60341  0.69997  0.95763  1.0000
  C   C38       1.0  0.60343  0.19997  0.54237  1.0000
  C   C39       1.0  0.39658  0.30003  0.04238  1.0000
  C   C40       1.0  0.39658  0.80004  0.45762  1.0000
  N   N1        1.0  0.91965  0.07442  0.76405  1.0000
  N   N2        1.0  0.91965  0.57442  0.73595  1.0000
  N   N3        1.0  0.08036  0.92558  0.23596  1.0000
  N   N4        1.0  0.08035  0.42558  0.26405  1.0000
  O   O1        1.0  0.88786  0.10355  0.86054  1.0000
  O   O2        1.0  0.88786  0.60354  0.63945  1.0000
  O   O3        1.0  0.11214  0.89645  0.13947  1.0000
  O   O4        1.0  0.11214  0.39646  0.36054  1.0000
  O   O5        1.0  0.14766  0.94474  0.89897  1.0000
  O   O6        1.0  0.14768  0.44475  0.60103  1.0000
  O   O7        1.0  0.85234  0.05525  0.10103  1.0000
  O   O8        1.0  0.85234  0.55526  0.39897  1.0000
  O   O9        1.0  0.15563  0.15260  0.03281  1.0000
  O   O10       1.0  0.15563  0.65260  0.46720  1.0000
  O   O11       1.0  0.84436  0.84740  0.96720  1.0000
  O   O12       1.0  0.84438  0.34740  0.53280  1.0000
  F   F1        1.0  0.67930  0.02347  0.30345  1.0000
  F   F2        1.0  0.67928  0.52345  0.19655  1.0000
  F   F3        1.0  0.32069  0.97653  0.69656  1.0000
  F   F4        1.0  0.32071  0.47655  0.80345  1.0000
  F   F5        1.0  0.65721  0.17866  0.20161  1.0000
  F   F6        1.0  0.65720  0.67866  0.29837  1.0000
  F   F7        1.0  0.34279  0.82134  0.79839  1.0000
  F   F8        1.0  0.34281  0.32136  0.70162  1.0000
  F   F9        1.0  0.46330  0.01532  0.20597  1.0000
  F   F10       1.0  0.46329  0.51531  0.29403  1.0000
  F   F11       1.0  0.53669  0.98470  0.79403  1.0000
  F   F12       1.0  0.53671  0.48470  0.70599  1.0000
  F   F13       1.0  0.44633  0.67929  0.98714  1.0000
  F   F14       1.0  0.44635  0.17929  0.51285  1.0000
  F   F15       1.0  0.55365  0.32072  0.01286  1.0000
  F   F16       1.0  0.55366  0.82072  0.48714  1.0000
  F   F17       1.0  0.66484  0.60238  0.98928  1.0000
  F   F18       1.0  0.66485  0.10238  0.51072  1.0000
  F   F19       1.0  0.33514  0.39762  0.01073  1.0000
  F   F20       1.0  0.33515  0.89763  0.48927  1.0000
  F   F21       1.0  0.60884  0.70314  0.85042  1.0000
  F   F22       1.0  0.60885  0.20314  0.64957  1.0000
  F   F23       1.0  0.39115  0.29686  0.14958  1.0000
  F   F24       1.0  0.39116  0.79686  0.35042  1.0000
