data_image0
_chemical_formula_structural       Zn6H60C48N24
_chemical_formula_sum              "Zn6 H60 C48 N24"
_cell_length_a       14.7744
_cell_length_b       14.7743
_cell_length_c       14.7743
_cell_angle_alpha    109.471
_cell_angle_beta     109.471
_cell_angle_gamma    109.471

_space_group_name_H-M_alt    "P 1"
_space_group_IT_number       1

loop_
  _space_group_symop_operation_xyz
  'x, y, z'

loop_
  _atom_site_type_symbol
  _atom_site_label
  _atom_site_symmetry_multiplicity
  _atom_site_fract_x
  _atom_site_fract_y
  _atom_site_fract_z
  _atom_site_occupancy
  Zn  Zn1       1.0  0.50000  0.25000  0.75000  1.0000
  Zn  Zn2       1.0  0.50000  0.75000  0.25000  1.0000
  Zn  Zn3       1.0  0.25000  0.50000  0.75000  1.0000
  Zn  Zn4       1.0  0.75000  0.50000  0.25000  1.0000
  Zn  Zn5       1.0  0.25000  0.75000  0.50000  1.0000
  Zn  Zn6       1.0  0.75000  0.25000  0.50000  1.0000
  H   H1        1.0  0.47664  0.35416  0.59192  1.0000
  H   H2        1.0  0.76224  0.88471  0.40808  1.0000
  H   H3        1.0  0.52337  0.11529  0.87752  1.0000
  H   H4        1.0  0.23776  0.64584  0.12248  1.0000
  H   H5        1.0  0.23776  0.12248  0.64584  1.0000
  H   H6        1.0  0.52337  0.87752  0.11529  1.0000
  H   H7        1.0  0.76224  0.40808  0.88471  1.0000
  H   H8        1.0  0.47664  0.59192  0.35416  1.0000
  H   H9        1.0  0.12248  0.23776  0.64584  1.0000
  H   H10       1.0  0.87752  0.52336  0.11529  1.0000
  H   H11       1.0  0.59192  0.47664  0.35416  1.0000
  H   H12       1.0  0.40808  0.76224  0.88471  1.0000
  H   H13       1.0  0.40808  0.88471  0.76224  1.0000
  H   H14       1.0  0.12248  0.64584  0.23776  1.0000
  H   H15       1.0  0.59192  0.35416  0.47664  1.0000
  H   H16       1.0  0.87752  0.11529  0.52336  1.0000
  H   H17       1.0  0.88472  0.40808  0.76224  1.0000
  H   H18       1.0  0.35416  0.59192  0.47664  1.0000
  H   H19       1.0  0.11529  0.87752  0.52336  1.0000
  H   H20       1.0  0.64584  0.12248  0.23776  1.0000
  H   H21       1.0  0.88472  0.76224  0.40808  1.0000
  H   H22       1.0  0.35416  0.47664  0.59192  1.0000
  H   H23       1.0  0.64584  0.23776  0.12248  1.0000
  H   H24       1.0  0.11529  0.52337  0.87752  1.0000
  H   H25       1.0  0.62058  0.13273  0.69443  1.0000
  H   H26       1.0  0.43829  0.92614  0.30557  1.0000
  H   H27       1.0  0.37942  0.07386  0.51215  1.0000
  H   H28       1.0  0.56171  0.86727  0.48785  1.0000
  H   H29       1.0  0.56171  0.48785  0.86727  1.0000
  H   H30       1.0  0.37942  0.51215  0.07386  1.0000
  H   H31       1.0  0.43829  0.30557  0.92614  1.0000
  H   H32       1.0  0.62057  0.69443  0.13273  1.0000
  H   H33       1.0  0.48785  0.56171  0.86727  1.0000
  H   H34       1.0  0.51215  0.37943  0.07386  1.0000
  H   H35       1.0  0.69443  0.62057  0.13273  1.0000
  H   H36       1.0  0.30557  0.43829  0.92614  1.0000
  H   H37       1.0  0.30557  0.92614  0.43829  1.0000
  H   H38       1.0  0.48785  0.86727  0.56171  1.0000
  H   H39       1.0  0.69443  0.13273  0.62057  1.0000
  H   H40       1.0  0.51215  0.07386  0.37942  1.0000
  H   H41       1.0  0.92614  0.30557  0.43829  1.0000
  H   H42       1.0  0.13273  0.69443  0.62057  1.0000
  H   H43       1.0  0.07386  0.51215  0.37943  1.0000
  H   H44       1.0  0.86727  0.48785  0.56171  1.0000
  H   H45       1.0  0.92614  0.43829  0.30557  1.0000
  H   H46       1.0  0.13273  0.62057  0.69443  1.0000
  H   H47       1.0  0.86727  0.56171  0.48785  1.0000
  H   H48       1.0  0.07386  0.37942  0.51215  1.0000
  H   H49       1.0  0.75697  0.24314  0.75697  1.0000
  H   H50       1.0  0.48618  0.00000  0.24303  1.0000
  H   H51       1.0  0.24303  0.00000  0.48617  1.0000
  H   H52       1.0  0.51382  0.75686  0.51382  1.0000
  H   H53       1.0  0.51382  0.51382  0.75685  1.0000
  H   H54       1.0  0.24303  0.48617  1.00000  1.0000
  H   H55       1.0  0.48618  0.24303  1.00000  1.0000
  H   H56       1.0  0.75697  0.75697  0.24314  1.0000
  H   H57       1.0  1.00000  0.24303  0.48618  1.0000
  H   H58       1.0  0.24314  0.75697  0.75697  1.0000
  H   H59       1.0  1.00000  0.48617  0.24303  1.0000
  H   H60       1.0  0.75686  0.51383  0.51383  1.0000
  C   C1        1.0  0.53415  0.32401  0.59112  1.0000
  C   C2        1.0  0.73288  0.94303  0.40888  1.0000
  C   C3        1.0  0.46585  0.05697  0.78986  1.0000
  C   C4        1.0  0.26712  0.67599  0.21014  1.0000
  C   C5        1.0  0.26712  0.21014  0.67600  1.0000
  C   C6        1.0  0.46585  0.78986  0.05697  1.0000
  C   C7        1.0  0.73288  0.40888  0.94303  1.0000
  C   C8        1.0  0.53415  0.59112  0.32401  1.0000
  C   C9        1.0  0.21014  0.26712  0.67600  1.0000
  C   C10       1.0  0.78986  0.46585  0.05697  1.0000
  C   C11       1.0  0.59112  0.53415  0.32400  1.0000
  C   C12       1.0  0.40888  0.73288  0.94303  1.0000
  C   C13       1.0  0.40888  0.94303  0.73288  1.0000
  C   C14       1.0  0.21014  0.67600  0.26711  1.0000
  C   C15       1.0  0.59112  0.32401  0.53415  1.0000
  C   C16       1.0  0.78986  0.05697  0.46585  1.0000
  C   C17       1.0  0.94303  0.40888  0.73288  1.0000
  C   C18       1.0  0.32400  0.59112  0.53415  1.0000
  C   C19       1.0  0.05697  0.78986  0.46585  1.0000
  C   C20       1.0  0.67600  0.21014  0.26712  1.0000
  C   C21       1.0  0.94303  0.73288  0.40888  1.0000
  C   C22       1.0  0.32400  0.53415  0.59112  1.0000
  C   C23       1.0  0.67600  0.26712  0.21014  1.0000
  C   C24       1.0  0.05697  0.46585  0.78986  1.0000
  C   C25       1.0  0.63061  0.24401  0.63061  1.0000
  C   C26       1.0  0.61340  0.00000  0.36939  1.0000
  C   C27       1.0  0.36939  0.00000  0.61340  1.0000
  C   C28       1.0  0.38660  0.75599  0.38660  1.0000
  C   C29       1.0  0.38660  0.38660  0.75599  1.0000
  C   C30       1.0  0.36939  0.61340  0.00000  1.0000
  C   C31       1.0  0.61340  0.36939  1.00000  1.0000
  C   C32       1.0  0.63061  0.63061  0.24401  1.0000
  C   C33       1.0  0.00000  0.36939  0.61340  1.0000
  C   C34       1.0  0.24401  0.63061  0.63061  1.0000
  C   C35       1.0  1.00000  0.61340  0.36939  1.0000
  C   C36       1.0  0.75599  0.38660  0.38660  1.0000
  C   C37       1.0  0.67813  0.18520  0.67813  1.0000
  C   C38       1.0  0.50707  0.00000  0.32187  1.0000
  C   C39       1.0  0.32187  0.00000  0.50707  1.0000
  C   C40       1.0  0.49293  0.81480  0.49293  1.0000
  C   C41       1.0  0.49293  0.49293  0.81480  1.0000
  C   C42       1.0  0.32187  0.50707  1.00000  1.0000
  C   C43       1.0  0.50707  0.32187  0.00000  1.0000
  C   C44       1.0  0.67813  0.67813  0.18520  1.0000
  C   C45       1.0  1.00000  0.32187  0.50707  1.0000
  C   C46       1.0  0.18520  0.67813  0.67813  1.0000
  C   C47       1.0  1.00000  0.50707  0.32187  1.0000
  C   C48       1.0  0.81480  0.49293  0.49293  1.0000
  N   N1        1.0  0.55954  0.27366  0.65199  1.0000
  N   N2        1.0  0.62168  0.90755  0.34801  1.0000
  N   N3        1.0  0.44047  0.09245  0.71413  1.0000
  N   N4        1.0  0.37832  0.72634  0.28587  1.0000
  N   N5        1.0  0.37832  0.28587  0.72634  1.0000
  N   N6        1.0  0.44046  0.71413  0.09245  1.0000
  N   N7        1.0  0.62168  0.34801  0.90755  1.0000
  N   N8        1.0  0.55954  0.65199  0.27366  1.0000
  N   N9        1.0  0.28587  0.37832  0.72634  1.0000
  N   N10       1.0  0.71413  0.44046  0.09245  1.0000
  N   N11       1.0  0.65199  0.55954  0.27366  1.0000
  N   N12       1.0  0.34801  0.62168  0.90755  1.0000
  N   N13       1.0  0.34801  0.90755  0.62168  1.0000
  N   N14       1.0  0.28587  0.72634  0.37832  1.0000
  N   N15       1.0  0.65199  0.27366  0.55954  1.0000
  N   N16       1.0  0.71413  0.09245  0.44047  1.0000
  N   N17       1.0  0.90755  0.34801  0.62168  1.0000
  N   N18       1.0  0.27366  0.65198  0.55953  1.0000
  N   N19       1.0  0.09245  0.71413  0.44046  1.0000
  N   N20       1.0  0.72634  0.28587  0.37832  1.0000
  N   N21       1.0  0.90755  0.62168  0.34801  1.0000
  N   N22       1.0  0.27366  0.55953  0.65199  1.0000
  N   N23       1.0  0.72634  0.37832  0.28587  1.0000
  N   N24       1.0  0.09245  0.44047  0.71413  1.0000
