data_image0
_chemical_formula_structural       Zn6H60C48N24
_chemical_formula_sum              "Zn6 H60 C48 N24"
_cell_length_a       14.7513
_cell_length_b       14.7515
_cell_length_c       14.7515
_cell_angle_alpha    109.472
_cell_angle_beta     109.471
_cell_angle_gamma    109.471

_space_group_name_H-M_alt    "P 1"
_space_group_IT_number       1

loop_
  _space_group_symop_operation_xyz
  'x, y, z'

loop_
  _atom_site_type_symbol
  _atom_site_label
  _atom_site_symmetry_multiplicity
  _atom_site_fract_x
  _atom_site_fract_y
  _atom_site_fract_z
  _atom_site_occupancy
  Zn  Zn1       1.0  0.50000  0.75000  0.25000  1.0000
  Zn  Zn2       1.0  0.75000  0.50000  0.25000  1.0000
  Zn  Zn3       1.0  0.25000  0.50000  0.75000  1.0000
  Zn  Zn4       1.0  0.50000  0.25000  0.75000  1.0000
  Zn  Zn5       1.0  0.75000  0.25000  0.50000  1.0000
  Zn  Zn6       1.0  0.25000  0.75000  0.50000  1.0000
  H   H1        1.0  0.76309  0.88468  0.41889  1.0000
  H   H2        1.0  0.23691  0.65580  0.12160  1.0000
  H   H3        1.0  0.65580  0.23691  0.12160  1.0000
  H   H4        1.0  0.11532  0.53420  0.87840  1.0000
  H   H5        1.0  0.53420  0.11532  0.87840  1.0000
  H   H6        1.0  0.23691  0.12160  0.65580  1.0000
  H   H7        1.0  0.12160  0.23691  0.65580  1.0000
  H   H8        1.0  0.58112  0.46580  0.34420  1.0000
  H   H9        1.0  0.46579  0.58112  0.34420  1.0000
  H   H10       1.0  0.65580  0.12160  0.23691  1.0000
  H   H11       1.0  0.12160  0.65580  0.23692  1.0000
  H   H12       1.0  0.41888  0.88468  0.76309  1.0000
  H   H13       1.0  0.88468  0.41889  0.76308  1.0000
  H   H14       1.0  0.11532  0.87840  0.53420  1.0000
  H   H15       1.0  0.58112  0.34420  0.46580  1.0000
  H   H16       1.0  0.87840  0.11532  0.53420  1.0000
  H   H17       1.0  0.34420  0.58111  0.46580  1.0000
  H   H18       1.0  0.53420  0.87840  0.11532  1.0000
  H   H19       1.0  0.41888  0.76309  0.88468  1.0000
  H   H20       1.0  0.87840  0.53420  0.11532  1.0000
  H   H21       1.0  0.76309  0.41889  0.88468  1.0000
  H   H22       1.0  0.46579  0.34420  0.58111  1.0000
  H   H23       1.0  0.88468  0.76308  0.41889  1.0000
  H   H24       1.0  0.34420  0.46580  0.58111  1.0000
  H   H25       1.0  0.45052  0.92596  0.23619  1.0000
  H   H26       1.0  0.54948  0.78567  0.47543  1.0000
  H   H27       1.0  0.78567  0.54948  0.47543  1.0000
  H   H28       1.0  0.07404  0.31024  0.52457  1.0000
  H   H29       1.0  0.31024  0.07404  0.52457  1.0000
  H   H30       1.0  0.54948  0.47544  0.78567  1.0000
  H   H31       1.0  0.47544  0.54948  0.78567  1.0000
  H   H32       1.0  0.76381  0.68976  0.21433  1.0000
  H   H33       1.0  0.68977  0.76381  0.21433  1.0000
  H   H34       1.0  0.78567  0.47543  0.54948  1.0000
  H   H35       1.0  0.47544  0.78567  0.54948  1.0000
  H   H36       1.0  0.23619  0.92596  0.45053  1.0000
  H   H37       1.0  0.92596  0.23619  0.45052  1.0000
  H   H38       1.0  0.07404  0.52457  0.31024  1.0000
  H   H39       1.0  0.76381  0.21433  0.68976  1.0000
  H   H40       1.0  0.52457  0.07404  0.31024  1.0000
  H   H41       1.0  0.21433  0.76381  0.68977  1.0000
  H   H42       1.0  0.31023  0.52457  0.07404  1.0000
  H   H43       1.0  0.23619  0.45053  0.92596  1.0000
  H   H44       1.0  0.52457  0.31024  0.07404  1.0000
  H   H45       1.0  0.45052  0.23619  0.92596  1.0000
  H   H46       1.0  0.68977  0.21433  0.76381  1.0000
  H   H47       1.0  0.92596  0.45052  0.23619  1.0000
  H   H48       1.0  0.21433  0.68977  0.76381  1.0000
  H   H49       1.0  0.47082  0.00000  0.37025  1.0000
  H   H50       1.0  0.52918  0.89943  0.52918  1.0000
  H   H51       1.0  0.89943  0.52918  0.52918  1.0000
  H   H52       1.0  0.00000  0.37025  0.47082  1.0000
  H   H53       1.0  0.37025  0.00000  0.47083  1.0000
  H   H54       1.0  0.52918  0.52918  0.89943  1.0000
  H   H55       1.0  0.62975  0.62975  0.10057  1.0000
  H   H56       1.0  0.00000  0.47082  0.37025  1.0000
  H   H57       1.0  0.62975  0.10057  0.62975  1.0000
  H   H58       1.0  0.10057  0.62975  0.62975  1.0000
  H   H59       1.0  0.37025  0.47083  0.00000  1.0000
  H   H60       1.0  0.47082  0.37025  0.00000  1.0000
  C   C1        1.0  0.61606  0.00000  0.36902  1.0000
  C   C2        1.0  0.38395  0.75296  0.38395  1.0000
  C   C3        1.0  0.75296  0.38394  0.38394  1.0000
  C   C4        1.0  1.00000  0.36902  0.61605  1.0000
  C   C5        1.0  0.36902  0.00000  0.61606  1.0000
  C   C6        1.0  0.38394  0.38394  0.75296  1.0000
  C   C7        1.0  0.63098  0.63098  0.24704  1.0000
  C   C8        1.0  0.00000  0.61605  0.36902  1.0000
  C   C9        1.0  0.63098  0.24703  0.63098  1.0000
  C   C10       1.0  0.24704  0.63098  0.63098  1.0000
  C   C11       1.0  0.36902  0.61606  1.00000  1.0000
  C   C12       1.0  0.61606  0.36902  0.00000  1.0000
  C   C13       1.0  0.73394  0.94290  0.41703  1.0000
  C   C14       1.0  0.26606  0.68310  0.20897  1.0000
  C   C15       1.0  0.68309  0.26606  0.20897  1.0000
  C   C16       1.0  0.05710  0.47413  0.79103  1.0000
  C   C17       1.0  0.47413  0.05710  0.79103  1.0000
  C   C18       1.0  0.26606  0.20897  0.68310  1.0000
  C   C19       1.0  0.20896  0.26607  0.68310  1.0000
  C   C20       1.0  0.58297  0.52587  0.31690  1.0000
  C   C21       1.0  0.52587  0.58297  0.31690  1.0000
  C   C22       1.0  0.68309  0.20897  0.26606  1.0000
  C   C23       1.0  0.20896  0.68310  0.26607  1.0000
  C   C24       1.0  0.41703  0.94290  0.73394  1.0000
  C   C25       1.0  0.94290  0.41703  0.73393  1.0000
  C   C26       1.0  0.05710  0.79103  0.47413  1.0000
  C   C27       1.0  0.58297  0.31690  0.52587  1.0000
  C   C28       1.0  0.79104  0.05710  0.47413  1.0000
  C   C29       1.0  0.31690  0.58297  0.52587  1.0000
  C   C30       1.0  0.47413  0.79103  0.05710  1.0000
  C   C31       1.0  0.41703  0.73394  0.94290  1.0000
  C   C32       1.0  0.79103  0.47413  0.05710  1.0000
  C   C33       1.0  0.73394  0.41703  0.94290  1.0000
  C   C34       1.0  0.52587  0.31690  0.58297  1.0000
  C   C35       1.0  0.94290  0.73393  0.41703  1.0000
  C   C36       1.0  0.31690  0.52587  0.58297  1.0000
  C   C37       1.0  0.51008  0.00000  0.31850  1.0000
  C   C38       1.0  0.48992  0.80842  0.48992  1.0000
  C   C39       1.0  0.80842  0.48992  0.48992  1.0000
  C   C40       1.0  0.00000  0.31850  0.51008  1.0000
  C   C41       1.0  0.31850  0.00000  0.51008  1.0000
  C   C42       1.0  0.48992  0.48992  0.80842  1.0000
  C   C43       1.0  0.68150  0.68150  0.19158  1.0000
  C   C44       1.0  0.00000  0.51008  0.31850  1.0000
  C   C45       1.0  0.68150  0.19158  0.68150  1.0000
  C   C46       1.0  0.19158  0.68150  0.68150  1.0000
  C   C47       1.0  0.31850  0.51008  0.00000  1.0000
  C   C48       1.0  0.51008  0.31850  1.00000  1.0000
  N   N1        1.0  0.62357  0.90731  0.35055  1.0000
  N   N2        1.0  0.37643  0.72698  0.28374  1.0000
  N   N3        1.0  0.72698  0.37643  0.28374  1.0000
  N   N4        1.0  0.09269  0.44324  0.71626  1.0000
  N   N5        1.0  0.44324  0.09269  0.71626  1.0000
  N   N6        1.0  0.37643  0.28374  0.72698  1.0000
  N   N7        1.0  0.28374  0.37643  0.72698  1.0000
  N   N8        1.0  0.64945  0.55676  0.27302  1.0000
  N   N9        1.0  0.55675  0.64945  0.27302  1.0000
  N   N10       1.0  0.72698  0.28374  0.37643  1.0000
  N   N11       1.0  0.28374  0.72698  0.37643  1.0000
  N   N12       1.0  0.35055  0.90731  0.62357  1.0000
  N   N13       1.0  0.90731  0.35055  0.62357  1.0000
  N   N14       1.0  0.09269  0.71626  0.44324  1.0000
  N   N15       1.0  0.64945  0.27302  0.55676  1.0000
  N   N16       1.0  0.71626  0.09269  0.44325  1.0000
  N   N17       1.0  0.27302  0.64945  0.55675  1.0000
  N   N18       1.0  0.44324  0.71626  0.09269  1.0000
  N   N19       1.0  0.35055  0.62357  0.90731  1.0000
  N   N20       1.0  0.71626  0.44325  0.09269  1.0000
  N   N21       1.0  0.62357  0.35055  0.90731  1.0000
  N   N22       1.0  0.55675  0.27302  0.64945  1.0000
  N   N23       1.0  0.90731  0.62357  0.35055  1.0000
  N   N24       1.0  0.27302  0.55675  0.64945  1.0000
