data_image0
_chemical_formula_structural       Na4H40C52Br4N8O12
_chemical_formula_sum              "Na4 H40 C52 Br4 N8 O12"
_cell_length_a       6.77718
_cell_length_b       13.2483
_cell_length_c       18.2657
_cell_angle_alpha    89.9966
_cell_angle_beta     89.9991
_cell_angle_gamma    84.4599

_space_group_name_H-M_alt    "P 1"
_space_group_IT_number       1

loop_
  _space_group_symop_operation_xyz
  'x, y, z'

loop_
  _atom_site_type_symbol
  _atom_site_label
  _atom_site_symmetry_multiplicity
  _atom_site_fract_x
  _atom_site_fract_y
  _atom_site_fract_z
  _atom_site_occupancy
  Na  Na1       1.0  0.88203  0.51508  0.08405  1.0000
  Na  Na2       1.0  0.61799  0.48489  0.58406  1.0000
  Na  Na3       1.0  0.11803  0.48495  0.91595  1.0000
  Na  Na4       1.0  0.38196  0.51509  0.41595  1.0000
  H   H1        1.0  0.83941  0.72248  0.02803  1.0000
  H   H2        1.0  0.66065  0.27751  0.52803  1.0000
  H   H3        1.0  0.16060  0.27757  0.97199  1.0000
  H   H4        1.0  0.33931  0.72249  0.47196  1.0000
  H   H5        1.0  0.62659  0.69201  0.04715  1.0000
  H   H6        1.0  0.87344  0.30798  0.54716  1.0000
  H   H7        1.0  0.37343  0.30802  0.95286  1.0000
  H   H8        1.0  0.12652  0.69198  0.45284  1.0000
  H   H9        1.0  0.66675  0.28489  0.69873  1.0000
  H   H10       1.0  0.83320  0.71509  0.19872  1.0000
  H   H11       1.0  0.33315  0.71511  0.30127  1.0000
  H   H12       1.0  0.16675  0.28495  0.80130  1.0000
  H   H13       1.0  0.56626  0.59328  0.73853  1.0000
  H   H14       1.0  0.93363  0.40670  0.23853  1.0000
  H   H15       1.0  0.43379  0.40671  0.26148  1.0000
  H   H16       1.0  0.06643  0.59333  0.76145  1.0000
  H   H17       1.0  0.61061  0.56700  0.87367  1.0000
  H   H18       1.0  0.88928  0.43297  0.37367  1.0000
  H   H19       1.0  0.38952  0.43301  0.12633  1.0000
  H   H20       1.0  0.11077  0.56699  0.62630  1.0000
  H   H21       1.0  0.60775  0.27863  0.19920  1.0000
  H   H22       1.0  0.89215  0.72131  0.69919  1.0000
  H   H23       1.0  0.39233  0.72140  0.80080  1.0000
  H   H24       1.0  0.10781  0.27867  0.30080  1.0000
  H   H25       1.0  0.41948  0.14948  0.26106  1.0000
  H   H26       1.0  0.08044  0.85045  0.76106  1.0000
  H   H27       1.0  0.58057  0.85057  0.73896  1.0000
  H   H28       1.0  0.91960  0.14952  0.23893  1.0000
  H   H29       1.0  0.26346  0.02226  0.18660  1.0000
  H   H30       1.0  0.23645  0.97767  0.68660  1.0000
  H   H31       1.0  0.73650  0.97781  0.81341  1.0000
  H   H32       1.0  0.76360  0.02226  0.31337  1.0000
  H   H33       1.0  0.29945  0.02197  0.05031  1.0000
  H   H34       1.0  0.20044  0.97800  0.55031  1.0000
  H   H35       1.0  0.70050  0.97807  0.94970  1.0000
  H   H36       1.0  0.79955  0.02195  0.44966  1.0000
  H   H37       1.0  0.48154  0.15308  0.98949  1.0000
  H   H38       1.0  0.01834  0.84689  0.48949  1.0000
  H   H39       1.0  0.51847  0.84695  0.01051  1.0000
  H   H40       1.0  0.98158  0.15307  0.51049  1.0000
  C   C1        1.0  0.66739  0.32469  0.81432  1.0000
  C   C2        1.0  0.83261  0.67530  0.31431  1.0000
  C   C3        1.0  0.33267  0.67531  0.18569  1.0000
  C   C4        1.0  0.16734  0.32470  0.68570  1.0000
  C   C5        1.0  0.64815  0.34568  0.73927  1.0000
  C   C6        1.0  0.85177  0.65431  0.23926  1.0000
  C   C7        1.0  0.35178  0.65433  0.26074  1.0000
  C   C8        1.0  0.14817  0.34571  0.76075  1.0000
  C   C9        1.0  0.59385  0.51722  0.76164  1.0000
  C   C10       1.0  0.90609  0.48277  0.26162  1.0000
  C   C11       1.0  0.40620  0.48279  0.23837  1.0000
  C   C12       1.0  0.09396  0.51724  0.73835  1.0000
  C   C13       1.0  0.61621  0.50270  0.83642  1.0000
  C   C14       1.0  0.88371  0.49727  0.33640  1.0000
  C   C15       1.0  0.38384  0.49731  0.16358  1.0000
  C   C16       1.0  0.11631  0.50270  0.66357  1.0000
  C   C17       1.0  0.65359  0.40430  0.86496  1.0000
  C   C18       1.0  0.84639  0.59567  0.36495  1.0000
  C   C19       1.0  0.34647  0.59570  0.13504  1.0000
  C   C20       1.0  0.15361  0.40430  0.63505  1.0000
  C   C21       1.0  0.69889  0.39667  0.94595  1.0000
  C   C22       1.0  0.80110  0.60331  0.44595  1.0000
  C   C23       1.0  0.30117  0.60334  0.05406  1.0000
  C   C24       1.0  0.19888  0.39664  0.55407  1.0000
  C   C25       1.0  0.65832  0.30805  0.05670  1.0000
  C   C26       1.0  0.84162  0.69190  0.55668  1.0000
  C   C27       1.0  0.34173  0.69197  0.94331  1.0000
  C   C28       1.0  0.15832  0.30806  0.44331  1.0000
  C   C29       1.0  0.55100  0.22598  0.09076  1.0000
  C   C30       1.0  0.94885  0.77398  0.59075  1.0000
  C   C31       1.0  0.44903  0.77405  0.90924  1.0000
  C   C32       1.0  0.05105  0.22599  0.40923  1.0000
  C   C33       1.0  0.53618  0.22292  0.16737  1.0000
  C   C34       1.0  0.96368  0.77703  0.66736  1.0000
  C   C35       1.0  0.46386  0.77712  0.83264  1.0000
  C   C36       1.0  0.03628  0.22295  0.33263  1.0000
  C   C37       1.0  0.43261  0.15031  0.20158  1.0000
  C   C38       1.0  0.06732  0.84961  0.70158  1.0000
  C   C39       1.0  0.56742  0.84972  0.79842  1.0000
  C   C40       1.0  0.93269  0.15036  0.29840  1.0000
  C   C41       1.0  0.34503  0.07866  0.15948  1.0000
  C   C42       1.0  0.15485  0.92129  0.65948  1.0000
  C   C43       1.0  0.65493  0.92139  0.84053  1.0000
  C   C44       1.0  0.84518  0.07867  0.34050  1.0000
  C   C45       1.0  0.36402  0.07908  0.08326  1.0000
  C   C46       1.0  0.13590  0.92088  0.58326  1.0000
  C   C47       1.0  0.63598  0.92096  0.91675  1.0000
  C   C48       1.0  0.86408  0.07908  0.41672  1.0000
  C   C49       1.0  0.46584  0.15258  0.04889  1.0000
  C   C50       1.0  0.03405  0.84739  0.54889  1.0000
  C   C51       1.0  0.53418  0.84745  0.95112  1.0000
  C   C52       1.0  0.96589  0.15258  0.45110  1.0000
  Br  Br1       1.0  0.73061  0.18683  0.84158  1.0000
  Br  Br2       1.0  0.76938  0.81315  0.34156  1.0000
  Br  Br3       1.0  0.26941  0.81318  0.15842  1.0000
  Br  Br4       1.0  0.23052  0.18682  0.65846  1.0000
  N   N1        1.0  0.61159  0.44022  0.71335  1.0000
  N   N2        1.0  0.88835  0.55976  0.21334  1.0000
  N   N3        1.0  0.38837  0.55979  0.28667  1.0000
  N   N4        1.0  0.11166  0.44026  0.78665  1.0000
  N   N5        1.0  0.61300  0.32579  0.98400  1.0000
  N   N6        1.0  0.88694  0.67418  0.48400  1.0000
  N   N7        1.0  0.38706  0.67422  0.01600  1.0000
  N   N8        1.0  0.11302  0.32577  0.51601  1.0000
  O   O1        1.0  0.81106  0.46052  0.96852  1.0000
  O   O2        1.0  0.68894  0.53943  0.46852  1.0000
  O   O3        1.0  0.18902  0.53948  0.03147  1.0000
  O   O4        1.0  0.31106  0.46051  0.53148  1.0000
  O   O5        1.0  0.77450  0.35303  0.09564  1.0000
  O   O6        1.0  0.72538  0.64694  0.59563  1.0000
  O   O7        1.0  0.22552  0.64700  0.90436  1.0000
  O   O8        1.0  0.27452  0.35306  0.40436  1.0000
  O   O9        1.0  0.76818  0.68754  0.06491  1.0000
  O   O10       1.0  0.73185  0.31244  0.56492  1.0000
  O   O11       1.0  0.23184  0.31249  0.93510  1.0000
  O   O12       1.0  0.26811  0.68754  0.43509  1.0000
