data_image0
_chemical_formula_structural       Tb4H38C66N10O26
_chemical_formula_sum              "Tb4 H38 C66 N10 O26"
_cell_length_a       7.50247
_cell_length_b       12.427
_cell_length_c       18.177
_cell_angle_alpha    70.8895
_cell_angle_beta     78.487
_cell_angle_gamma    74.7723

_space_group_name_H-M_alt    "P 1"
_space_group_IT_number       1

loop_
  _space_group_symop_operation_xyz
  'x, y, z'

loop_
  _atom_site_type_symbol
  _atom_site_label
  _atom_site_symmetry_multiplicity
  _atom_site_fract_x
  _atom_site_fract_y
  _atom_site_fract_z
  _atom_site_occupancy
  Tb  Tb1       1.0  0.31055  0.54174  0.91308  1.0000
  Tb  Tb2       1.0  0.68945  0.45825  0.08692  1.0000
  Tb  Tb3       1.0  0.37777  0.26373  0.26323  1.0000
  Tb  Tb4       1.0  0.62224  0.73626  0.73676  1.0000
  H   H1        1.0  0.53391  0.34078  0.99948  1.0000
  H   H2        1.0  0.46609  0.65922  0.00052  1.0000
  H   H3        1.0  0.38236  0.34659  0.07442  1.0000
  H   H4        1.0  0.61764  0.65341  0.92558  1.0000
  H   H5        1.0  0.68760  0.72224  0.13823  1.0000
  H   H6        1.0  0.31241  0.27776  0.86177  1.0000
  H   H7        1.0  0.66714  0.78926  0.25650  1.0000
  H   H8        1.0  0.33286  0.21074  0.74350  1.0000
  H   H9        1.0  0.22952  0.65566  0.27262  1.0000
  H   H10       1.0  0.77048  0.34434  0.72738  1.0000
  H   H11       1.0  0.21022  0.02789  0.84665  1.0000
  H   H12       1.0  0.78977  0.97211  0.15335  1.0000
  H   H13       1.0  0.94001  0.12032  0.92629  1.0000
  H   H14       1.0  0.05999  0.87968  0.07371  1.0000
  H   H15       1.0  0.65458  0.86372  0.95404  1.0000
  H   H16       1.0  0.34541  0.13628  0.04596  1.0000
  H   H17       1.0  0.58964  0.46374  0.63597  1.0000
  H   H18       1.0  0.41036  0.53626  0.36403  1.0000
  H   H19       1.0  0.53546  0.36488  0.54507  1.0000
  H   H20       1.0  0.46454  0.63512  0.45492  1.0000
  H   H21       1.0  0.97012  0.51021  0.56503  1.0000
  H   H22       1.0  0.02988  0.48979  0.43496  1.0000
  H   H23       1.0  0.36848  0.04366  0.19281  1.0000
  H   H24       1.0  0.63152  0.95633  0.80720  1.0000
  H   H25       1.0  0.27325  0.85338  0.22809  1.0000
  H   H26       1.0  0.72675  0.14661  0.77191  1.0000
  H   H27       1.0  0.16865  0.75775  0.36976  1.0000
  H   H28       1.0  0.83134  0.24225  0.63025  1.0000
  H   H29       1.0  0.14150  0.75418  0.51077  1.0000
  H   H30       1.0  0.85848  0.24582  0.48923  1.0000
  H   H31       1.0  0.16545  0.84815  0.60793  1.0000
  H   H32       1.0  0.83454  0.15185  0.39207  1.0000
  H   H33       1.0  0.22876  0.01808  0.63688  1.0000
  H   H34       1.0  0.77123  0.98194  0.36312  1.0000
  H   H35       1.0  0.30841  0.21571  0.58472  1.0000
  H   H36       1.0  0.69158  0.78430  0.41528  1.0000
  H   H37       1.0  0.38317  0.29945  0.44027  1.0000
  H   H38       1.0  0.61683  0.70056  0.55973  1.0000
  C   C1        1.0  0.00235  0.61578  0.06313  1.0000
  C   C2        1.0  0.99765  0.38422  0.93687  1.0000
  C   C3        1.0  0.98344  0.65163  0.13621  1.0000
  C   C4        1.0  0.01656  0.34836  0.86379  1.0000
  C   C5        1.0  0.81077  0.70799  0.16627  1.0000
  C   C6        1.0  0.18923  0.29201  0.83373  1.0000
  C   C7        1.0  0.80003  0.74428  0.23218  1.0000
  C   C8        1.0  0.19998  0.25572  0.76782  1.0000
  C   C9        1.0  0.11095  0.67128  0.24126  1.0000
  C   C10       1.0  0.88906  0.32873  0.75874  1.0000
  C   C11       1.0  0.13745  0.63144  0.17538  1.0000
  C   C12       1.0  0.86256  0.36856  0.82462  1.0000
  C   C13       1.0  0.32754  0.56990  0.14947  1.0000
  C   C14       1.0  0.67247  0.43010  0.85053  1.0000
  C   C15       1.0  0.25774  0.83268  0.81082  1.0000
  C   C16       1.0  0.74225  0.16731  0.18919  1.0000
  C   C17       1.0  0.08557  0.88517  0.85590  1.0000
  C   C18       1.0  0.91442  0.11483  0.14410  1.0000
  C   C19       1.0  0.08943  0.98847  0.87017  1.0000
  C   C20       1.0  0.91056  0.01153  0.12982  1.0000
  C   C21       1.0  0.93855  0.03974  0.91473  1.0000
  C   C22       1.0  0.06145  0.96026  0.08527  1.0000
  C   C23       1.0  0.78080  0.89806  0.92975  1.0000
  C   C24       1.0  0.21920  0.10194  0.07025  1.0000
  C   C25       1.0  0.92452  0.83907  0.88519  1.0000
  C   C26       1.0  0.07548  0.16093  0.11481  1.0000
  C   C27       1.0  0.89262  0.73505  0.86865  1.0000
  C   C28       1.0  0.10738  0.26494  0.13135  1.0000
  C   C29       1.0  0.33036  0.59030  0.71755  1.0000
  C   C30       1.0  0.66965  0.40970  0.28245  1.0000
  C   C31       1.0  0.29732  0.54079  0.65733  1.0000
  C   C32       1.0  0.70269  0.45921  0.34267  1.0000
  C   C33       1.0  0.44953  0.47309  0.62307  1.0000
  C   C34       1.0  0.55047  0.52691  0.37693  1.0000
  C   C35       1.0  0.41913  0.42011  0.57134  1.0000
  C   C36       1.0  0.58088  0.57989  0.42866  1.0000
  C   C37       1.0  0.10670  0.49854  0.58257  1.0000
  C   C38       1.0  0.89330  0.50146  0.41742  1.0000
  C   C39       1.0  0.12077  0.55247  0.63732  1.0000
  C   C40       1.0  0.87924  0.44752  0.36267  1.0000
  C   C41       1.0  0.94822  0.61892  0.67214  1.0000
  C   C42       1.0  0.05179  0.38108  0.32786  1.0000
  C   C43       1.0  0.32482  0.99952  0.25364  1.0000
  C   C44       1.0  0.67517  0.00047  0.74636  1.0000
  C   C45       1.0  0.27290  0.89178  0.27405  1.0000
  C   C46       1.0  0.72710  0.10821  0.72595  1.0000
  C   C47       1.0  0.21771  0.83889  0.35199  1.0000
  C   C48       1.0  0.78228  0.16111  0.64801  1.0000
  C   C49       1.0  0.22412  0.89126  0.40935  1.0000
  C   C50       1.0  0.77587  0.10874  0.59066  1.0000
  C   C51       1.0  0.18291  0.83796  0.49162  1.0000
  C   C52       1.0  0.81709  0.16204  0.50838  1.0000
  C   C53       1.0  0.19467  0.89038  0.54532  1.0000
  C   C54       1.0  0.80532  0.10962  0.45469  1.0000
  C   C55       1.0  0.24605  0.00115  0.52042  1.0000
  C   C56       1.0  0.75394  0.99885  0.47958  1.0000
  C   C57       1.0  0.25679  0.05906  0.57399  1.0000
  C   C58       1.0  0.74320  0.94095  0.42601  1.0000
  C   C59       1.0  0.30401  0.16673  0.54553  1.0000
  C   C60       1.0  0.69599  0.83328  0.45447  1.0000
  C   C61       1.0  0.34440  0.21507  0.46415  1.0000
  C   C62       1.0  0.65560  0.78493  0.53585  1.0000
  C   C63       1.0  0.28594  0.05751  0.43913  1.0000
  C   C64       1.0  0.71406  0.94249  0.56088  1.0000
  C   C65       1.0  0.27550  0.00148  0.38273  1.0000
  C   C66       1.0  0.72450  0.99852  0.61727  1.0000
  N   N1        1.0  0.94740  0.72735  0.26941  1.0000
  N   N2        1.0  0.05260  0.27265  0.73059  1.0000
  N   N3        1.0  0.78602  0.99500  0.94548  1.0000
  N   N4        1.0  0.21397  0.00500  0.05451  1.0000
  N   N5        1.0  0.25176  0.43381  0.54948  1.0000
  N   N6        1.0  0.74825  0.56619  0.45052  1.0000
  N   N7        1.0  0.31975  0.05547  0.30547  1.0000
  N   N8        1.0  0.68025  0.94453  0.69453  1.0000
  N   N9        1.0  0.33647  0.16249  0.41186  1.0000
  N   N10       1.0  0.66353  0.83751  0.58814  1.0000
  O   O1        1.0  0.16155  0.60628  0.02278  1.0000
  O   O2        1.0  0.83845  0.39372  0.97722  1.0000
  O   O3        1.0  0.85767  0.59998  0.04553  1.0000
  O   O4        1.0  0.14234  0.40002  0.95447  1.0000
  O   O5        1.0  0.44749  0.63001  0.11175  1.0000
  O   O6        1.0  0.55252  0.36999  0.88825  1.0000
  O   O7        1.0  0.36863  0.45838  0.16711  1.0000
  O   O8        1.0  0.63137  0.54162  0.83289  1.0000
  O   O9        1.0  0.34830  0.73000  0.84402  1.0000
  O   O10       1.0  0.65170  0.27000  0.15598  1.0000
  O   O11       1.0  0.32232  0.89180  0.74519  1.0000
  O   O12       1.0  0.67767  0.10819  0.25481  1.0000
  O   O13       1.0  0.01679  0.64431  0.87423  1.0000
  O   O14       1.0  0.98321  0.35568  0.12577  1.0000
  O   O15       1.0  0.72862  0.74616  0.85071  1.0000
  O   O16       1.0  0.27138  0.25384  0.14930  1.0000
  O   O17       1.0  0.29224  0.53405  0.78817  1.0000
  O   O18       1.0  0.70777  0.46595  0.21182  1.0000
  O   O19       1.0  0.40570  0.67804  0.69231  1.0000
  O   O20       1.0  0.59431  0.32195  0.30769  1.0000
  O   O21       1.0  0.95518  0.69992  0.69972  1.0000
  O   O22       1.0  0.04483  0.30008  0.30028  1.0000
  O   O23       1.0  0.79341  0.59342  0.67290  1.0000
  O   O24       1.0  0.20660  0.40659  0.32709  1.0000
  O   O25       1.0  0.45944  0.39316  0.03013  1.0000
  O   O26       1.0  0.54056  0.60684  0.96987  1.0000
