data_image0
_chemical_formula_structural       Ag4H12C12N16O8
_chemical_formula_sum              "Ag4 H12 C12 N16 O8"
_cell_length_a       4.96943
_cell_length_b       8.5372
_cell_length_c       13.7385
_cell_angle_alpha    90
_cell_angle_beta     90
_cell_angle_gamma    100.077

_space_group_name_H-M_alt    "P 1"
_space_group_IT_number       1

loop_
  _space_group_symop_operation_xyz
  'x, y, z'

loop_
  _atom_site_type_symbol
  _atom_site_label
  _atom_site_symmetry_multiplicity
  _atom_site_fract_x
  _atom_site_fract_y
  _atom_site_fract_z
  _atom_site_occupancy
  Ag  Ag1       1.0  0.75584  0.60266  0.96458  1.0000
  Ag  Ag2       1.0  0.74416  0.89734  0.46458  1.0000
  Ag  Ag3       1.0  0.24416  0.39734  0.03542  1.0000
  Ag  Ag4       1.0  0.25584  0.10266  0.53542  1.0000
  H   H1        1.0  0.28130  0.69731  0.81992  1.0000
  H   H2        1.0  0.21870  0.80269  0.31992  1.0000
  H   H3        1.0  0.71870  0.30269  0.18008  1.0000
  H   H4        1.0  0.78130  0.19731  0.68008  1.0000
  H   H5        1.0  0.96096  0.62075  0.65416  1.0000
  H   H6        1.0  0.53904  0.87925  0.15416  1.0000
  H   H7        1.0  0.03904  0.37925  0.34584  1.0000
  H   H8        1.0  0.46096  0.12075  0.84584  1.0000
  H   H9        1.0  0.05509  0.46523  0.58236  1.0000
  H   H10       1.0  0.44491  0.03478  0.08236  1.0000
  H   H11       1.0  0.94491  0.53477  0.41764  1.0000
  H   H12       1.0  0.55509  0.96523  0.91764  1.0000
  C   C1        1.0  0.36310  0.59816  0.78991  1.0000
  C   C2        1.0  0.13690  0.90184  0.28991  1.0000
  C   C3        1.0  0.63690  0.40184  0.21009  1.0000
  C   C4        1.0  0.86310  0.09816  0.71009  1.0000
  C   C5        1.0  0.13445  0.57288  0.62467  1.0000
  C   C6        1.0  0.36555  0.92712  0.12467  1.0000
  C   C7        1.0  0.86555  0.42712  0.37533  1.0000
  C   C8        1.0  0.63444  0.07288  0.87533  1.0000
  C   C9        1.0  0.29863  0.69887  0.55846  1.0000
  C   C10       1.0  0.20136  0.80113  0.05846  1.0000
  C   C11       1.0  0.70136  0.30113  0.44154  1.0000
  C   C12       1.0  0.79864  0.19887  0.94154  1.0000
  N   N1        1.0  0.54580  0.52354  0.83219  1.0000
  N   N2        1.0  0.95420  0.97646  0.33219  1.0000
  N   N3        1.0  0.45420  0.47646  0.16781  1.0000
  N   N4        1.0  0.04580  0.02354  0.66781  1.0000
  N   N5        1.0  0.58912  0.40557  0.77051  1.0000
  N   N6        1.0  0.91088  0.09443  0.27051  1.0000
  N   N7        1.0  0.41088  0.59443  0.22949  1.0000
  N   N8        1.0  0.08912  0.90557  0.72949  1.0000
  N   N9        1.0  0.43969  0.40702  0.69317  1.0000
  N   N10       1.0  0.06031  0.09299  0.19317  1.0000
  N   N11       1.0  0.56031  0.59299  0.30683  1.0000
  N   N12       1.0  0.93969  0.90701  0.80683  1.0000
  N   N13       1.0  0.29622  0.52693  0.70423  1.0000
  N   N14       1.0  0.20378  0.97307  0.20423  1.0000
  N   N15       1.0  0.70378  0.47307  0.29577  1.0000
  N   N16       1.0  0.79622  0.02693  0.79577  1.0000
  O   O1        1.0  0.17729  0.73566  0.48377  1.0000
  O   O2        1.0  0.32271  0.76434  0.98377  1.0000
  O   O3        1.0  0.82271  0.26434  0.51623  1.0000
  O   O4        1.0  0.67729  0.23566  0.01623  1.0000
  O   O5        1.0  0.54340  0.75644  0.58387  1.0000
  O   O6        1.0  0.95660  0.74356  0.08387  1.0000
  O   O7        1.0  0.45660  0.24356  0.41613  1.0000
  O   O8        1.0  0.04340  0.25644  0.91613  1.0000
