data_image0
_chemical_formula_structural       H8Pb4C12O16
_chemical_formula_sum              "H8 Pb4 C12 O16"
_cell_length_a       5.32716
_cell_length_b       6.95825
_cell_length_c       12.8041
_cell_angle_alpha    99.7163
_cell_angle_beta     89.9854
_cell_angle_gamma    89.9932

_space_group_name_H-M_alt    "P 1"
_space_group_IT_number       1

loop_
  _space_group_symop_operation_xyz
  'x, y, z'

loop_
  _atom_site_type_symbol
  _atom_site_label
  _atom_site_symmetry_multiplicity
  _atom_site_fract_x
  _atom_site_fract_y
  _atom_site_fract_z
  _atom_site_occupancy
  H   H1        1.0  0.39460  0.70541  0.99933  1.0000
  H   H2        1.0  0.89507  0.79401  0.00070  1.0000
  H   H3        1.0  0.60477  0.29401  0.00069  1.0000
  H   H4        1.0  0.10540  0.20529  0.99928  1.0000
  H   H5        1.0  0.23957  0.52515  0.05459  1.0000
  H   H6        1.0  0.73935  0.97438  0.94580  1.0000
  H   H7        1.0  0.76055  0.47424  0.94571  1.0000
  H   H8        1.0  0.26051  0.02492  0.05441  1.0000
  Pb  Pb1       1.0  0.03564  0.60015  0.31083  1.0000
  Pb  Pb2       1.0  0.53563  0.90032  0.68910  1.0000
  Pb  Pb3       1.0  0.96444  0.40026  0.68910  1.0000
  Pb  Pb4       1.0  0.46447  0.10020  0.31084  1.0000
  C   C1        1.0  0.61236  0.53169  0.46860  1.0000
  C   C2        1.0  0.11231  0.96860  0.53131  1.0000
  C   C3        1.0  0.38779  0.46868  0.53133  1.0000
  C   C4        1.0  0.88771  0.03156  0.46861  1.0000
  C   C5        1.0  0.55696  0.65081  0.14165  1.0000
  C   C6        1.0  0.05673  0.84922  0.85833  1.0000
  C   C7        1.0  0.44304  0.34936  0.85839  1.0000
  C   C8        1.0  0.94314  0.15066  0.14164  1.0000
  C   C9        1.0  0.42746  0.57678  0.03731  1.0000
  C   C10       1.0  0.92747  0.92280  0.96282  1.0000
  C   C11       1.0  0.57245  0.42284  0.96283  1.0000
  C   C12       1.0  0.07257  0.07667  0.03723  1.0000
  O   O1        1.0  0.61348  0.46942  0.36851  1.0000
  O   O2        1.0  0.11354  0.03113  0.63138  1.0000
  O   O3        1.0  0.38660  0.53105  0.63141  1.0000
  O   O4        1.0  0.88646  0.96907  0.36855  1.0000
  O   O5        1.0  0.77928  0.63846  0.51801  1.0000
  O   O6        1.0  0.27912  0.86164  0.48191  1.0000
  O   O7        1.0  0.22097  0.36183  0.48192  1.0000
  O   O8        1.0  0.72092  0.13855  0.51802  1.0000
  O   O9        1.0  0.79000  0.61864  0.15048  1.0000
  O   O10       1.0  0.28977  0.88139  0.84943  1.0000
  O   O11       1.0  0.21004  0.38171  0.84956  1.0000
  O   O12       1.0  0.71007  0.11867  0.15048  1.0000
  O   O13       1.0  0.42076  0.74731  0.21552  1.0000
  O   O14       1.0  0.92048  0.75307  0.78443  1.0000
  O   O15       1.0  0.57921  0.25310  0.78444  1.0000
  O   O16       1.0  0.07931  0.24696  0.21551  1.0000
