data_image0
_chemical_formula_structural       Co2Ag2H68C52N4O16
_chemical_formula_sum              "Co2 Ag2 H68 C52 N4 O16"
_cell_length_a       11.8402
_cell_length_b       11.8412
_cell_length_c       12.6158
_cell_angle_alpha    105.622
_cell_angle_beta     109.397
_cell_angle_gamma    111.065

_space_group_name_H-M_alt    "P 1"
_space_group_IT_number       1

loop_
  _space_group_symop_operation_xyz
  'x, y, z'

loop_
  _atom_site_type_symbol
  _atom_site_label
  _atom_site_symmetry_multiplicity
  _atom_site_fract_x
  _atom_site_fract_y
  _atom_site_fract_z
  _atom_site_occupancy
  Co  Co1       1.0  0.45347  0.45334  0.99999  1.0000
  Co  Co2       1.0  0.19702  0.69724  0.50009  1.0000
  Ag  Ag1       1.0  0.20143  0.66251  0.78524  1.0000
  Ag  Ag2       1.0  0.87738  0.41636  0.21469  1.0000
  H   H1        1.0  0.26493  0.49756  0.31873  1.0000
  H   H2        1.0  0.17855  0.94599  0.68101  1.0000
  H   H3        1.0  0.19411  0.29192  0.35445  1.0000
  H   H4        1.0  0.93725  0.83963  0.64550  1.0000
  H   H5        1.0  0.24370  0.11308  0.25890  1.0000
  H   H6        1.0  0.85422  0.98490  0.74131  1.0000
  H   H7        1.0  0.36205  0.14018  0.13082  1.0000
  H   H8        1.0  0.00968  0.23136  0.86947  1.0000
  H   H9        1.0  0.38484  0.63889  0.24940  1.0000
  H   H10       1.0  0.38944  0.13526  0.75042  1.0000
  H   H11       1.0  0.43828  0.76100  0.14378  1.0000
  H   H12       1.0  0.61739  0.29443  0.85624  1.0000
  H   H13       1.0  0.70206  0.75286  0.17604  1.0000
  H   H14       1.0  0.57660  0.52568  0.82377  1.0000
  H   H15       1.0  0.79895  0.91119  0.40022  1.0000
  H   H16       1.0  0.51090  0.39843  0.59967  1.0000
  H   H17       1.0  0.65571  0.75738  0.35629  1.0000
  H   H18       1.0  0.40101  0.29904  0.64352  1.0000
  H   H19       1.0  0.63618  0.90109  0.36741  1.0000
  H   H20       1.0  0.53370  0.26851  0.63246  1.0000
  H   H21       1.0  0.81032  0.00076  0.23918  1.0000
  H   H22       1.0  0.76159  0.57107  0.76086  1.0000
  H   H23       1.0  0.64769  0.99130  0.20011  1.0000
  H   H24       1.0  0.79130  0.44762  0.80004  1.0000
  H   H25       1.0  0.67756  0.90825  0.08135  1.0000
  H   H26       1.0  0.82675  0.59617  0.91866  1.0000
  H   H27       1.0  0.68244  0.56701  0.30267  1.0000
  H   H28       1.0  0.26432  0.37992  0.69714  1.0000
  H   H29       1.0  0.56372  0.44050  0.39772  1.0000
  H   H30       1.0  0.04281  0.16599  0.60199  1.0000
  H   H31       1.0  0.70410  0.41608  0.57845  1.0000
  H   H32       1.0  0.83752  0.12556  0.42132  1.0000
  H   H33       1.0  0.95760  0.53035  0.67361  1.0000
  H   H34       1.0  0.85640  0.28398  0.32630  1.0000
  H   H35       1.0  0.87114  0.68657  0.28866  1.0000
  H   H36       1.0  0.39775  0.58259  0.71127  1.0000
  H   H37       1.0  0.02954  0.69221  0.20503  1.0000
  H   H38       1.0  0.48723  0.82468  0.79511  1.0000
  H   H39       1.0  0.17724  0.91998  0.24860  1.0000
  H   H40       1.0  0.67141  0.92856  0.75142  1.0000
  H   H41       1.0  0.01598  0.00434  0.25434  1.0000
  H   H42       1.0  0.74985  0.76150  0.74570  1.0000
  H   H43       1.0  0.95345  0.90499  0.32512  1.0000
  H   H44       1.0  0.57969  0.62821  0.67493  1.0000
  H   H45       1.0  0.92058  0.82520  0.16824  1.0000
  H   H46       1.0  0.65685  0.75229  0.83179  1.0000
  H   H47       1.0  0.25139  0.11894  0.44185  1.0000
  H   H48       1.0  0.67685  0.80931  0.55810  1.0000
  H   H49       1.0  0.33510  0.02565  0.47862  1.0000
  H   H50       1.0  0.54679  0.85626  0.52138  1.0000
  H   H51       1.0  0.19635  0.01068  0.50915  1.0000
  H   H52       1.0  0.50123  0.68699  0.49087  1.0000
  H   H53       1.0  0.17917  0.45098  0.87439  1.0000
  H   H54       1.0  0.57672  0.30484  0.12554  1.0000
  H   H55       1.0  0.18819  0.62931  0.04626  1.0000
  H   H56       1.0  0.58298  0.14176  0.95357  1.0000
  H   H57       1.0  0.08295  0.45394  0.99703  1.0000
  H   H58       1.0  0.45695  0.08606  0.00295  1.0000
  H   H59       1.0  0.00931  0.54480  0.93662  1.0000
  H   H60       1.0  0.60816  0.07268  0.06330  1.0000
  H   H61       1.0  0.28704  0.86785  0.03345  1.0000
  H   H62       1.0  0.83462  0.25347  0.96674  1.0000
  H   H63       1.0  0.11695  0.95258  0.99322  1.0000
  H   H64       1.0  0.95951  0.12354  0.00713  1.0000
  H   H65       1.0  0.07633  0.80257  0.01689  1.0000
  H   H66       1.0  0.78579  0.05945  0.98340  1.0000
  H   H67       1.0  0.01586  0.79027  0.86187  1.0000
  H   H68       1.0  0.92853  0.15405  0.13846  1.0000
  C   C1        1.0  0.38079  0.33307  0.15042  1.0000
  C   C2        1.0  0.18274  0.23033  0.84952  1.0000
  C   C3        1.0  0.35277  0.43528  0.20509  1.0000
  C   C4        1.0  0.23014  0.14755  0.79475  1.0000
  C   C5        1.0  0.28538  0.41817  0.27809  1.0000
  C   C6        1.0  0.13991  0.00715  0.72175  1.0000
  C   C7        1.0  0.24589  0.30366  0.29792  1.0000
  C   C8        1.0  0.00559  0.94794  0.70203  1.0000
  C   C9        1.0  0.27399  0.20365  0.24432  1.0000
  C   C10       1.0  0.95935  0.02973  0.75577  1.0000
  C   C11       1.0  0.33968  0.21751  0.17198  1.0000
  C   C12       1.0  0.04567  0.16773  0.82814  1.0000
  C   C13       1.0  0.39739  0.55959  0.19407  1.0000
  C   C14       1.0  0.36552  0.20316  0.80581  1.0000
  C   C15       1.0  0.49372  0.71180  0.11556  1.0000
  C   C16       1.0  0.59633  0.37803  0.88442  1.0000
  C   C17       1.0  0.45771  0.67824  0.97910  1.0000
  C   C18       1.0  0.69927  0.47857  0.02087  1.0000
  C   C19       1.0  0.65143  0.80913  0.20173  1.0000
  C   C20       1.0  0.60734  0.44947  0.79818  1.0000
  C   C21       1.0  0.68722  0.84661  0.33878  1.0000
  C   C22       1.0  0.50780  0.34814  0.66111  1.0000
  C   C23       1.0  0.69919  0.93408  0.17875  1.0000
  C   C24       1.0  0.75529  0.52037  0.82126  1.0000
  C   C25       1.0  0.96750  0.61810  0.54534  1.0000
  C   C26       1.0  0.07244  0.42236  0.45472  1.0000
  C   C27       1.0  0.88618  0.62336  0.43585  1.0000
  C   C28       1.0  0.18726  0.45052  0.56416  1.0000
  C   C29       1.0  0.74153  0.56180  0.38668  1.0000
  C   C30       1.0  0.17500  0.35495  0.61319  1.0000
  C   C31       1.0  0.67534  0.49027  0.43841  1.0000
  C   C32       1.0  0.05178  0.23697  0.56139  1.0000
  C   C33       1.0  0.75463  0.47848  0.54111  1.0000
  C   C34       1.0  0.93723  0.21353  0.45874  1.0000
  C   C35       1.0  0.89721  0.54240  0.59450  1.0000
  C   C36       1.0  0.94762  0.30279  0.40544  1.0000
  C   C37       1.0  0.94309  0.68256  0.36703  1.0000
  C   C38       1.0  0.31533  0.57624  0.63301  1.0000
  C   C39       1.0  0.11115  0.76709  0.30138  1.0000
  C   C40       1.0  0.46574  0.80993  0.69876  1.0000
  C   C41       1.0  0.24003  0.75655  0.31720  1.0000
  C   C42       1.0  0.43955  0.92307  0.68299  1.0000
  C   C43       1.0  0.13277  0.90720  0.31165  1.0000
  C   C44       1.0  0.59546  0.82106  0.68837  1.0000
  C   C45       1.0  0.99765  0.90946  0.26131  1.0000
  C   C46       1.0  0.64800  0.73625  0.73872  1.0000
  C   C47       1.0  0.23523  0.02200  0.44271  1.0000
  C   C48       1.0  0.57907  0.79232  0.55728  1.0000
  C   C49       1.0  0.10152  0.53429  0.96621  1.0000
  C   C50       1.0  0.56810  0.13531  0.03368  1.0000
  C   C51       1.0  0.10147  0.84967  0.95775  1.0000
  C   C52       1.0  0.89209  0.14367  0.04255  1.0000
  N   N1        1.0  0.45009  0.58320  0.12212  1.0000
  N   N2        1.0  0.46115  0.32779  0.87785  1.0000
  N   N3        1.0  0.06919  0.72388  0.38721  1.0000
  N   N4        1.0  0.33652  0.68222  0.61294  1.0000
  O   O1        1.0  0.44810  0.34236  0.08455  1.0000
  O   O2        1.0  0.25795  0.36352  0.91537  1.0000
  O   O3        1.0  0.45281  0.56837  0.91655  1.0000
  O   O4        1.0  0.65192  0.53608  0.08347  1.0000
  O   O5        1.0  0.43777  0.75566  0.93357  1.0000
  O   O6        1.0  0.82233  0.50431  0.06637  1.0000
  O   O7        1.0  0.10481  0.68032  0.60144  1.0000
  O   O8        1.0  0.07848  0.50370  0.39878  1.0000
  O   O9        1.0  0.28177  0.71006  0.39613  1.0000
  O   O10       1.0  0.31418  0.88598  0.60398  1.0000
  O   O11       1.0  0.29767  0.78677  0.25473  1.0000
  O   O12       1.0  0.53236  0.04315  0.74550  1.0000
  O   O13       1.0  0.12635  0.49983  0.86092  1.0000
  O   O14       1.0  0.63909  0.26553  0.13891  1.0000
  O   O15       1.0  0.22155  0.85109  0.95200  1.0000
  O   O16       1.0  0.89941  0.26952  0.04819  1.0000
