data_image0
_chemical_formula_structural       Tb4H32C24N4O28
_chemical_formula_sum              "Tb4 H32 C24 N4 O28"
_cell_length_a       6.60947
_cell_length_b       6.79663
_cell_length_c       19.6004
_cell_angle_alpha    93.2708
_cell_angle_beta     90.0004
_cell_angle_gamma    90.0006

_space_group_name_H-M_alt    "P 1"
_space_group_IT_number       1

loop_
  _space_group_symop_operation_xyz
  'x, y, z'

loop_
  _atom_site_type_symbol
  _atom_site_label
  _atom_site_symmetry_multiplicity
  _atom_site_fract_x
  _atom_site_fract_y
  _atom_site_fract_z
  _atom_site_occupancy
  Tb  Tb1       1.0  0.74193  0.76993  0.89797  1.0000
  Tb  Tb2       1.0  0.24193  0.73007  0.60203  1.0000
  Tb  Tb3       1.0  0.25807  0.23007  0.10203  1.0000
  Tb  Tb4       1.0  0.75807  0.26993  0.39797  1.0000
  H   H1        1.0  0.30703  0.45827  0.85515  1.0000
  H   H2        1.0  0.80703  0.04172  0.64485  1.0000
  H   H3        1.0  0.69297  0.54172  0.14485  1.0000
  H   H4        1.0  0.19297  0.95828  0.35515  1.0000
  H   H5        1.0  0.15397  0.41817  0.92722  1.0000
  H   H6        1.0  0.65399  0.08181  0.57278  1.0000
  H   H7        1.0  0.84602  0.58183  0.07279  1.0000
  H   H8        1.0  0.34601  0.91819  0.42722  1.0000
  H   H9        1.0  0.18625  0.50206  0.75387  1.0000
  H   H10       1.0  0.68627  0.99793  0.74613  1.0000
  H   H11       1.0  0.81375  0.49794  0.24613  1.0000
  H   H12       1.0  0.31374  0.00207  0.25387  1.0000
  H   H13       1.0  0.92386  0.49099  0.73576  1.0000
  H   H14       1.0  0.42389  0.00901  0.76424  1.0000
  H   H15       1.0  0.07614  0.50901  0.26424  1.0000
  H   H16       1.0  0.57612  0.99099  0.23576  1.0000
  H   H17       1.0  0.00709  0.19037  0.83996  1.0000
  H   H18       1.0  0.50711  0.30963  0.66003  1.0000
  H   H19       1.0  0.99290  0.80963  0.16004  1.0000
  H   H20       1.0  0.49289  0.69037  0.33997  1.0000
  H   H21       1.0  0.80569  0.28725  0.79415  1.0000
  H   H22       1.0  0.30572  0.21275  0.70585  1.0000
  H   H23       1.0  0.19430  0.71276  0.20585  1.0000
  H   H24       1.0  0.69428  0.78724  0.29415  1.0000
  H   H25       1.0  0.57894  0.85074  0.03892  1.0000
  H   H26       1.0  0.07895  0.64927  0.46108  1.0000
  H   H27       1.0  0.42106  0.14926  0.96108  1.0000
  H   H28       1.0  0.92106  0.35073  0.53892  1.0000
  H   H29       1.0  0.79094  0.95800  0.03369  1.0000
  H   H30       1.0  0.29094  0.54202  0.46631  1.0000
  H   H31       1.0  0.20906  0.04201  0.96631  1.0000
  H   H32       1.0  0.70906  0.45798  0.53369  1.0000
  C   C1        1.0  0.17435  0.51385  0.88426  1.0000
  C   C2        1.0  0.67436  0.98614  0.61574  1.0000
  C   C3        1.0  0.82564  0.48615  0.11574  1.0000
  C   C4        1.0  0.32565  0.01386  0.38426  1.0000
  C   C5        1.0  0.21994  0.71806  0.91623  1.0000
  C   C6        1.0  0.71994  0.78192  0.58377  1.0000
  C   C7        1.0  0.78005  0.28194  0.08377  1.0000
  C   C8        1.0  0.28006  0.21807  0.41623  1.0000
  C   C9        1.0  0.03715  0.55790  0.77097  1.0000
  C   C10       1.0  0.53716  0.94210  0.72903  1.0000
  C   C11       1.0  0.96285  0.44211  0.22903  1.0000
  C   C12       1.0  0.46284  0.05790  0.27097  1.0000
  C   C13       1.0  0.89592  0.31050  0.84105  1.0000
  C   C14       1.0  0.39593  0.18950  0.65895  1.0000
  C   C15       1.0  0.10407  0.68951  0.15895  1.0000
  C   C16       1.0  0.60407  0.81050  0.34105  1.0000
  C   C17       1.0  0.74686  0.29127  0.89942  1.0000
  C   C18       1.0  0.24686  0.20872  0.60058  1.0000
  C   C19       1.0  0.25313  0.70872  0.10058  1.0000
  C   C20       1.0  0.75314  0.79129  0.39942  1.0000
  C   C21       1.0  0.02709  0.77846  0.76164  1.0000
  C   C22       1.0  0.52707  0.72152  0.73835  1.0000
  C   C23       1.0  0.97292  0.22154  0.23836  1.0000
  C   C24       1.0  0.47294  0.27849  0.26165  1.0000
  N   N1        1.0  0.98978  0.50684  0.84124  1.0000
  N   N2        1.0  0.48979  0.99315  0.65876  1.0000
  N   N3        1.0  0.01021  0.49316  0.15876  1.0000
  N   N4        1.0  0.51021  0.00685  0.34124  1.0000
  O   O1        1.0  0.07143  0.81870  0.94181  1.0000
  O   O2        1.0  0.57144  0.68129  0.55820  1.0000
  O   O3        1.0  0.92856  0.18130  0.05820  1.0000
  O   O4        1.0  0.42856  0.31871  0.44180  1.0000
  O   O5        1.0  0.39917  0.78016  0.91857  1.0000
  O   O6        1.0  0.89917  0.71983  0.58144  1.0000
  O   O7        1.0  0.60083  0.21984  0.08143  1.0000
  O   O8        1.0  0.10083  0.28017  0.41857  1.0000
  O   O9        1.0  0.69490  0.44733  0.93352  1.0000
  O   O10       1.0  0.19491  0.05268  0.56649  1.0000
  O   O11       1.0  0.30509  0.55268  0.06648  1.0000
  O   O12       1.0  0.80509  0.94732  0.43351  1.0000
  O   O13       1.0  0.67347  0.12084  0.90848  1.0000
  O   O14       1.0  0.17348  0.37917  0.59152  1.0000
  O   O15       1.0  0.32652  0.87917  0.09152  1.0000
  O   O16       1.0  0.82652  0.62082  0.40848  1.0000
  O   O17       1.0  0.09019  0.84099  0.70570  1.0000
  O   O18       1.0  0.59020  0.65900  0.79431  1.0000
  O   O19       1.0  0.90982  0.15901  0.29430  1.0000
  O   O20       1.0  0.40981  0.34100  0.20569  1.0000
  O   O21       1.0  0.94880  0.88750  0.80914  1.0000
  O   O22       1.0  0.44880  0.61250  0.69087  1.0000
  O   O23       1.0  0.05121  0.11250  0.19086  1.0000
  O   O24       1.0  0.55122  0.38750  0.30913  1.0000
  O   O25       1.0  0.71574  0.83629  0.01868  1.0000
  O   O26       1.0  0.21574  0.66372  0.48133  1.0000
  O   O27       1.0  0.28425  0.16370  0.98132  1.0000
  O   O28       1.0  0.78426  0.33628  0.51867  1.0000
