data_image0
_chemical_formula_structural       Ho4H32C24N4O28
_chemical_formula_sum              "Ho4 H32 C24 N4 O28"
_cell_length_a       7.56309
_cell_length_b       9.03436
_cell_length_c       13.7673
_cell_angle_alpha    90
_cell_angle_beta     90.0002
_cell_angle_gamma    89.9996

_space_group_name_H-M_alt    "P 1"
_space_group_IT_number       1

loop_
  _space_group_symop_operation_xyz
  'x, y, z'

loop_
  _atom_site_type_symbol
  _atom_site_label
  _atom_site_symmetry_multiplicity
  _atom_site_fract_x
  _atom_site_fract_y
  _atom_site_fract_z
  _atom_site_occupancy
  Ho  Ho1       1.0  0.25521  0.70658  0.81249  1.0000
  Ho  Ho2       1.0  0.24479  0.29342  0.31249  1.0000
  Ho  Ho3       1.0  0.74479  0.20658  0.68751  1.0000
  Ho  Ho4       1.0  0.75521  0.79342  0.18751  1.0000
  H   H1        1.0  0.43587  0.31948  0.98038  1.0000
  H   H2        1.0  0.06414  0.68052  0.48038  1.0000
  H   H3        1.0  0.56414  0.81947  0.51962  1.0000
  H   H4        1.0  0.93586  0.18052  0.01962  1.0000
  H   H5        1.0  0.52664  0.50089  0.98524  1.0000
  H   H6        1.0  0.97337  0.49910  0.48524  1.0000
  H   H7        1.0  0.47336  0.00089  0.51476  1.0000
  H   H8        1.0  0.02663  0.99910  0.01476  1.0000
  H   H9        1.0  0.33208  0.62083  0.06843  1.0000
  H   H10       1.0  0.16793  0.37917  0.56843  1.0000
  H   H11       1.0  0.66793  0.12082  0.43157  1.0000
  H   H12       1.0  0.83208  0.87917  0.93157  1.0000
  H   H13       1.0  0.16807  0.48511  0.09436  1.0000
  H   H14       1.0  0.33194  0.51489  0.59436  1.0000
  H   H15       1.0  0.83193  0.98510  0.40564  1.0000
  H   H16       1.0  0.66807  0.01489  0.90563  1.0000
  H   H17       1.0  0.00402  0.40409  0.96352  1.0000
  H   H18       1.0  0.49598  0.59591  0.46352  1.0000
  H   H19       1.0  0.99599  0.90410  0.53648  1.0000
  H   H20       1.0  0.50401  0.09591  0.03648  1.0000
  H   H21       1.0  0.16881  0.27094  0.93868  1.0000
  H   H22       1.0  0.33118  0.72906  0.43868  1.0000
  H   H23       1.0  0.83120  0.77094  0.56132  1.0000
  H   H24       1.0  0.66881  0.22906  0.06131  1.0000
  H   H25       1.0  0.12346  0.01721  0.80799  1.0000
  H   H26       1.0  0.37654  0.98279  0.30798  1.0000
  H   H27       1.0  0.87654  0.51722  0.69201  1.0000
  H   H28       1.0  0.62346  0.48279  0.19201  1.0000
  H   H29       1.0  0.33481  0.01741  0.80005  1.0000
  H   H30       1.0  0.16519  0.98259  0.30004  1.0000
  H   H31       1.0  0.66519  0.51741  0.69995  1.0000
  H   H32       1.0  0.83480  0.48259  0.19995  1.0000
  C   C1        1.0  0.43529  0.42846  0.94506  1.0000
  C   C2        1.0  0.06471  0.57153  0.44506  1.0000
  C   C3        1.0  0.56472  0.92846  0.55494  1.0000
  C   C4        1.0  0.93528  0.07153  0.05494  1.0000
  C   C5        1.0  0.50651  0.41399  0.84189  1.0000
  C   C6        1.0  0.99349  0.58600  0.34189  1.0000
  C   C7        1.0  0.49350  0.91399  0.65811  1.0000
  C   C8        1.0  0.00650  0.08600  0.15811  1.0000
  C   C9        1.0  0.21405  0.56492  0.03947  1.0000
  C   C10       1.0  0.28595  0.43508  0.53947  1.0000
  C   C11       1.0  0.78594  0.06491  0.46053  1.0000
  C   C12       1.0  0.71405  0.93509  0.96053  1.0000
  C   C13       1.0  0.07528  0.68370  0.02347  1.0000
  C   C14       1.0  0.42474  0.31629  0.52347  1.0000
  C   C15       1.0  0.92472  0.18370  0.47653  1.0000
  C   C16       1.0  0.57527  0.81630  0.97652  1.0000
  C   C17       1.0  0.12436  0.38359  0.92046  1.0000
  C   C18       1.0  0.37564  0.61641  0.42046  1.0000
  C   C19       1.0  0.87565  0.88360  0.57954  1.0000
  C   C20       1.0  0.62435  0.11641  0.07954  1.0000
  C   C21       1.0  0.06242  0.38581  0.81557  1.0000
  C   C22       1.0  0.43757  0.61420  0.31557  1.0000
  C   C23       1.0  0.93758  0.88582  0.68443  1.0000
  C   C24       1.0  0.56242  0.11419  0.18442  1.0000
  N   N1        1.0  0.25854  0.49495  0.94605  1.0000
  N   N2        1.0  0.24147  0.50505  0.44605  1.0000
  N   N3        1.0  0.74146  0.99495  0.55395  1.0000
  N   N4        1.0  0.75853  0.00505  0.05394  1.0000
  O   O1        1.0  0.47286  0.51868  0.78218  1.0000
  O   O2        1.0  0.02715  0.48132  0.28218  1.0000
  O   O3        1.0  0.52715  0.01868  0.71782  1.0000
  O   O4        1.0  0.97285  0.98132  0.21782  1.0000
  O   O5        1.0  0.59937  0.30099  0.82254  1.0000
  O   O6        1.0  0.90062  0.69901  0.32254  1.0000
  O   O7        1.0  0.40062  0.80099  0.67747  1.0000
  O   O8        1.0  0.09937  0.19901  0.17746  1.0000
  O   O9        1.0  0.06161  0.73949  0.93867  1.0000
  O   O10       1.0  0.43839  0.26051  0.43867  1.0000
  O   O11       1.0  0.93839  0.23947  0.56133  1.0000
  O   O12       1.0  0.56160  0.76052  0.06133  1.0000
  O   O13       1.0  0.98372  0.72473  0.09515  1.0000
  O   O14       1.0  0.51628  0.27527  0.59514  1.0000
  O   O15       1.0  0.01628  0.22473  0.40485  1.0000
  O   O16       1.0  0.48372  0.77527  0.90486  1.0000
  O   O17       1.0  0.09143  0.50045  0.76424  1.0000
  O   O18       1.0  0.40857  0.49955  0.26423  1.0000
  O   O19       1.0  0.90859  0.00046  0.73576  1.0000
  O   O20       1.0  0.59143  0.99955  0.23576  1.0000
  O   O21       1.0  0.97549  0.27432  0.78785  1.0000
  O   O22       1.0  0.52450  0.72569  0.28785  1.0000
  O   O23       1.0  0.02451  0.77432  0.71216  1.0000
  O   O24       1.0  0.47548  0.22569  0.21215  1.0000
  O   O25       1.0  0.23307  0.97781  0.83732  1.0000
  O   O26       1.0  0.26693  0.02220  0.33732  1.0000
  O   O27       1.0  0.76693  0.47781  0.66268  1.0000
  O   O28       1.0  0.73307  0.52220  0.16268  1.0000
