data_image0
_chemical_formula_structural       Ho4H32C24N4O28
_chemical_formula_sum              "Ho4 H32 C24 N4 O28"
_cell_length_a       6.57568
_cell_length_b       6.7669
_cell_length_c       19.4424
_cell_angle_alpha    93.2143
_cell_angle_beta     89.9996
_cell_angle_gamma    90.0001

_space_group_name_H-M_alt    "P 1"
_space_group_IT_number       1

loop_
  _space_group_symop_operation_xyz
  'x, y, z'

loop_
  _atom_site_type_symbol
  _atom_site_label
  _atom_site_symmetry_multiplicity
  _atom_site_fract_x
  _atom_site_fract_y
  _atom_site_fract_z
  _atom_site_occupancy
  Ho  Ho1       1.0  0.25813  0.26778  0.89797  1.0000
  Ho  Ho2       1.0  0.75814  0.23223  0.60203  1.0000
  Ho  Ho3       1.0  0.74187  0.73223  0.10203  1.0000
  Ho  Ho4       1.0  0.24187  0.76777  0.39797  1.0000
  H   H1        1.0  0.82230  0.99823  0.75033  1.0000
  H   H2        1.0  0.32230  0.50177  0.74968  1.0000
  H   H3        1.0  0.17769  0.00177  0.24967  1.0000
  H   H4        1.0  0.67770  0.49823  0.25032  1.0000
  H   H5        1.0  0.08838  0.99337  0.73550  1.0000
  H   H6        1.0  0.58838  0.50663  0.76451  1.0000
  H   H7        1.0  0.91162  0.00663  0.26450  1.0000
  H   H8        1.0  0.41162  0.49337  0.23549  1.0000
  H   H9        1.0  0.83764  0.91790  0.92597  1.0000
  H   H10       1.0  0.33765  0.58210  0.57403  1.0000
  H   H11       1.0  0.16236  0.08210  0.07403  1.0000
  H   H12       1.0  0.66236  0.41790  0.42597  1.0000
  H   H13       1.0  0.68962  0.96284  0.85246  1.0000
  H   H14       1.0  0.18963  0.53717  0.64755  1.0000
  H   H15       1.0  0.31038  0.03717  0.14754  1.0000
  H   H16       1.0  0.81038  0.46283  0.35245  1.0000
  H   H17       1.0  0.18598  0.77698  0.79374  1.0000
  H   H18       1.0  0.68598  0.72303  0.70627  1.0000
  H   H19       1.0  0.81402  0.22303  0.20626  1.0000
  H   H20       1.0  0.31403  0.27697  0.29373  1.0000
  H   H21       1.0  0.98605  0.68977  0.84329  1.0000
  H   H22       1.0  0.48604  0.81023  0.65672  1.0000
  H   H23       1.0  0.01395  0.31023  0.15671  1.0000
  H   H24       1.0  0.51396  0.18977  0.34328  1.0000
  H   H25       1.0  0.20810  0.45562  0.03329  1.0000
  H   H26       1.0  0.70810  0.04439  0.46671  1.0000
  H   H27       1.0  0.79190  0.54438  0.96671  1.0000
  H   H28       1.0  0.29190  0.95561  0.53329  1.0000
  H   H29       1.0  0.42228  0.35097  0.03825  1.0000
  H   H30       1.0  0.92228  0.14903  0.46175  1.0000
  H   H31       1.0  0.57772  0.64903  0.96175  1.0000
  H   H32       1.0  0.07772  0.85097  0.53825  1.0000
  C   C1        1.0  0.96905  0.05711  0.76952  1.0000
  C   C2        1.0  0.46905  0.44289  0.73049  1.0000
  C   C3        1.0  0.03095  0.94289  0.23048  1.0000
  C   C4        1.0  0.53095  0.55711  0.26951  1.0000
  C   C5        1.0  0.97649  0.27892  0.76082  1.0000
  C   C6        1.0  0.47649  0.22109  0.73919  1.0000
  C   C7        1.0  0.02351  0.72108  0.23918  1.0000
  C   C8        1.0  0.52350  0.77891  0.26081  1.0000
  C   C9        1.0  0.82232  0.01537  0.88274  1.0000
  C   C10       1.0  0.32232  0.48463  0.61726  1.0000
  C   C11       1.0  0.17768  0.98464  0.11726  1.0000
  C   C12       1.0  0.67768  0.51537  0.38273  1.0000
  C   C13       1.0  0.77921  0.22002  0.91542  1.0000
  C   C14       1.0  0.27922  0.27998  0.58458  1.0000
  C   C15       1.0  0.22078  0.77999  0.08458  1.0000
  C   C16       1.0  0.72079  0.72001  0.41542  1.0000
  C   C17       1.0  0.10065  0.80725  0.84174  1.0000
  C   C18       1.0  0.60066  0.69275  0.65827  1.0000
  C   C19       1.0  0.89935  0.19275  0.15826  1.0000
  C   C20       1.0  0.39935  0.30725  0.34173  1.0000
  C   C21       1.0  0.25429  0.78943  0.89952  1.0000
  C   C22       1.0  0.75429  0.71056  0.60048  1.0000
  C   C23       1.0  0.74571  0.21057  0.10048  1.0000
  C   C24       1.0  0.24572  0.28944  0.39952  1.0000
  N   N1        1.0  0.01062  0.00598  0.84081  1.0000
  N   N2        1.0  0.51062  0.49403  0.65920  1.0000
  N   N3        1.0  0.98938  0.99403  0.15919  1.0000
  N   N4        1.0  0.48938  0.50597  0.34080  1.0000
  O   O1        1.0  0.05613  0.38724  0.80878  1.0000
  O   O2        1.0  0.55614  0.11276  0.69122  1.0000
  O   O3        1.0  0.94386  0.61276  0.19122  1.0000
  O   O4        1.0  0.44385  0.88724  0.30878  1.0000
  O   O5        1.0  0.91093  0.34376  0.70499  1.0000
  O   O6        1.0  0.41092  0.15623  0.79502  1.0000
  O   O7        1.0  0.08907  0.65623  0.29501  1.0000
  O   O8        1.0  0.58907  0.84377  0.20498  1.0000
  O   O9        1.0  0.93017  0.31896  0.94104  1.0000
  O   O10       1.0  0.43018  0.18104  0.55896  1.0000
  O   O11       1.0  0.06983  0.68104  0.05896  1.0000
  O   O12       1.0  0.56983  0.81896  0.44104  1.0000
  O   O13       1.0  0.59988  0.28454  0.91847  1.0000
  O   O14       1.0  0.09989  0.21546  0.58154  1.0000
  O   O15       1.0  0.40012  0.71546  0.08153  1.0000
  O   O16       1.0  0.90012  0.78454  0.41846  1.0000
  O   O17       1.0  0.31102  0.94726  0.93232  1.0000
  O   O18       1.0  0.81102  0.55274  0.56768  1.0000
  O   O19       1.0  0.68898  0.05275  0.06767  1.0000
  O   O20       1.0  0.18899  0.44726  0.43232  1.0000
  O   O21       1.0  0.32589  0.61807  0.90971  1.0000
  O   O22       1.0  0.82589  0.88193  0.59029  1.0000
  O   O23       1.0  0.67411  0.38193  0.09029  1.0000
  O   O24       1.0  0.17412  0.11807  0.40971  1.0000
  O   O25       1.0  0.28429  0.33379  0.01828  1.0000
  O   O26       1.0  0.78429  0.16621  0.48172  1.0000
  O   O27       1.0  0.71571  0.66621  0.98172  1.0000
  O   O28       1.0  0.21571  0.83379  0.51828  1.0000
