data_image0
_chemical_formula_structural       Mn4H16C36N8O16
_chemical_formula_sum              "Mn4 H16 C36 N8 O16"
_cell_length_a       5.84054
_cell_length_b       10.3531
_cell_length_c       13.5086
_cell_angle_alpha    96.1881
_cell_angle_beta     89.9994
_cell_angle_gamma    90.0005

_space_group_name_H-M_alt    "P 1"
_space_group_IT_number       1

loop_
  _space_group_symop_operation_xyz
  'x, y, z'

loop_
  _atom_site_type_symbol
  _atom_site_label
  _atom_site_symmetry_multiplicity
  _atom_site_fract_x
  _atom_site_fract_y
  _atom_site_fract_z
  _atom_site_occupancy
  Mn  Mn1       1.0  0.71819  0.25520  0.33508  1.0000
  Mn  Mn2       1.0  0.21820  0.24481  0.16493  1.0000
  Mn  Mn3       1.0  0.28253  0.74458  0.66537  1.0000
  Mn  Mn4       1.0  0.78254  0.75541  0.83463  1.0000
  H   H1        1.0  0.33040  0.17292  0.72940  1.0000
  H   H2        1.0  0.83042  0.32708  0.77060  1.0000
  H   H3        1.0  0.66978  0.82624  0.27088  1.0000
  H   H4        1.0  0.16980  0.67377  0.22913  1.0000
  H   H5        1.0  0.61206  0.07478  0.52837  1.0000
  H   H6        1.0  0.11207  0.42522  0.97163  1.0000
  H   H7        1.0  0.38763  0.92572  0.47193  1.0000
  H   H8        1.0  0.88763  0.57429  0.02807  1.0000
  H   H9        1.0  0.16071  0.41492  0.43377  1.0000
  H   H10       1.0  0.66073  0.08509  0.06623  1.0000
  H   H11       1.0  0.84094  0.58486  0.56667  1.0000
  H   H12       1.0  0.34089  0.91510  0.93332  1.0000
  H   H13       1.0  0.38601  0.35997  0.58261  1.0000
  H   H14       1.0  0.88603  0.14004  0.91739  1.0000
  H   H15       1.0  0.61466  0.63962  0.41788  1.0000
  H   H16       1.0  0.11466  0.86037  0.08212  1.0000
  C   C1        1.0  0.81828  0.02951  0.65353  1.0000
  C   C2        1.0  0.31830  0.47048  0.84646  1.0000
  C   C3        1.0  0.18139  0.97037  0.34660  1.0000
  C   C4        1.0  0.68140  0.52965  0.15340  1.0000
  C   C5        1.0  0.02223  0.05671  0.70948  1.0000
  C   C6        1.0  0.52225  0.44328  0.79051  1.0000
  C   C7        1.0  0.97762  0.94270  0.29058  1.0000
  C   C8        1.0  0.47764  0.55730  0.20944  1.0000
  C   C9        1.0  0.17572  0.15172  0.68554  1.0000
  C   C10       1.0  0.67574  0.34828  0.81445  1.0000
  C   C11       1.0  0.82446  0.84766  0.31468  1.0000
  C   C12       1.0  0.32447  0.65235  0.18533  1.0000
  C   C13       1.0  0.12372  0.21611  0.60272  1.0000
  C   C14       1.0  0.62373  0.28390  0.89728  1.0000
  C   C15       1.0  0.87675  0.78348  0.39760  1.0000
  C   C16       1.0  0.37675  0.71651  0.10241  1.0000
  C   C17       1.0  0.92389  0.18738  0.54462  1.0000
  C   C18       1.0  0.42390  0.31262  0.95537  1.0000
  C   C19       1.0  0.07661  0.81248  0.45563  1.0000
  C   C20       1.0  0.57661  0.68752  0.04437  1.0000
  C   C21       1.0  0.76902  0.09430  0.57054  1.0000
  C   C22       1.0  0.26903  0.40570  0.92946  1.0000
  C   C23       1.0  0.23094  0.90578  0.42966  1.0000
  C   C24       1.0  0.73095  0.59423  0.07033  1.0000
  C   C25       1.0  0.64570  0.93769  0.68734  1.0000
  C   C26       1.0  0.14571  0.56230  0.81266  1.0000
  C   C27       1.0  0.35315  0.06293  0.31322  1.0000
  C   C28       1.0  0.85316  0.43708  0.18679  1.0000
  C   C29       1.0  0.07771  0.98208  0.79547  1.0000
  C   C30       1.0  0.57773  0.51791  0.70451  1.0000
  C   C31       1.0  0.92161  0.01714  0.20452  1.0000
  C   C32       1.0  0.42162  0.48287  0.29549  1.0000
  C   C33       1.0  0.10773  0.34093  0.48031  1.0000
  C   C34       1.0  0.60775  0.15907  0.01969  1.0000
  C   C35       1.0  0.89341  0.65886  0.52010  1.0000
  C   C36       1.0  0.39338  0.84112  0.97990  1.0000
  N   N1        1.0  0.23413  0.31324  0.55929  1.0000
  N   N2        1.0  0.73416  0.18677  0.94071  1.0000
  N   N3        1.0  0.76668  0.68635  0.44114  1.0000
  N   N4        1.0  0.26666  0.81364  0.05886  1.0000
  N   N5        1.0  0.92011  0.26724  0.46768  1.0000
  N   N6        1.0  0.42012  0.23275  0.03232  1.0000
  N   N7        1.0  0.08082  0.73270  0.53264  1.0000
  N   N8        1.0  0.58079  0.76728  0.96736  1.0000
  O   O1        1.0  0.50663  0.88313  0.62281  1.0000
  O   O2        1.0  0.00662  0.61685  0.87718  1.0000
  O   O3        1.0  0.49092  0.11790  0.37810  1.0000
  O   O4        1.0  0.99094  0.38211  0.12190  1.0000
  O   O5        1.0  0.63884  0.91909  0.77964  1.0000
  O   O6        1.0  0.13886  0.58090  0.72035  1.0000
  O   O7        1.0  0.36063  0.08184  0.22097  1.0000
  O   O8        1.0  0.86063  0.41817  0.27903  1.0000
  O   O9        1.0  0.09187  0.85515  0.77771  1.0000
  O   O10       1.0  0.59188  0.64485  0.72228  1.0000
  O   O11       1.0  0.90649  0.14387  0.22225  1.0000
  O   O12       1.0  0.40650  0.35614  0.27776  1.0000
  O   O13       1.0  0.10998  0.04134  0.87988  1.0000
  O   O14       1.0  0.61000  0.45866  0.62012  1.0000
  O   O15       1.0  0.88988  0.95775  0.12007  1.0000
  O   O16       1.0  0.38986  0.54225  0.37993  1.0000
