data_image0
_chemical_formula_structural       Cu2H44Ru2C24N20
_chemical_formula_sum              "Cu2 H44 Ru2 C24 N20"
_cell_length_a       8.20428
_cell_length_b       9.35003
_cell_length_c       12.5575
_cell_angle_alpha    90.0009
_cell_angle_beta     89.9994
_cell_angle_gamma    110.008

_space_group_name_H-M_alt    "P 1"
_space_group_IT_number       1

loop_
  _space_group_symop_operation_xyz
  'x, y, z'

loop_
  _atom_site_type_symbol
  _atom_site_label
  _atom_site_symmetry_multiplicity
  _atom_site_fract_x
  _atom_site_fract_y
  _atom_site_fract_z
  _atom_site_occupancy
  Cu  Cu1       1.0  0.99999  0.49997  1.00000  1.0000
  Cu  Cu2       1.0  0.50002  0.00004  0.50001  1.0000
  H   H1        1.0  0.40032  0.51769  0.05413  1.0000
  H   H2        1.0  0.09966  0.98227  0.55413  1.0000
  H   H3        1.0  0.59965  0.48223  0.94585  1.0000
  H   H4        1.0  0.90038  0.01780  0.44585  1.0000
  H   H5        1.0  0.31249  0.58140  0.16557  1.0000
  H   H6        1.0  0.18750  0.91859  0.66557  1.0000
  H   H7        1.0  0.68750  0.41858  0.83440  1.0000
  H   H8        1.0  0.81251  0.08145  0.33441  1.0000
  H   H9        1.0  0.37893  0.27741  0.15306  1.0000
  H   H10       1.0  0.12103  0.22255  0.65306  1.0000
  H   H11       1.0  0.62104  0.72254  0.84694  1.0000
  H   H12       1.0  0.87895  0.77747  0.34694  1.0000
  H   H13       1.0  0.28130  0.33891  0.26185  1.0000
  H   H14       1.0  0.21868  0.16110  0.76183  1.0000
  H   H15       1.0  0.71872  0.66110  0.73817  1.0000
  H   H16       1.0  0.78129  0.83892  0.23817  1.0000
  H   H17       1.0  0.65990  0.47908  0.18875  1.0000
  H   H18       1.0  0.84008  0.02088  0.68876  1.0000
  H   H19       1.0  0.34010  0.52087  0.81122  1.0000
  H   H20       1.0  0.15990  0.97912  0.31123  1.0000
  H   H21       1.0  0.56111  0.56886  0.28109  1.0000
  H   H22       1.0  0.93890  0.93113  0.78110  1.0000
  H   H23       1.0  0.43893  0.43115  0.71886  1.0000
  H   H24       1.0  0.06109  0.06885  0.21887  1.0000
  H   H25       1.0  0.05723  0.36204  0.14985  1.0000
  H   H26       1.0  0.44274  0.13796  0.64986  1.0000
  H   H27       1.0  0.94276  0.63794  0.85015  1.0000
  H   H28       1.0  0.55728  0.86211  0.35016  1.0000
  H   H29       1.0  0.13943  0.29869  0.04495  1.0000
  H   H30       1.0  0.36054  0.20130  0.54495  1.0000
  H   H31       1.0  0.86052  0.70123  0.95506  1.0000
  H   H32       1.0  0.63950  0.79878  0.45507  1.0000
  H   H33       1.0  0.70317  0.40729  0.36552  1.0000
  H   H34       1.0  0.79682  0.09271  0.86553  1.0000
  H   H35       1.0  0.29686  0.59274  0.63446  1.0000
  H   H36       1.0  0.20314  0.90724  0.13446  1.0000
  H   H37       1.0  0.55973  0.25132  0.30700  1.0000
  H   H38       1.0  0.94027  0.24867  0.80700  1.0000
  H   H39       1.0  0.44029  0.74869  0.69301  1.0000
  H   H40       1.0  0.05971  0.75130  0.19302  1.0000
  H   H41       1.0  0.48818  0.35676  0.39374  1.0000
  H   H42       1.0  0.01181  0.14323  0.89374  1.0000
  H   H43       1.0  0.51187  0.64329  0.60625  1.0000
  H   H44       1.0  0.98814  0.85671  0.10626  1.0000
  Ru  Ru1       1.0  0.49999  0.99997  1.00000  1.0000
  Ru  Ru2       1.0  0.00001  0.50004  0.50001  1.0000
  C   C1        1.0  0.31506  0.47925  0.12350  1.0000
  C   C2        1.0  0.18493  0.02074  0.62350  1.0000
  C   C3        1.0  0.68493  0.52070  0.87648  1.0000
  C   C4        1.0  0.81509  0.97931  0.37649  1.0000
  C   C5        1.0  0.37625  0.37835  0.19677  1.0000
  C   C6        1.0  0.12371  0.12164  0.69678  1.0000
  C   C7        1.0  0.62375  0.62163  0.80323  1.0000
  C   C8        1.0  0.87628  0.87838  0.30322  1.0000
  C   C9        1.0  0.55320  0.45912  0.24586  1.0000
  C   C10       1.0  0.94678  0.04085  0.74586  1.0000
  C   C11       1.0  0.44683  0.54086  0.75412  1.0000
  C   C12       1.0  0.05320  0.95914  0.25412  1.0000
  C   C13       1.0  0.68761  0.20348  0.00723  1.0000
  C   C14       1.0  0.81240  0.29654  0.50724  1.0000
  C   C15       1.0  0.31235  0.79645  0.99279  1.0000
  C   C16       1.0  0.18766  0.70353  0.49278  1.0000
  C   C17       1.0  0.68459  0.90382  0.02164  1.0000
  C   C18       1.0  0.81541  0.59620  0.52164  1.0000
  C   C19       1.0  0.31534  0.09610  0.97838  1.0000
  C   C20       1.0  0.18465  0.40389  0.47838  1.0000
  C   C21       1.0  0.49009  0.02632  0.16017  1.0000
  C   C22       1.0  0.00992  0.47369  0.66018  1.0000
  C   C23       1.0  0.50987  0.97364  0.83985  1.0000
  C   C24       1.0  0.99013  0.52635  0.33986  1.0000
  N   N1        1.0  0.13836  0.39484  0.08553  1.0000
  N   N2        1.0  0.36161  0.10516  0.58553  1.0000
  N   N3        1.0  0.86159  0.60511  0.91448  1.0000
  N   N4        1.0  0.63842  0.89492  0.41448  1.0000
  N   N5        1.0  0.58012  0.36273  0.33374  1.0000
  N   N6        1.0  0.91986  0.13726  0.83374  1.0000
  N   N7        1.0  0.41991  0.63729  0.66625  1.0000
  N   N8        1.0  0.08010  0.86270  0.16626  1.0000
  N   N9        1.0  0.80288  0.31977  0.01648  1.0000
  N   N10       1.0  0.69713  0.18025  0.51650  1.0000
  N   N11       1.0  0.19708  0.68017  0.98351  1.0000
  N   N12       1.0  0.30293  0.81982  0.48351  1.0000
  N   N13       1.0  0.79724  0.85332  0.03264  1.0000
  N   N14       1.0  0.70277  0.64670  0.53263  1.0000
  N   N15       1.0  0.20269  0.14659  0.96737  1.0000
  N   N16       1.0  0.29730  0.35339  0.46737  1.0000
  N   N17       1.0  0.49097  0.05530  0.25186  1.0000
  N   N18       1.0  0.00904  0.44470  0.75186  1.0000
  N   N19       1.0  0.50902  0.94470  0.74816  1.0000
  N   N20       1.0  0.99097  0.55530  0.24816  1.0000
