data_image0
_chemical_formula_structural       Zn4H28C40N4O12
_chemical_formula_sum              "Zn4 H28 C40 N4 O12"
_cell_length_a       5.1145
_cell_length_b       10.775
_cell_length_c       17.6396
_cell_angle_alpha    90
_cell_angle_beta     90
_cell_angle_gamma    90

_space_group_name_H-M_alt    "P 1"
_space_group_IT_number       1

loop_
  _space_group_symop_operation_xyz
  'x, y, z'

loop_
  _atom_site_type_symbol
  _atom_site_label
  _atom_site_symmetry_multiplicity
  _atom_site_fract_x
  _atom_site_fract_y
  _atom_site_fract_z
  _atom_site_occupancy
  Zn  Zn1       1.0  0.42121  0.10120  0.51603  1.0000
  Zn  Zn2       1.0  0.92121  0.89880  0.48397  1.0000
  Zn  Zn3       1.0  0.42121  0.60120  0.98397  1.0000
  Zn  Zn4       1.0  0.92121  0.39880  0.01603  1.0000
  H   H1        1.0  0.38782  0.91064  0.43134  1.0000
  H   H2        1.0  0.88782  0.08936  0.56866  1.0000
  H   H3        1.0  0.38782  0.41064  0.06866  1.0000
  H   H4        1.0  0.88782  0.58936  0.93134  1.0000
  H   H5        1.0  0.95045  0.05184  0.71867  1.0000
  H   H6        1.0  0.45045  0.94816  0.28133  1.0000
  H   H7        1.0  0.95045  0.55184  0.78133  1.0000
  H   H8        1.0  0.45045  0.44816  0.21867  1.0000
  H   H9        1.0  0.41384  0.37511  0.76550  1.0000
  H   H10       1.0  0.91384  0.62489  0.23450  1.0000
  H   H11       1.0  0.41384  0.87511  0.73450  1.0000
  H   H12       1.0  0.91384  0.12489  0.26549  1.0000
  H   H13       1.0  0.21124  0.39626  0.89243  1.0000
  H   H14       1.0  0.71124  0.60375  0.10757  1.0000
  H   H15       1.0  0.21124  0.89625  0.60757  1.0000
  H   H16       1.0  0.71124  0.10375  0.39243  1.0000
  H   H17       1.0  0.57111  0.18554  0.02484  1.0000
  H   H18       1.0  0.07111  0.81446  0.97516  1.0000
  H   H19       1.0  0.57111  0.68554  0.47516  1.0000
  H   H20       1.0  0.07111  0.31446  0.52484  1.0000
  H   H21       1.0  0.44817  0.99839  0.94772  1.0000
  H   H22       1.0  0.94817  0.00161  0.05228  1.0000
  H   H23       1.0  0.44817  0.49839  0.55228  1.0000
  H   H24       1.0  0.94817  0.50161  0.44772  1.0000
  H   H25       1.0  0.65498  0.96584  0.82242  1.0000
  H   H26       1.0  0.15497  0.03417  0.17758  1.0000
  H   H27       1.0  0.65498  0.46583  0.67758  1.0000
  H   H28       1.0  0.15498  0.53416  0.32242  1.0000
  C   C1        1.0  0.00679  0.12676  0.75683  1.0000
  C   C2        1.0  0.50679  0.87324  0.24317  1.0000
  C   C3        1.0  0.00679  0.62676  0.74317  1.0000
  C   C4        1.0  0.50679  0.37324  0.25683  1.0000
  C   C5        1.0  0.19021  0.21319  0.73387  1.0000
  C   C6        1.0  0.69021  0.78681  0.26613  1.0000
  C   C7        1.0  0.19021  0.71319  0.76613  1.0000
  C   C8        1.0  0.69021  0.28681  0.23387  1.0000
  C   C9        1.0  0.26523  0.30954  0.78416  1.0000
  C   C10       1.0  0.76523  0.69046  0.21584  1.0000
  C   C11       1.0  0.26523  0.80954  0.71584  1.0000
  C   C12       1.0  0.76523  0.19046  0.28416  1.0000
  C   C13       1.0  0.15281  0.32130  0.85466  1.0000
  C   C14       1.0  0.65281  0.67870  0.14534  1.0000
  C   C15       1.0  0.15281  0.82130  0.64534  1.0000
  C   C16       1.0  0.65281  0.17870  0.35466  1.0000
  C   C17       1.0  0.66181  0.16811  0.96984  1.0000
  C   C18       1.0  0.16181  0.83189  0.03016  1.0000
  C   C19       1.0  0.66181  0.66811  0.53016  1.0000
  C   C20       1.0  0.16181  0.33189  0.46984  1.0000
  C   C21       1.0  0.59068  0.06436  0.92606  1.0000
  C   C22       1.0  0.09068  0.93564  0.07394  1.0000
  C   C23       1.0  0.59068  0.56436  0.57394  1.0000
  C   C24       1.0  0.09068  0.43564  0.42606  1.0000
  C   C25       1.0  0.70506  0.04739  0.85603  1.0000
  C   C26       1.0  0.20506  0.95261  0.14397  1.0000
  C   C27       1.0  0.70506  0.54739  0.64397  1.0000
  C   C28       1.0  0.20506  0.45261  0.35603  1.0000
  C   C29       1.0  0.88986  0.13479  0.82944  1.0000
  C   C30       1.0  0.38986  0.86521  0.17056  1.0000
  C   C31       1.0  0.88986  0.63479  0.67055  1.0000
  C   C32       1.0  0.38986  0.36521  0.32945  1.0000
  C   C33       1.0  0.95986  0.23560  0.87840  1.0000
  C   C34       1.0  0.45986  0.76440  0.12160  1.0000
  C   C35       1.0  0.95986  0.73560  0.62160  1.0000
  C   C36       1.0  0.45986  0.26440  0.37840  1.0000
  C   C37       1.0  0.31415  0.20652  0.65677  1.0000
  C   C38       1.0  0.81414  0.79348  0.34323  1.0000
  C   C39       1.0  0.31415  0.70652  0.84323  1.0000
  C   C40       1.0  0.81414  0.29348  0.15677  1.0000
  N   N1        1.0  0.84193  0.24974  0.94779  1.0000
  N   N2        1.0  0.34193  0.75026  0.05221  1.0000
  N   N3        1.0  0.84193  0.74974  0.55221  1.0000
  N   N4        1.0  0.34193  0.25026  0.44779  1.0000
  O   O1        1.0  0.50126  0.27565  0.64016  1.0000
  O   O2        1.0  0.00126  0.72435  0.35984  1.0000
  O   O3        1.0  0.50126  0.77565  0.85984  1.0000
  O   O4        1.0  0.00126  0.22435  0.14016  1.0000
  O   O5        1.0  0.21327  0.12472  0.61064  1.0000
  O   O6        1.0  0.71327  0.87528  0.38936  1.0000
  O   O7        1.0  0.21327  0.62472  0.88936  1.0000
  O   O8        1.0  0.71327  0.37528  0.11064  1.0000
  O   O9        1.0  0.27679  0.95064  0.46936  1.0000
  O   O10       1.0  0.77679  0.04936  0.53064  1.0000
  O   O11       1.0  0.27679  0.45064  0.03064  1.0000
  O   O12       1.0  0.77679  0.54936  0.96936  1.0000
