data_image0
_chemical_formula_structural       Cu4H8C10S2N2Cl2
_chemical_formula_sum              "Cu4 H8 C10 S2 N2 Cl2"
_cell_length_a       3.86588
_cell_length_b       7.85317
_cell_length_c       11.1318
_cell_angle_alpha    90.0002
_cell_angle_beta     94.5374
_cell_angle_gamma    89.9997

_space_group_name_H-M_alt    "P 1"
_space_group_IT_number       1

loop_
  _space_group_symop_operation_xyz
  'x, y, z'

loop_
  _atom_site_type_symbol
  _atom_site_label
  _atom_site_symmetry_multiplicity
  _atom_site_fract_x
  _atom_site_fract_y
  _atom_site_fract_z
  _atom_site_occupancy
  Cu  Cu1       1.0  0.44155  0.62362  0.16273  1.0000
  Cu  Cu2       1.0  0.44155  0.37638  0.66273  1.0000
  Cu  Cu3       1.0  0.85198  0.51073  0.37410  1.0000
  Cu  Cu4       1.0  0.85198  0.48927  0.87409  1.0000
  H   H1        1.0  0.10572  0.31471  0.18216  1.0000
  H   H2        1.0  0.10573  0.68529  0.68216  1.0000
  H   H3        1.0  0.17361  0.01314  0.12486  1.0000
  H   H4        1.0  0.17362  0.98685  0.62485  1.0000
  H   H5        1.0  0.69972  0.87166  0.44931  1.0000
  H   H6        1.0  0.69972  0.12835  0.94931  1.0000
  H   H7        1.0  0.65833  0.18266  0.49600  1.0000
  H   H8        1.0  0.65833  0.81735  0.99600  1.0000
  C   C1        1.0  0.01960  0.21369  0.23978  1.0000
  C   C2        1.0  0.01961  0.78630  0.73978  1.0000
  C   C3        1.0  0.05629  0.04485  0.20772  1.0000
  C   C4        1.0  0.05630  0.95515  0.70772  1.0000
  C   C5        1.0  0.93864  0.91680  0.28230  1.0000
  C   C6        1.0  0.93865  0.08320  0.78230  1.0000
  C   C7        1.0  0.79405  0.96683  0.38852  1.0000
  C   C8        1.0  0.79406  0.03317  0.88851  1.0000
  C   C9        1.0  0.76976  0.13926  0.41412  1.0000
  C   C10       1.0  0.76976  0.86074  0.91412  1.0000
  S   S1        1.0  0.95946  0.70194  0.23739  1.0000
  S   S2        1.0  0.95946  0.29805  0.73739  1.0000
  N   N1        1.0  0.87847  0.26317  0.34168  1.0000
  N   N2        1.0  0.87847  0.73683  0.84168  1.0000
  Cl  Cl1       1.0  0.43059  0.43650  0.01034  1.0000
  Cl  Cl2       1.0  0.43059  0.56351  0.51034  1.0000
