data_image0
_chemical_formula_structural       Cu5H15C15S3N3Cl5
_chemical_formula_sum              "Cu5 H15 C15 S3 N3 Cl5"
_cell_length_a       5.23076
_cell_length_b       10.4539
_cell_length_c       11.697
_cell_angle_alpha    113.522
_cell_angle_beta     97.4769
_cell_angle_gamma    102.104

_space_group_name_H-M_alt    "P 1"
_space_group_IT_number       1

loop_
  _space_group_symop_operation_xyz
  'x, y, z'

loop_
  _atom_site_type_symbol
  _atom_site_label
  _atom_site_symmetry_multiplicity
  _atom_site_fract_x
  _atom_site_fract_y
  _atom_site_fract_z
  _atom_site_occupancy
  Cu  Cu1       1.0  0.78232  0.56288  0.99983  1.0000
  Cu  Cu2       1.0  0.27028  0.46568  0.18214  1.0000
  Cu  Cu3       1.0  0.08785  0.28346  0.81783  1.0000
  Cu  Cu4       1.0  0.58903  0.79953  0.12553  1.0000
  Cu  Cu5       1.0  0.46342  0.67384  0.87389  1.0000
  H   H1        1.0  0.46505  0.86238  0.61308  1.0000
  H   H2        1.0  0.85247  0.24926  0.38714  1.0000
  H   H3        1.0  0.04518  0.99348  0.00004  1.0000
  H   H4        1.0  0.16219  0.81626  0.24470  1.0000
  H   H5        1.0  0.91662  0.57166  0.75487  1.0000
  H   H6        1.0  0.53990  0.91641  0.44325  1.0000
  H   H7        1.0  0.09628  0.47326  0.55656  1.0000
  H   H8        1.0  0.05705  0.72950  0.62258  1.0000
  H   H9        1.0  0.43572  0.10655  0.37793  1.0000
  H   H10       1.0  0.66388  0.61398  0.43026  1.0000
  H   H11       1.0  0.23411  0.18350  0.56998  1.0000
  H   H12       1.0  0.74613  0.33879  0.20817  1.0000
  H   H13       1.0  0.53928  0.13076  0.79220  1.0000
  H   H14       1.0  0.31503  0.16690  0.19860  1.0000
  H   H15       1.0  0.11774  0.96814  0.80152  1.0000
  C   C1        1.0  0.88427  0.70465  0.32093  1.0000
  C   C2        1.0  0.56303  0.38366  0.67895  1.0000
  C   C3        1.0  0.13316  0.79314  0.32571  1.0000
  C   C4        1.0  0.80683  0.46750  0.67401  1.0000
  C   C5        1.0  0.34076  0.84953  0.43306  1.0000
  C   C6        1.0  0.90753  0.41652  0.56682  1.0000
  C   C7        1.0  0.06682  0.74269  0.53548  1.0000
  C   C8        1.0  0.53213  0.20698  0.46484  1.0000
  C   C9        1.0  0.85297  0.68171  0.42979  1.0000
  C   C10       1.0  0.42357  0.25170  0.57036  1.0000
  C   C11       1.0  0.67452  0.24947  0.00015  1.0000
  C   C12       1.0  0.61060  0.25999  0.11632  1.0000
  C   C13       1.0  0.49502  0.14372  0.88396  1.0000
  C   C14       1.0  0.37948  0.16509  0.11356  1.0000
  C   C15       1.0  0.26663  0.05155  0.88663  1.0000
  S   S1        1.0  0.62284  0.62550  0.18256  1.0000
  S   S2        1.0  0.43984  0.44291  0.81723  1.0000
  S   S3        1.0  0.96218  0.37164  0.00003  1.0000
  N   N1        1.0  0.30489  0.82290  0.53479  1.0000
  N   N2        1.0  0.77057  0.28801  0.46537  1.0000
  N   N3        1.0  0.21519  0.06358  0.00008  1.0000
  Cl  Cl1       1.0  0.15856  0.73878  0.99967  1.0000
  Cl  Cl2       1.0  0.24213  0.42571  0.35288  1.0000
  Cl  Cl3       1.0  0.88931  0.07286  0.64719  1.0000
  Cl  Cl4       1.0  0.85429  0.02312  0.21779  1.0000
  Cl  Cl5       1.0  0.63745  0.80521  0.78172  1.0000
