data_image0
_chemical_formula_structural       Cu4H8C10S2Br2N2
_chemical_formula_sum              "Cu4 H8 C10 S2 Br2 N2"
_cell_length_a       3.91855
_cell_length_b       7.87568
_cell_length_c       11.4282
_cell_angle_alpha    89.9999
_cell_angle_beta     95.5835
_cell_angle_gamma    90.0009

_space_group_name_H-M_alt    "P 1"
_space_group_IT_number       1

loop_
  _space_group_symop_operation_xyz
  'x, y, z'

loop_
  _atom_site_type_symbol
  _atom_site_label
  _atom_site_symmetry_multiplicity
  _atom_site_fract_x
  _atom_site_fract_y
  _atom_site_fract_z
  _atom_site_occupancy
  Cu  Cu1       1.0  0.43306  0.63141  0.16703  1.0000
  Cu  Cu2       1.0  0.43305  0.36859  0.66703  1.0000
  Cu  Cu3       1.0  0.87192  0.51496  0.37024  1.0000
  Cu  Cu4       1.0  0.87193  0.48504  0.87024  1.0000
  H   H1        1.0  0.10267  0.31864  0.18310  1.0000
  H   H2        1.0  0.10269  0.68137  0.68310  1.0000
  H   H3        1.0  0.16426  0.01822  0.12684  1.0000
  H   H4        1.0  0.16425  0.98179  0.62683  1.0000
  H   H5        1.0  0.71829  0.87812  0.44468  1.0000
  H   H6        1.0  0.71824  0.12187  0.94467  1.0000
  H   H7        1.0  0.68265  0.18841  0.49029  1.0000
  H   H8        1.0  0.68264  0.81158  0.99029  1.0000
  C   C1        1.0  0.02132  0.21812  0.23952  1.0000
  C   C2        1.0  0.02131  0.78188  0.73952  1.0000
  C   C3        1.0  0.05484  0.04975  0.20814  1.0000
  C   C4        1.0  0.05481  0.95027  0.70814  1.0000
  C   C5        1.0  0.94200  0.92243  0.28099  1.0000
  C   C6        1.0  0.94196  0.07758  0.78098  1.0000
  C   C7        1.0  0.80831  0.97266  0.38513  1.0000
  C   C8        1.0  0.80827  0.02733  0.88512  1.0000
  C   C9        1.0  0.78664  0.14472  0.41027  1.0000
  C   C10       1.0  0.78663  0.85526  0.91027  1.0000
  S   S1        1.0  0.95331  0.70830  0.23541  1.0000
  S   S2        1.0  0.95328  0.29170  0.73541  1.0000
  Br  Br1       1.0  0.43828  0.42940  0.01170  1.0000
  Br  Br2       1.0  0.43829  0.57059  0.51170  1.0000
  N   N1        1.0  0.88832  0.26789  0.33892  1.0000
  N   N2        1.0  0.88832  0.73210  0.83892  1.0000
