data_image0
_chemical_formula_structural       Er2Cu2H32C48N8O16
_chemical_formula_sum              "Er2 Cu2 H32 C48 N8 O16"
_cell_length_a       12.2081
_cell_length_b       12.661
_cell_length_c       14.0215
_cell_angle_alpha    77.8888
_cell_angle_beta     64.2018
_cell_angle_gamma    61.1772

_space_group_name_H-M_alt    "P 1"
_space_group_IT_number       1

loop_
  _space_group_symop_operation_xyz
  'x, y, z'

loop_
  _atom_site_type_symbol
  _atom_site_label
  _atom_site_symmetry_multiplicity
  _atom_site_fract_x
  _atom_site_fract_y
  _atom_site_fract_z
  _atom_site_occupancy
  Er  Er1       1.0  0.04450  0.50007  0.49997  1.0000
  Er  Er2       1.0  0.29457  0.99993  0.99998  1.0000
  Cu  Cu1       1.0  0.78909  0.99999  0.99997  1.0000
  Cu  Cu2       1.0  0.53909  0.50001  0.49997  1.0000
  H   H1        1.0  0.02385  0.80307  0.88127  1.0000
  H   H2        1.0  0.70807  0.19682  0.11919  1.0000
  H   H3        1.0  0.57691  0.69692  0.38127  1.0000
  H   H4        1.0  0.65488  0.30318  0.61919  1.0000
  H   H5        1.0  0.66205  0.20172  0.88921  1.0000
  H   H6        1.0  0.75250  0.79880  0.11102  1.0000
  H   H7        1.0  0.61376  0.29829  0.38922  1.0000
  H   H8        1.0  0.30129  0.70120  0.61102  1.0000
  H   H9        1.0  0.72168  0.34448  0.74481  1.0000
  H   H10       1.0  0.81070  0.65578  0.25527  1.0000
  H   H11       1.0  0.81614  0.15553  0.24481  1.0000
  H   H12       1.0  0.21648  0.84421  0.75528  1.0000
  H   H13       1.0  0.11033  0.67677  0.72478  1.0000
  H   H14       1.0  0.51162  0.32304  0.27563  1.0000
  H   H15       1.0  0.53710  0.82321  0.22478  1.0000
  H   H16       1.0  0.58464  0.17696  0.77563  1.0000
  H   H17       1.0  0.02161  0.07844  0.92975  1.0000
  H   H18       1.0  0.03020  0.92124  0.06992  1.0000
  H   H19       1.0  0.85005  0.42157  0.42976  1.0000
  H   H20       1.0  0.70144  0.57877  0.56992  1.0000
  H   H21       1.0  0.09100  0.21914  0.79363  1.0000
  H   H22       1.0  0.10437  0.78026  0.20590  1.0000
  H   H23       1.0  0.06013  0.28086  0.29364  1.0000
  H   H24       1.0  0.63461  0.71974  0.70591  1.0000
  H   H25       1.0  0.70414  0.85732  0.73063  1.0000
  H   H26       1.0  0.29210  0.14249  0.26926  1.0000
  H   H27       1.0  0.31145  0.64267  0.23064  1.0000
  H   H28       1.0  0.18459  0.35751  0.76925  1.0000
  H   H29       1.0  0.63481  0.97900  0.88277  1.0000
  H   H30       1.0  0.49674  0.02086  0.11720  1.0000
  H   H31       1.0  0.36379  0.52099  0.38278  1.0000
  H   H32       1.0  0.26759  0.47915  0.61720  1.0000
  C   C1        1.0  0.95731  0.81339  0.84392  1.0000
  C   C2        1.0  0.61455  0.18646  0.15644  1.0000
  C   C3        1.0  0.52070  0.68660  0.34392  1.0000
  C   C4        1.0  0.55100  0.31354  0.65644  1.0000
  C   C5        1.0  0.75725  0.20742  0.86375  1.0000
  C   C6        1.0  0.82821  0.79281  0.13631  1.0000
  C   C7        1.0  0.71466  0.29259  0.36375  1.0000
  C   C8        1.0  0.37101  0.70719  0.63631  1.0000
  C   C9        1.0  0.78984  0.28640  0.78457  1.0000
  C   C10       1.0  0.86073  0.71370  0.21539  1.0000
  C   C11       1.0  0.82623  0.21360  0.28458  1.0000
  C   C12       1.0  0.32443  0.78629  0.71540  1.0000
  C   C13       1.0  0.00489  0.74398  0.75754  1.0000
  C   C14       1.0  0.50627  0.25582  0.24280  1.0000
  C   C15       1.0  0.49887  0.75601  0.25754  1.0000
  C   C16       1.0  0.51208  0.24418  0.74280  1.0000
  C   C17       1.0  0.95421  0.37089  0.66810  1.0000
  C   C18       1.0  0.99331  0.62907  0.33174  1.0000
  C   C19       1.0  0.07510  0.12910  0.16811  1.0000
  C   C20       1.0  0.37237  0.87092  0.83175  1.0000
  C   C21       1.0  0.96244  0.68012  0.62485  1.0000
  C   C22       1.0  0.26718  0.31988  0.37510  1.0000
  C   C23       1.0  0.39257  0.81987  0.12485  1.0000
  C   C24       1.0  0.33704  0.18013  0.87510  1.0000
  C   C25       1.0  0.91269  0.29068  0.75610  1.0000
  C   C26       1.0  0.95966  0.70916  0.24367  1.0000
  C   C27       1.0  0.95336  0.20932  0.25610  1.0000
  C   C28       1.0  0.41882  0.79083  0.74369  1.0000
  C   C29       1.0  0.95719  0.13856  0.88766  1.0000
  C   C30       1.0  0.98370  0.86121  0.11207  1.0000
  C   C31       1.0  0.84575  0.36145  0.38766  1.0000
  C   C32       1.0  0.59490  0.63880  0.61208  1.0000
  C   C33       1.0  0.99622  0.21694  0.81050  1.0000
  C   C34       1.0  0.02409  0.78268  0.18911  1.0000
  C   C35       1.0  0.96315  0.28306  0.31051  1.0000
  C   C36       1.0  0.55676  0.71732  0.68913  1.0000
  C   C37       1.0  0.91455  0.75901  0.71408  1.0000
  C   C38       1.0  0.38753  0.24079  0.28608  1.0000
  C   C39       1.0  0.42356  0.74097  0.21408  1.0000
  C   C40       1.0  0.37830  0.25921  0.78607  1.0000
  C   C41       1.0  0.77929  0.84441  0.75961  1.0000
  C   C42       1.0  0.38329  0.15540  0.24044  1.0000
  C   C43       1.0  0.37370  0.65559  0.25962  1.0000
  C   C44       1.0  0.28869  0.34460  0.74044  1.0000
  C   C45       1.0  0.73974  0.91190  0.84545  1.0000
  C   C46       1.0  0.49717  0.08793  0.15465  1.0000
  C   C47       1.0  0.40163  0.58810  0.34546  1.0000
  C   C48       1.0  0.33509  0.41208  0.65466  1.0000
  N   N1        1.0  0.84043  0.13195  0.91352  1.0000
  N   N2        1.0  0.88589  0.86812  0.08643  1.0000
  N   N3        1.0  0.72237  0.36806  0.41353  1.0000
  N   N4        1.0  0.50400  0.63189  0.58643  1.0000
  N   N5        1.0  0.82682  0.89711  0.88780  1.0000
  N   N6        1.0  0.61175  0.10276  0.11244  1.0000
  N   N7        1.0  0.47391  0.60289  0.38780  1.0000
  N   N8        1.0  0.46450  0.39725  0.61245  1.0000
  O   O1        1.0  0.09006  0.61626  0.57561  1.0000
  O   O2        1.0  0.28168  0.38371  0.42440  1.0000
  O   O3        1.0  0.45633  0.88374  0.07562  1.0000
  O   O4        1.0  0.41538  0.11630  0.92440  1.0000
  O   O5        1.0  0.88930  0.41984  0.60701  1.0000
  O   O6        1.0  0.91622  0.58022  0.39288  1.0000
  O   O7        1.0  0.05914  0.08015  0.10703  1.0000
  O   O8        1.0  0.24642  0.91978  0.89289  1.0000
  O   O9        1.0  0.05552  0.38741  0.65450  1.0000
  O   O10       1.0  0.09741  0.61271  0.34544  1.0000
  O   O11       1.0  0.19292  0.11259  0.15451  1.0000
  O   O12       1.0  0.46011  0.88729  0.84546  1.0000
  O   O13       1.0  0.87489  0.67386  0.60216  1.0000
  O   O14       1.0  0.15067  0.32637  0.39757  1.0000
  O   O15       1.0  0.29877  0.82612  0.10215  1.0000
  O   O16       1.0  0.22701  0.17364  0.89758  1.0000
