data_image0
_chemical_formula_structural       Zn2Ni2H28C20N16
_chemical_formula_sum              "Zn2 Ni2 H28 C20 N16"
_cell_length_a       8.42538
_cell_length_b       8.59618
_cell_length_c       11.0062
_cell_angle_alpha    76.0044
_cell_angle_beta     76.5385
_cell_angle_gamma    68.8879

_space_group_name_H-M_alt    "P 1"
_space_group_IT_number       1

loop_
  _space_group_symop_operation_xyz
  'x, y, z'

loop_
  _atom_site_type_symbol
  _atom_site_label
  _atom_site_symmetry_multiplicity
  _atom_site_fract_x
  _atom_site_fract_y
  _atom_site_fract_z
  _atom_site_occupancy
  Zn  Zn1       1.0  0.82527  0.65967  0.26934  1.0000
  Zn  Zn2       1.0  0.17474  0.34033  0.73066  1.0000
  Ni  Ni1       1.0  0.50000  0.49999  0.00000  1.0000
  Ni  Ni2       1.0  1.00000  1.00000  0.50000  1.0000
  H   H1        1.0  0.68536  0.44342  0.43553  1.0000
  H   H2        1.0  0.31464  0.55658  0.56448  1.0000
  H   H3        1.0  0.60721  0.62703  0.48659  1.0000
  H   H4        1.0  0.39279  0.37297  0.51341  1.0000
  H   H5        1.0  0.80458  0.49681  0.50601  1.0000
  H   H6        1.0  0.19542  0.50319  0.49399  1.0000
  H   H7        1.0  0.94400  0.70180  0.02630  1.0000
  H   H8        1.0  0.05601  0.29819  0.97370  1.0000
  H   H9        1.0  0.05865  0.77211  0.08781  1.0000
  H   H10       1.0  0.94136  0.22788  0.91219  1.0000
  H   H11       1.0  0.86376  0.89337  0.06265  1.0000
  H   H12       1.0  0.13624  0.10663  0.93735  1.0000
  H   H13       1.0  0.21985  0.51168  0.28744  1.0000
  H   H14       1.0  0.78015  0.48832  0.71257  1.0000
  H   H15       1.0  0.46721  0.24506  0.28353  1.0000
  H   H16       1.0  0.53279  0.75495  0.71647  1.0000
  H   H17       1.0  0.89616  0.29514  0.21142  1.0000
  H   H18       1.0  0.10384  0.70487  0.78858  1.0000
  H   H19       1.0  0.13455  0.02228  0.19187  1.0000
  H   H20       1.0  0.86546  0.97772  0.80813  1.0000
  H   H21       1.0  0.41333  0.83955  0.26131  1.0000
  H   H22       1.0  0.58667  0.16046  0.73869  1.0000
  H   H23       1.0  0.51377  0.93873  0.12203  1.0000
  H   H24       1.0  0.48623  0.06127  0.87797  1.0000
  H   H25       1.0  0.57443  0.91942  0.37897  1.0000
  H   H26       1.0  0.42557  0.08058  0.62103  1.0000
  H   H27       1.0  0.67379  0.00118  0.24509  1.0000
  H   H28       1.0  0.32622  0.99882  0.75491  1.0000
  C   C1        1.0  0.77488  0.12032  0.47751  1.0000
  C   C2        1.0  0.22513  0.87967  0.52249  1.0000
  C   C3        1.0  0.61486  0.54445  0.10319  1.0000
  C   C4        1.0  0.38514  0.45553  0.89682  1.0000
  C   C5        1.0  0.98768  0.83677  0.42468  1.0000
  C   C6        1.0  0.01231  0.16322  0.57531  1.0000
  C   C7        1.0  0.20567  0.39897  0.26833  1.0000
  C   C8        1.0  0.79432  0.60104  0.73167  1.0000
  C   C9        1.0  0.34471  0.24977  0.26361  1.0000
  C   C10       1.0  0.65530  0.75024  0.73639  1.0000
  C   C11       1.0  0.02583  0.27960  0.22437  1.0000
  C   C12       1.0  0.97418  0.72040  0.77563  1.0000
  C   C13       1.0  0.63739  0.27681  0.01595  1.0000
  C   C14       1.0  0.36262  0.72318  0.98405  1.0000
  C   C15       1.0  0.32322  0.10942  0.23502  1.0000
  C   C16       1.0  0.67678  0.89059  0.76498  1.0000
  C   C17       1.0  0.15886  0.12731  0.21480  1.0000
  C   C18       1.0  0.84114  0.87271  0.78520  1.0000
  C   C19       1.0  0.46670  0.94397  0.22349  1.0000
  C   C20       1.0  0.53330  0.05603  0.77651  1.0000
  N   N1        1.0  0.71686  0.54393  0.44507  1.0000
  N   N2        1.0  0.28314  0.45607  0.55493  1.0000
  N   N3        1.0  0.93662  0.77013  0.09265  1.0000
  N   N4        1.0  0.06339  0.22986  0.90735  1.0000
  N   N5        1.0  0.04783  0.41511  0.25019  1.0000
  N   N6        1.0  0.95217  0.58489  0.74981  1.0000
  N   N7        1.0  0.97593  0.73677  0.37388  1.0000
  N   N8        1.0  0.02406  0.26323  0.62612  1.0000
  N   N9        1.0  0.68633  0.57635  0.16867  1.0000
  N   N10       1.0  0.31366  0.42365  0.83134  1.0000
  N   N11       1.0  0.63137  0.19623  0.46288  1.0000
  N   N12       1.0  0.36860  0.80378  0.53712  1.0000
  N   N13       1.0  0.61538  0.91095  0.28492  1.0000
  N   N14       1.0  0.38462  0.08905  0.71508  1.0000
  N   N15       1.0  0.72417  0.13385  0.02585  1.0000
  N   N16       1.0  0.27584  0.86613  0.97415  1.0000
