data_image0
_chemical_formula_structural       Zn2H28Pd2C20N16
_chemical_formula_sum              "Zn2 H28 Pd2 C20 N16"
_cell_length_a       8.52971
_cell_length_b       8.7256
_cell_length_c       11.2459
_cell_angle_alpha    75.6806
_cell_angle_beta     75.3375
_cell_angle_gamma    67.843

_space_group_name_H-M_alt    "P 1"
_space_group_IT_number       1

loop_
  _space_group_symop_operation_xyz
  'x, y, z'

loop_
  _atom_site_type_symbol
  _atom_site_label
  _atom_site_symmetry_multiplicity
  _atom_site_fract_x
  _atom_site_fract_y
  _atom_site_fract_z
  _atom_site_occupancy
  Zn  Zn1       1.0  0.66622  0.85091  0.23107  1.0000
  Zn  Zn2       1.0  0.33377  0.14909  0.76894  1.0000
  H   H1        1.0  0.62507  0.62257  0.43599  1.0000
  H   H2        1.0  0.37493  0.37743  0.56402  1.0000
  H   H3        1.0  0.43180  0.74562  0.41084  1.0000
  H   H4        1.0  0.56821  0.25438  0.58917  1.0000
  H   H5        1.0  0.54439  0.81337  0.47108  1.0000
  H   H6        1.0  0.45561  0.18663  0.52892  1.0000
  H   H7        1.0  0.27841  0.00840  0.20108  1.0000
  H   H8        1.0  0.72158  0.99160  0.79892  1.0000
  H   H9        1.0  0.68688  0.01577  0.99859  1.0000
  H   H10       1.0  0.31311  0.98423  0.00141  1.0000
  H   H11       1.0  0.88222  0.87888  0.01396  1.0000
  H   H12       1.0  0.11777  0.12112  0.98604  1.0000
  H   H13       1.0  0.81029  0.05845  0.06707  1.0000
  H   H14       1.0  0.18970  0.94155  0.93294  1.0000
  H   H15       1.0  0.03211  0.27501  0.20488  1.0000
  H   H16       1.0  0.96789  0.72500  0.79512  1.0000
  H   H17       1.0  0.58797  0.20738  0.29922  1.0000
  H   H18       1.0  0.41203  0.79262  0.70078  1.0000
  H   H19       1.0  0.34887  0.47918  0.31977  1.0000
  H   H20       1.0  0.65113  0.52081  0.68024  1.0000
  H   H21       1.0  0.97752  0.57651  0.37395  1.0000
  H   H22       1.0  0.02248  0.42350  0.62605  1.0000
  H   H23       1.0  0.07901  0.66933  0.23457  1.0000
  H   H24       1.0  0.92099  0.33066  0.76543  1.0000
  H   H25       1.0  0.81972  0.51203  0.25724  1.0000
  H   H26       1.0  0.18028  0.48797  0.74277  1.0000
  H   H27       1.0  0.91872  0.59088  0.12373  1.0000
  H   H28       1.0  0.08128  0.40912  0.87627  1.0000
  Pd  Pd1       1.0  0.49999  0.49999  0.00000  1.0000
  Pd  Pd2       1.0  0.00001  0.00001  0.49999  1.0000
  C   C1        1.0  0.85728  0.24083  0.48108  1.0000
  C   C2        1.0  0.14273  0.75918  0.51891  1.0000
  C   C3        1.0  0.28957  0.11710  0.22524  1.0000
  C   C4        1.0  0.71042  0.88290  0.77476  1.0000
  C   C5        1.0  0.87577  0.95887  0.39177  1.0000
  C   C6        1.0  0.12424  0.04113  0.60822  1.0000
  C   C7        1.0  0.74093  0.37216  0.02374  1.0000
  C   C8        1.0  0.25906  0.62783  0.97626  1.0000
  C   C9        1.0  0.15086  0.26652  0.22977  1.0000
  C   C10       1.0  0.84914  0.73349  0.77024  1.0000
  C   C11       1.0  0.46111  0.22657  0.28187  1.0000
  C   C12       1.0  0.53889  0.77342  0.71814  1.0000
  C   C13       1.0  0.50840  0.67209  0.08230  1.0000
  C   C14       1.0  0.49159  0.32790  0.91770  1.0000
  C   C15       1.0  0.32796  0.37847  0.29166  1.0000
  C   C16       1.0  0.67204  0.62153  0.70835  1.0000
  C   C17       1.0  0.16813  0.40164  0.26447  1.0000
  C   C18       1.0  0.83187  0.59836  0.73554  1.0000
  C   C19       1.0  0.02517  0.56766  0.27453  1.0000
  C   C20       1.0  0.97483  0.43234  0.72547  1.0000
  N   N1        1.0  0.55317  0.74525  0.40634  1.0000
  N   N2        1.0  0.44684  0.25475  0.59366  1.0000
  N   N3        1.0  0.80370  0.93202  0.32767  1.0000
  N   N4        1.0  0.19631  0.06798  0.67234  1.0000
  N   N5        1.0  0.88377  0.29771  0.03760  1.0000
  N   N6        1.0  0.11622  0.70229  0.96241  1.0000
  N   N7        1.0  0.44346  0.09594  0.24954  1.0000
  N   N8        1.0  0.55654  0.90406  0.75047  1.0000
  N   N9        1.0  0.51982  0.76967  0.13223  1.0000
  N   N10       1.0  0.48018  0.23031  0.86776  1.0000
  N   N11       1.0  0.77171  0.38319  0.46974  1.0000
  N   N12       1.0  0.22830  0.61682  0.53026  1.0000
  N   N13       1.0  0.77471  0.96323  0.05702  1.0000
  N   N14       1.0  0.22528  0.03677  0.94298  1.0000
  N   N15       1.0  0.87737  0.60065  0.21622  1.0000
  N   N16       1.0  0.12263  0.39935  0.78378  1.0000
