data_image0
_chemical_formula_structural       Li2H10C6O6
_chemical_formula_sum              "Li2 H10 C6 O6"
_cell_length_a       4.5249
_cell_length_b       4.88479
_cell_length_c       10.1991
_cell_angle_alpha    90
_cell_angle_beta     98.1565
_cell_angle_gamma    90

_space_group_name_H-M_alt    "P 1"
_space_group_IT_number       1

loop_
  _space_group_symop_operation_xyz
  'x, y, z'

loop_
  _atom_site_type_symbol
  _atom_site_label
  _atom_site_symmetry_multiplicity
  _atom_site_fract_x
  _atom_site_fract_y
  _atom_site_fract_z
  _atom_site_occupancy
  Li  Li1       1.0  0.04442  0.94395  0.58972  1.0000
  Li  Li2       1.0  0.95558  0.44395  0.41028  1.0000
  H   H1        1.0  0.55965  0.91681  0.70218  1.0000
  H   H2        1.0  0.44036  0.41681  0.29782  1.0000
  H   H3        1.0  0.34591  0.45716  0.75448  1.0000
  H   H4        1.0  0.65409  0.95716  0.24552  1.0000
  H   H5        1.0  0.58323  0.21958  0.96008  1.0000
  H   H6        1.0  0.41677  0.71958  0.03992  1.0000
  H   H7        1.0  0.81745  0.49059  0.91770  1.0000
  H   H8        1.0  0.18255  0.99059  0.08230  1.0000
  H   H9        1.0  0.90363  0.14425  0.88260  1.0000
  H   H10       1.0  0.09637  0.64425  0.11740  1.0000
  C   C1        1.0  0.72627  0.43335  0.65230  1.0000
  C   C2        1.0  0.27373  0.93335  0.34770  1.0000
  C   C3        1.0  0.53104  0.31276  0.74998  1.0000
  C   C4        1.0  0.46896  0.81276  0.25002  1.0000
  C   C5        1.0  0.72069  0.29105  0.88658  1.0000
  C   C6        1.0  0.27931  0.79105  0.11342  1.0000
  O   O1        1.0  0.79597  0.68522  0.66742  1.0000
  O   O2        1.0  0.20403  0.18522  0.33258  1.0000
  O   O3        1.0  0.81927  0.27981  0.56658  1.0000
  O   O4        1.0  0.18072  0.77982  0.43342  1.0000
  O   O5        1.0  0.39916  0.05626  0.70947  1.0000
  O   O6        1.0  0.60085  0.55627  0.29053  1.0000
