data_image0
_chemical_formula_structural       Sm2H24C36N6O12
_chemical_formula_sum              "Sm2 H24 C36 N6 O12"
_cell_length_a       7.66731
_cell_length_b       10.9084
_cell_length_c       11.2646
_cell_angle_alpha    117.981
_cell_angle_beta     90
_cell_angle_gamma    90

_space_group_name_H-M_alt    "P 1"
_space_group_IT_number       1

loop_
  _space_group_symop_operation_xyz
  'x, y, z'

loop_
  _atom_site_type_symbol
  _atom_site_label
  _atom_site_symmetry_multiplicity
  _atom_site_fract_x
  _atom_site_fract_y
  _atom_site_fract_z
  _atom_site_occupancy
  Sm  Sm1       1.0  0.80681  0.98451  0.53245  1.0000
  Sm  Sm2       1.0  0.30681  0.01549  0.46755  1.0000
  H   H1        1.0  0.05699  0.44306  0.34973  1.0000
  H   H2        1.0  0.55699  0.55694  0.65027  1.0000
  H   H3        1.0  0.77194  0.31609  0.32074  1.0000
  H   H4        1.0  0.27194  0.68391  0.67927  1.0000
  H   H5        1.0  0.49187  0.45440  0.35636  1.0000
  H   H6        1.0  0.99187  0.54560  0.64365  1.0000
  H   H7        1.0  0.51049  0.70378  0.42693  1.0000
  H   H8        1.0  0.01049  0.29621  0.57307  1.0000
  H   H9        1.0  0.50340  0.84500  0.89991  1.0000
  H   H10       1.0  0.00340  0.15500  0.10009  1.0000
  H   H11       1.0  0.77695  0.80830  0.00513  1.0000
  H   H12       1.0  0.27695  0.19170  0.99487  1.0000
  H   H13       1.0  0.06732  0.83472  0.91378  1.0000
  H   H14       1.0  0.56733  0.16529  0.08622  1.0000
  H   H15       1.0  0.07292  0.89784  0.72830  1.0000
  H   H16       1.0  0.57292  0.10216  0.27170  1.0000
  H   H17       1.0  0.06238  0.39927  0.02554  1.0000
  H   H18       1.0  0.56238  0.60073  0.97446  1.0000
  H   H19       1.0  0.77701  0.49998  0.14301  1.0000
  H   H20       1.0  0.27702  0.50002  0.85699  1.0000
  H   H21       1.0  0.49819  0.38725  0.02129  1.0000
  H   H22       1.0  0.99820  0.61275  0.97871  1.0000
  H   H23       1.0  0.51463  0.19549  0.78977  1.0000
  H   H24       1.0  0.01463  0.80451  0.21023  1.0000
  C   C1        1.0  0.93108  0.63762  0.40536  1.0000
  C   C2        1.0  0.43108  0.36238  0.59464  1.0000
  C   C3        1.0  0.93190  0.49585  0.36650  1.0000
  C   C4        1.0  0.43190  0.50415  0.63350  1.0000
  C   C5        1.0  0.77370  0.42661  0.35003  1.0000
  C   C6        1.0  0.27370  0.57339  0.64997  1.0000
  C   C7        1.0  0.62008  0.50221  0.37030  1.0000
  C   C8        1.0  0.12008  0.49779  0.62971  1.0000
  C   C9        1.0  0.63000  0.64399  0.41009  1.0000
  C   C10       1.0  0.13000  0.35601  0.58991  1.0000
  C   C11       1.0  0.09977  0.71464  0.42141  1.0000
  C   C12       1.0  0.59977  0.28536  0.57859  1.0000
  C   C13       1.0  0.64702  0.89004  0.76183  1.0000
  C   C14       1.0  0.14702  0.10996  0.23817  1.0000
  C   C15       1.0  0.63295  0.85454  0.86548  1.0000
  C   C16       1.0  0.13296  0.14546  0.13452  1.0000
  C   C17       1.0  0.78443  0.83413  0.92263  1.0000
  C   C18       1.0  0.28443  0.16587  0.07737  1.0000
  C   C19       1.0  0.94500  0.84907  0.87264  1.0000
  C   C20       1.0  0.44500  0.15093  0.12736  1.0000
  C   C21       1.0  0.94900  0.88428  0.76844  1.0000
  C   C22       1.0  0.44900  0.11572  0.23156  1.0000
  C   C23       1.0  0.48501  0.91568  0.70012  1.0000
  C   C24       1.0  0.98501  0.08431  0.29988  1.0000
  C   C25       1.0  0.93493  0.24958  0.84654  1.0000
  C   C26       1.0  0.43493  0.75042  0.15346  1.0000
  C   C27       1.0  0.93726  0.35772  0.97804  1.0000
  C   C28       1.0  0.43726  0.64229  0.02196  1.0000
  C   C29       1.0  0.77950  0.41143  0.04301  1.0000
  C   C30       1.0  0.27950  0.58857  0.95699  1.0000
  C   C31       1.0  0.62544  0.35071  0.97537  1.0000
  C   C32       1.0  0.12544  0.64929  0.02463  1.0000
  C   C33       1.0  0.63428  0.24195  0.84440  1.0000
  C   C34       1.0  0.13428  0.75805  0.15560  1.0000
  C   C35       1.0  0.10252  0.19479  0.77074  1.0000
  C   C36       1.0  0.60252  0.80521  0.22926  1.0000
  N   N1        1.0  0.78228  0.71163  0.42883  1.0000
  N   N2        1.0  0.28227  0.28837  0.57117  1.0000
  N   N3        1.0  0.80289  0.90476  0.71430  1.0000
  N   N4        1.0  0.30289  0.09524  0.28570  1.0000
  N   N5        1.0  0.78586  0.19267  0.77985  1.0000
  N   N6        1.0  0.28586  0.80733  0.22015  1.0000
  O   O1        1.0  0.08255  0.84749  0.46346  1.0000
  O   O2        1.0  0.58255  0.15251  0.53654  1.0000
  O   O3        1.0  0.24021  0.65064  0.39359  1.0000
  O   O4        1.0  0.74021  0.34935  0.60641  1.0000
  O   O5        1.0  0.51209  0.95245  0.60690  1.0000
  O   O6        1.0  0.01209  0.04755  0.39310  1.0000
  O   O7        1.0  0.34001  0.90142  0.74083  1.0000
  O   O8        1.0  0.84001  0.09857  0.25916  1.0000
  O   O9        1.0  0.24452  0.24253  0.82684  1.0000
  O   O10       1.0  0.74452  0.75748  0.17316  1.0000
  O   O11       1.0  0.08377  0.09987  0.64689  1.0000
  O   O12       1.0  0.58378  0.90013  0.35311  1.0000
