data_image0
_chemical_formula_structural       Nd2H24C36N6O12
_chemical_formula_sum              "Nd2 H24 C36 N6 O12"
_cell_length_a       7.71211
_cell_length_b       10.9296
_cell_length_c       11.3188
_cell_angle_alpha    117.953
_cell_angle_beta     89.9999
_cell_angle_gamma    90

_space_group_name_H-M_alt    "P 1"
_space_group_IT_number       1

loop_
  _space_group_symop_operation_xyz
  'x, y, z'

loop_
  _atom_site_type_symbol
  _atom_site_label
  _atom_site_symmetry_multiplicity
  _atom_site_fract_x
  _atom_site_fract_y
  _atom_site_fract_z
  _atom_site_occupancy
  Nd  Nd1       1.0  0.79634  0.98458  0.53103  1.0000
  Nd  Nd2       1.0  0.29634  0.01542  0.46897  1.0000
  H   H1        1.0  0.04747  0.44199  0.35039  1.0000
  H   H2        1.0  0.54747  0.55801  0.64961  1.0000
  H   H3        1.0  0.76452  0.31441  0.31993  1.0000
  H   H4        1.0  0.26452  0.68559  0.68007  1.0000
  H   H5        1.0  0.48560  0.45137  0.35447  1.0000
  H   H6        1.0  0.98560  0.54863  0.64553  1.0000
  H   H7        1.0  0.50318  0.70062  0.42465  1.0000
  H   H8        1.0  0.00318  0.29938  0.57534  1.0000
  H   H9        1.0  0.49897  0.84550  0.90163  1.0000
  H   H10       1.0  0.99897  0.15450  0.09837  1.0000
  H   H11       1.0  0.77216  0.80839  0.00431  1.0000
  H   H12       1.0  0.27216  0.19161  0.99569  1.0000
  H   H13       1.0  0.05989  0.83435  0.91146  1.0000
  H   H14       1.0  0.55989  0.16565  0.08855  1.0000
  H   H15       1.0  0.06255  0.89753  0.72698  1.0000
  H   H16       1.0  0.56255  0.10246  0.27301  1.0000
  H   H17       1.0  0.04532  0.39722  0.02815  1.0000
  H   H18       1.0  0.54533  0.60278  0.97185  1.0000
  H   H19       1.0  0.76042  0.49730  0.14290  1.0000
  H   H20       1.0  0.26043  0.50270  0.85710  1.0000
  H   H21       1.0  0.48416  0.38794  0.01801  1.0000
  H   H22       1.0  0.98416  0.61206  0.98199  1.0000
  H   H23       1.0  0.50323  0.19810  0.78715  1.0000
  H   H24       1.0  0.00323  0.80190  0.21285  1.0000
  C   C1        1.0  0.92168  0.63570  0.40500  1.0000
  C   C2        1.0  0.42167  0.36430  0.59500  1.0000
  C   C3        1.0  0.92293  0.49424  0.36633  1.0000
  C   C4        1.0  0.42292  0.50576  0.63367  1.0000
  C   C5        1.0  0.76580  0.42475  0.34925  1.0000
  C   C6        1.0  0.26579  0.57525  0.65075  1.0000
  C   C7        1.0  0.61273  0.49965  0.36880  1.0000
  C   C8        1.0  0.11272  0.50036  0.63120  1.0000
  C   C9        1.0  0.62209  0.64108  0.40814  1.0000
  C   C10       1.0  0.12209  0.35892  0.59186  1.0000
  C   C11       1.0  0.08935  0.71335  0.42278  1.0000
  C   C12       1.0  0.58935  0.28665  0.57722  1.0000
  C   C13       1.0  0.63946  0.89006  0.76297  1.0000
  C   C14       1.0  0.13946  0.10994  0.23703  1.0000
  C   C15       1.0  0.62718  0.85478  0.86633  1.0000
  C   C16       1.0  0.12718  0.14522  0.13367  1.0000
  C   C17       1.0  0.77871  0.83418  0.92215  1.0000
  C   C18       1.0  0.27871  0.16582  0.07785  1.0000
  C   C19       1.0  0.93768  0.84882  0.87139  1.0000
  C   C20       1.0  0.43768  0.15119  0.12862  1.0000
  C   C21       1.0  0.93998  0.88394  0.76766  1.0000
  C   C22       1.0  0.43998  0.11606  0.23234  1.0000
  C   C23       1.0  0.47742  0.91582  0.70235  1.0000
  C   C24       1.0  0.97742  0.08418  0.29765  1.0000
  C   C25       1.0  0.92079  0.25028  0.84775  1.0000
  C   C26       1.0  0.42079  0.74971  0.15225  1.0000
  C   C27       1.0  0.92148  0.35675  0.97930  1.0000
  C   C28       1.0  0.42148  0.64325  0.02070  1.0000
  C   C29       1.0  0.76384  0.41020  0.04267  1.0000
  C   C30       1.0  0.26384  0.58980  0.95733  1.0000
  C   C31       1.0  0.61118  0.35129  0.97349  1.0000
  C   C32       1.0  0.11118  0.64871  0.02650  1.0000
  C   C33       1.0  0.62157  0.24386  0.84277  1.0000
  C   C34       1.0  0.12157  0.75613  0.15722  1.0000
  C   C35       1.0  0.08851  0.19624  0.77315  1.0000
  C   C36       1.0  0.58851  0.80376  0.22685  1.0000
  N   N1        1.0  0.77331  0.70890  0.42727  1.0000
  N   N2        1.0  0.27331  0.29110  0.57273  1.0000
  N   N3        1.0  0.79387  0.90444  0.71473  1.0000
  N   N4        1.0  0.29387  0.09556  0.28527  1.0000
  N   N5        1.0  0.77306  0.19463  0.77996  1.0000
  N   N6        1.0  0.27306  0.80537  0.22004  1.0000
  O   O1        1.0  0.07159  0.84594  0.46460  1.0000
  O   O2        1.0  0.57159  0.15406  0.53540  1.0000
  O   O3        1.0  0.22952  0.65038  0.39687  1.0000
  O   O4        1.0  0.72952  0.34962  0.60313  1.0000
  O   O5        1.0  0.50315  0.95144  0.60865  1.0000
  O   O6        1.0  0.00315  0.04856  0.39135  1.0000
  O   O7        1.0  0.33362  0.90274  0.74427  1.0000
  O   O8        1.0  0.83362  0.09726  0.25572  1.0000
  O   O9        1.0  0.22908  0.24402  0.82994  1.0000
  O   O10       1.0  0.72908  0.75598  0.17007  1.0000
  O   O11       1.0  0.07120  0.10204  0.64950  1.0000
  O   O12       1.0  0.57120  0.89796  0.35051  1.0000
