data_image0
_chemical_formula_structural       HgH24C30Br2N6O4
_chemical_formula_sum              "Hg1 H24 C30 Br2 N6 O4"
_cell_length_a       9.01394
_cell_length_b       9.014
_cell_length_c       11.959
_cell_angle_alpha    79.2063
_cell_angle_beta     79.2064
_cell_angle_gamma    88.3752

_space_group_name_H-M_alt    "P 1"
_space_group_IT_number       1

loop_
  _space_group_symop_operation_xyz
  'x, y, z'

loop_
  _atom_site_type_symbol
  _atom_site_label
  _atom_site_symmetry_multiplicity
  _atom_site_fract_x
  _atom_site_fract_y
  _atom_site_fract_z
  _atom_site_occupancy
  Hg  Hg1       1.0  0.53300  0.46701  1.00000  1.0000
  H   H1        1.0  0.60727  0.41467  0.73529  1.0000
  H   H2        1.0  0.58534  0.39274  0.26471  1.0000
  H   H3        1.0  0.78925  0.28846  0.59863  1.0000
  H   H4        1.0  0.71154  0.21075  0.40137  1.0000
  H   H5        1.0  0.08649  0.23400  0.84821  1.0000
  H   H6        1.0  0.76600  0.91352  0.15178  1.0000
  H   H7        1.0  0.89518  0.36541  0.97230  1.0000
  H   H8        1.0  0.63459  0.10483  0.02770  1.0000
  H   H9        1.0  0.08842  0.21495  0.28483  1.0000
  H   H10       1.0  0.78504  0.91157  0.71517  1.0000
  H   H11       1.0  0.15165  0.12053  0.09918  1.0000
  H   H12       1.0  0.87946  0.84834  0.90082  1.0000
  H   H13       1.0  0.31092  0.88947  0.08694  1.0000
  H   H14       1.0  0.11053  0.68908  0.91307  1.0000
  H   H15       1.0  0.41325  0.76151  0.25798  1.0000
  H   H16       1.0  0.23849  0.58674  0.74202  1.0000
  H   H17       1.0  0.64308  0.75279  0.42606  1.0000
  H   H18       1.0  0.24721  0.35693  0.57394  1.0000
  H   H19       1.0  0.71879  0.48131  0.46250  1.0000
  H   H20       1.0  0.51869  0.28121  0.53750  1.0000
  H   H21       1.0  0.13281  0.11018  0.68667  1.0000
  H   H22       1.0  0.88982  0.86719  0.31333  1.0000
  H   H23       1.0  0.23090  0.00964  0.54524  1.0000
  H   H24       1.0  0.99035  0.76910  0.45476  1.0000
  C   C1        1.0  0.71615  0.37507  0.75612  1.0000
  C   C2        1.0  0.62494  0.28386  0.24388  1.0000
  C   C3        1.0  0.81628  0.30463  0.68006  1.0000
  C   C4        1.0  0.69537  0.18373  0.31994  1.0000
  C   C5        1.0  0.95250  0.25003  0.71234  1.0000
  C   C6        1.0  0.74997  0.04750  0.28766  1.0000
  C   C7        1.0  0.98105  0.27139  0.81988  1.0000
  C   C8        1.0  0.72861  0.01896  0.18012  1.0000
  C   C9        1.0  0.87474  0.34517  0.88929  1.0000
  C   C10       1.0  0.65483  0.12527  0.11071  1.0000
  C   C11       1.0  0.07193  0.17750  0.52521  1.0000
  C   C12       1.0  0.82250  0.92808  0.47479  1.0000
  C   C13       1.0  0.21477  0.04271  0.37587  1.0000
  C   C14       1.0  0.95729  0.78523  0.62413  1.0000
  C   C15       1.0  0.15911  0.11617  0.27830  1.0000
  C   C16       1.0  0.88382  0.84089  0.72170  1.0000
  C   C17       1.0  0.19321  0.06040  0.17498  1.0000
  C   C18       1.0  0.93959  0.80679  0.82502  1.0000
  C   C19       1.0  0.28221  0.93222  0.16770  1.0000
  C   C20       1.0  0.06777  0.71779  0.83230  1.0000
  C   C21       1.0  0.34053  0.85941  0.26395  1.0000
  C   C22       1.0  0.14058  0.65947  0.73605  1.0000
  C   C23       1.0  0.30825  0.91571  0.36608  1.0000
  C   C24       1.0  0.08429  0.69175  0.63392  1.0000
  C   C25       1.0  0.40772  0.70417  0.47962  1.0000
  C   C26       1.0  0.29583  0.59228  0.52039  1.0000
  C   C27       1.0  0.55899  0.66368  0.45907  1.0000
  C   C28       1.0  0.33632  0.44101  0.54093  1.0000
  C   C29       1.0  0.59976  0.51176  0.47937  1.0000
  C   C30       1.0  0.48824  0.40024  0.52064  1.0000
  Br  Br1       1.0  0.32132  0.37266  0.91753  1.0000
  Br  Br2       1.0  0.62735  0.67869  0.08247  1.0000
  N   N1        1.0  0.74332  0.39549  0.85902  1.0000
  N   N2        1.0  0.60451  0.25669  0.14098  1.0000
  N   N3        1.0  0.05829  0.17371  0.64436  1.0000
  N   N4        1.0  0.82629  0.94171  0.35564  1.0000
  N   N5        1.0  0.18329  0.08197  0.48593  1.0000
  N   N6        1.0  0.91802  0.81671  0.51407  1.0000
  O   O1        1.0  0.99592  0.26014  0.46398  1.0000
  O   O2        1.0  0.73986  0.00408  0.53601  1.0000
  O   O3        1.0  0.36720  0.85539  0.46459  1.0000
  O   O4        1.0  0.14461  0.63281  0.53541  1.0000
