data_image0
_chemical_formula_structural       Cu4H48C28N4O14
_chemical_formula_sum              "Cu4 H48 C28 N4 O14"
_cell_length_a       8.07018
_cell_length_b       9.52904
_cell_length_c       13.1076
_cell_angle_alpha    70.1559
_cell_angle_beta     87.1283
_cell_angle_gamma    89.4943

_space_group_name_H-M_alt    "P 1"
_space_group_IT_number       1

loop_
  _space_group_symop_operation_xyz
  'x, y, z'

loop_
  _atom_site_type_symbol
  _atom_site_label
  _atom_site_symmetry_multiplicity
  _atom_site_fract_x
  _atom_site_fract_y
  _atom_site_fract_z
  _atom_site_occupancy
  Cu  Cu1       1.0  0.49013  0.33852  0.48166  1.0000
  Cu  Cu2       1.0  0.50987  0.66147  0.51834  1.0000
  Cu  Cu3       1.0  0.53731  0.49017  0.09552  1.0000
  Cu  Cu4       1.0  0.46267  0.50983  0.90447  1.0000
  H   H1        1.0  0.55724  0.90970  0.72894  1.0000
  H   H2        1.0  0.44276  0.09030  0.27108  1.0000
  H   H3        1.0  0.13282  0.37621  0.52121  1.0000
  H   H4        1.0  0.86719  0.62378  0.47880  1.0000
  H   H5        1.0  0.09422  0.11417  0.53607  1.0000
  H   H6        1.0  0.90579  0.88582  0.46393  1.0000
  H   H7        1.0  0.20659  0.14556  0.41000  1.0000
  H   H8        1.0  0.79342  0.85444  0.58999  1.0000
  H   H9        1.0  0.36922  0.97515  0.99317  1.0000
  H   H10       1.0  0.63076  0.02487  0.00681  1.0000
  H   H11       1.0  0.27771  0.96650  0.87329  1.0000
  H   H12       1.0  0.72225  0.03348  0.12670  1.0000
  H   H13       1.0  0.17281  0.88911  0.00392  1.0000
  H   H14       1.0  0.82718  0.11090  0.99607  1.0000
  H   H15       1.0  0.94833  0.77064  0.79504  1.0000
  H   H16       1.0  0.05164  0.22935  0.20496  1.0000
  H   H17       1.0  0.04339  0.60977  0.88501  1.0000
  H   H18       1.0  0.95660  0.39023  0.11497  1.0000
  H   H19       1.0  0.98861  0.75921  0.93095  1.0000
  H   H20       1.0  0.01141  0.24080  0.06903  1.0000
  H   H21       1.0  0.16294  0.91761  0.67103  1.0000
  H   H22       1.0  0.83706  0.08238  0.32898  1.0000
  H   H23       1.0  0.33792  0.79950  0.68631  1.0000
  H   H24       1.0  0.66209  0.20051  0.31370  1.0000
  H   H25       1.0  0.25388  0.88302  0.55624  1.0000
  H   H26       1.0  0.74612  0.11698  0.44377  1.0000
  H   H27       1.0  0.79089  0.17727  0.77922  1.0000
  H   H28       1.0  0.20911  0.82274  0.22078  1.0000
  H   H29       1.0  0.91755  0.11422  0.68943  1.0000
  H   H30       1.0  0.08244  0.88577  0.31059  1.0000
  H   H31       1.0  0.79020  0.98378  0.79405  1.0000
  H   H32       1.0  0.20977  0.01623  0.20596  1.0000
  H   H33       1.0  0.80469  0.74124  0.28775  1.0000
  H   H34       1.0  0.19531  0.25874  0.71226  1.0000
  H   H35       1.0  0.61943  0.78031  0.21651  1.0000
  H   H36       1.0  0.38058  0.21968  0.78349  1.0000
  H   H37       1.0  0.78711  0.69924  0.16391  1.0000
  H   H38       1.0  0.21289  0.30076  0.83609  1.0000
  H   H39       1.0  0.88501  0.33146  0.43183  1.0000
  H   H40       1.0  0.11501  0.66853  0.56819  1.0000
  H   H41       1.0  0.00680  0.35408  0.30954  1.0000
  H   H42       1.0  0.99320  0.64591  0.69048  1.0000
  H   H43       1.0  0.97521  0.50670  0.35631  1.0000
  H   H44       1.0  0.02478  0.49330  0.64370  1.0000
  H   H45       1.0  0.29215  0.54146  0.38278  1.0000
  H   H46       1.0  0.70786  0.45854  0.61722  1.0000
  H   H47       1.0  0.31483  0.42461  0.31195  1.0000
  H   H48       1.0  0.68518  0.57538  0.68805  1.0000
  C   C1        1.0  0.39346  0.03484  0.60793  1.0000
  C   C2        1.0  0.60655  0.96516  0.39208  1.0000
  C   C3        1.0  0.54027  0.01839  0.66724  1.0000
  C   C4        1.0  0.45972  0.98162  0.33277  1.0000
  C   C5        1.0  0.65785  0.12848  0.65768  1.0000
  C   C6        1.0  0.34215  0.87153  0.34233  1.0000
  C   C7        1.0  0.65064  0.54997  0.30333  1.0000
  C   C8        1.0  0.34937  0.45003  0.69667  1.0000
  C   C9        1.0  0.14995  0.34677  0.44720  1.0000
  C   C10       1.0  0.85006  0.65322  0.55281  1.0000
  C   C11       1.0  0.19461  0.18139  0.48204  1.0000
  C   C12       1.0  0.80539  0.81861  0.51796  1.0000
  C   C13       1.0  0.37439  0.75736  0.97617  1.0000
  C   C14       1.0  0.62560  0.24265  0.02381  1.0000
  C   C15       1.0  0.29445  0.90742  0.95957  1.0000
  C   C16       1.0  0.70554  0.09259  0.04042  1.0000
  C   C17       1.0  0.78261  0.62498  0.91992  1.0000
  C   C18       1.0  0.21739  0.37502  0.08007  1.0000
  C   C19       1.0  0.95046  0.69677  0.87960  1.0000
  C   C20       1.0  0.04955  0.30322  0.12039  1.0000
  C   C21       1.0  0.28201  0.90055  0.63221  1.0000
  C   C22       1.0  0.71800  0.09945  0.36779  1.0000
  C   C23       1.0  0.79683  0.09733  0.73511  1.0000
  C   C24       1.0  0.20316  0.90268  0.26490  1.0000
  C   C25       1.0  0.72283  0.70169  0.23886  1.0000
  C   C26       1.0  0.27718  0.29831  0.76114  1.0000
  C   C27       1.0  0.99528  0.38588  0.38246  1.0000
  C   C28       1.0  0.00473  0.61412  0.61755  1.0000
  N   N1        1.0  0.35199  0.16220  0.53526  1.0000
  N   N2        1.0  0.64801  0.83780  0.46475  1.0000
  N   N3        1.0  0.29820  0.43118  0.38840  1.0000
  N   N4        1.0  0.70180  0.56882  0.61161  1.0000
  O   O1        1.0  0.66181  0.26263  0.58623  1.0000
  O   O2        1.0  0.33821  0.73737  0.41378  1.0000
  O   O3        1.0  0.63045  0.51841  0.40714  1.0000
  O   O4        1.0  0.36957  0.48160  0.59285  1.0000
  O   O5        1.0  0.60969  0.46012  0.25718  1.0000
  O   O6        1.0  0.39031  0.53987  0.74282  1.0000
  O   O7        1.0  0.43302  0.69066  0.06862  1.0000
  O   O8        1.0  0.56697  0.30936  0.93137  1.0000
  O   O9        1.0  0.37426  0.70945  0.89651  1.0000
  O   O10       1.0  0.62572  0.29055  0.10347  1.0000
  O   O11       1.0  0.75008  0.58738  0.02188  1.0000
  O   O12       1.0  0.24994  0.41264  0.97810  1.0000
  O   O13       1.0  0.68744  0.60601  0.85062  1.0000
  O   O14       1.0  0.31255  0.39398  0.14937  1.0000
