data_image0
_chemical_formula_structural       CoH28C26N6O6
_chemical_formula_sum              "Co1 H28 C26 N6 O6"
_cell_length_a       8.88099
_cell_length_b       9.82165
_cell_length_c       11.2998
_cell_angle_alpha    63.8068
_cell_angle_beta     87.9618
_cell_angle_gamma    71.7514

_space_group_name_H-M_alt    "P 1"
_space_group_IT_number       1

loop_
  _space_group_symop_operation_xyz
  'x, y, z'

loop_
  _atom_site_type_symbol
  _atom_site_label
  _atom_site_symmetry_multiplicity
  _atom_site_fract_x
  _atom_site_fract_y
  _atom_site_fract_z
  _atom_site_occupancy
  Co  Co1       1.0  0.50000  0.50000  0.50000  1.0000
  H   H1        1.0  0.25704  0.93619  0.82832  1.0000
  H   H2        1.0  0.74295  0.06382  0.17168  1.0000
  H   H3        1.0  0.06832  0.00548  0.87592  1.0000
  H   H4        1.0  0.93166  0.99452  0.12408  1.0000
  H   H5        1.0  0.03329  0.73693  0.94363  1.0000
  H   H6        1.0  0.96672  0.26307  0.05638  1.0000
  H   H7        1.0  0.22087  0.66898  0.89271  1.0000
  H   H8        1.0  0.77913  0.33102  0.10729  1.0000
  H   H9        1.0  0.59462  0.60646  0.23249  1.0000
  H   H10       1.0  0.40539  0.39355  0.76751  1.0000
  H   H11       1.0  0.46931  0.69227  0.00689  1.0000
  H   H12       1.0  0.53069  0.30774  0.99311  1.0000
  H   H13       1.0  0.02399  0.68637  0.17393  1.0000
  H   H14       1.0  0.97602  0.31363  0.82607  1.0000
  H   H15       1.0  0.16539  0.59796  0.38904  1.0000
  H   H16       1.0  0.83462  0.40205  0.61096  1.0000
  H   H17       1.0  0.93560  0.97164  0.70367  1.0000
  H   H18       1.0  0.06440  0.02836  0.29633  1.0000
  H   H19       1.0  0.04956  0.10257  0.63529  1.0000
  H   H20       1.0  0.95043  0.89743  0.36471  1.0000
  H   H21       1.0  0.16573  0.55707  0.58100  1.0000
  H   H22       1.0  0.83427  0.44293  0.41900  1.0000
  H   H23       1.0  0.98833  0.74205  0.65485  1.0000
  H   H24       1.0  0.01167  0.25794  0.34516  1.0000
  H   H25       1.0  0.34420  0.97486  0.59393  1.0000
  H   H26       1.0  0.65579  0.02514  0.40607  1.0000
  H   H27       1.0  0.50896  0.78158  0.51706  1.0000
  H   H28       1.0  0.49103  0.21843  0.48294  1.0000
  C   C1        1.0  0.13770  0.92339  0.83673  1.0000
  C   C2        1.0  0.86229  0.07661  0.16327  1.0000
  C   C3        1.0  0.15275  0.74925  0.93423  1.0000
  C   C4        1.0  0.84725  0.25075  0.06577  1.0000
  C   C5        1.0  0.46927  0.62256  0.21489  1.0000
  C   C6        1.0  0.53073  0.37745  0.78511  1.0000
  C   C7        1.0  0.39706  0.67243  0.08923  1.0000
  C   C8        1.0  0.60294  0.32758  0.91077  1.0000
  C   C9        1.0  0.23396  0.69594  0.06893  1.0000
  C   C10       1.0  0.76605  0.30406  0.93107  1.0000
  C   C11       1.0  0.15126  0.66965  0.18010  1.0000
  C   C12       1.0  0.84876  0.33036  0.81990  1.0000
  C   C13       1.0  0.23116  0.61834  0.30361  1.0000
  C   C14       1.0  0.76885  0.38167  0.69639  1.0000
  C   C15       1.0  0.05784  0.97674  0.69757  1.0000
  C   C16       1.0  0.94215  0.02325  0.30243  1.0000
  C   C17       1.0  0.20206  0.65262  0.58167  1.0000
  C   C18       1.0  0.79794  0.34737  0.41833  1.0000
  C   C19       1.0  0.10366  0.75559  0.62749  1.0000
  C   C20       1.0  0.89633  0.24440  0.37251  1.0000
  C   C21       1.0  0.15220  0.87336  0.63662  1.0000
  C   C22       1.0  0.84780  0.12664  0.36339  1.0000
  C   C23       1.0  0.29992  0.88349  0.59315  1.0000
  C   C24       1.0  0.70007  0.11650  0.40685  1.0000
  C   C25       1.0  0.39217  0.77790  0.54752  1.0000
  C   C26       1.0  0.60783  0.22211  0.45248  1.0000
  N   N1        1.0  0.38854  0.59280  0.32271  1.0000
  N   N2        1.0  0.61147  0.40721  0.67728  1.0000
  N   N3        1.0  0.34603  0.66116  0.54265  1.0000
  N   N4        1.0  0.65397  0.33884  0.45735  1.0000
  N   N5        1.0  0.76660  0.69703  0.42880  1.0000
  N   N6        1.0  0.23340  0.30297  0.57120  1.0000
  O   O1        1.0  0.64224  0.67750  0.39185  1.0000
  O   O2        1.0  0.35776  0.32251  0.60815  1.0000
  O   O3        1.0  0.76300  0.73783  0.52049  1.0000
  O   O4        1.0  0.23700  0.26217  0.47950  1.0000
  O   O5        1.0  0.88967  0.67438  0.37140  1.0000
  O   O6        1.0  0.11034  0.32559  0.62861  1.0000
