data_image0
_chemical_formula_structural       CdH28C26N6O6
_chemical_formula_sum              "Cd1 H28 C26 N6 O6"
_cell_length_a       8.89379
_cell_length_b       9.99553
_cell_length_c       11.8272
_cell_angle_alpha    61.9561
_cell_angle_beta     87.4097
_cell_angle_gamma    73.2167

_space_group_name_H-M_alt    "P 1"
_space_group_IT_number       1

loop_
  _space_group_symop_operation_xyz
  'x, y, z'

loop_
  _atom_site_type_symbol
  _atom_site_label
  _atom_site_symmetry_multiplicity
  _atom_site_fract_x
  _atom_site_fract_y
  _atom_site_fract_z
  _atom_site_occupancy
  Cd  Cd1       1.0  0.50000  0.50000  0.50000  1.0000
  H   H1        1.0  0.22659  0.94438  0.82340  1.0000
  H   H2        1.0  0.77342  0.05562  0.17660  1.0000
  H   H3        1.0  0.03942  0.00335  0.87142  1.0000
  H   H4        1.0  0.96058  0.99665  0.12858  1.0000
  H   H5        1.0  0.00771  0.73501  0.94075  1.0000
  H   H6        1.0  0.99228  0.26500  0.05925  1.0000
  H   H7        1.0  0.19149  0.67666  0.88633  1.0000
  H   H8        1.0  0.80850  0.32334  0.11367  1.0000
  H   H9        1.0  0.57469  0.59267  0.20878  1.0000
  H   H10       1.0  0.42531  0.40733  0.79122  1.0000
  H   H11       1.0  0.44423  0.67745  0.99272  1.0000
  H   H12       1.0  0.55577  0.32255  0.00727  1.0000
  H   H13       1.0  0.00010  0.70085  0.15923  1.0000
  H   H14       1.0  0.99991  0.29915  0.84077  1.0000
  H   H15       1.0  0.14702  0.61514  0.36514  1.0000
  H   H16       1.0  0.85299  0.38487  0.63486  1.0000
  H   H17       1.0  0.90909  0.97411  0.70584  1.0000
  H   H18       1.0  0.09091  0.02590  0.29416  1.0000
  H   H19       1.0  0.02488  0.10628  0.63742  1.0000
  H   H20       1.0  0.97512  0.89372  0.36257  1.0000
  H   H21       1.0  0.13871  0.56590  0.59480  1.0000
  H   H22       1.0  0.86129  0.43409  0.40520  1.0000
  H   H23       1.0  0.96372  0.74142  0.67154  1.0000
  H   H24       1.0  0.03628  0.25858  0.32847  1.0000
  H   H25       1.0  0.30488  0.99962  0.58367  1.0000
  H   H26       1.0  0.69512  0.00037  0.41633  1.0000
  H   H27       1.0  0.46801  0.81291  0.50893  1.0000
  H   H28       1.0  0.53199  0.18709  0.49107  1.0000
  C   C1        1.0  0.10921  0.92644  0.83299  1.0000
  C   C2        1.0  0.89079  0.07355  0.16701  1.0000
  C   C3        1.0  0.12571  0.75142  0.92809  1.0000
  C   C4        1.0  0.87429  0.24858  0.07192  1.0000
  C   C5        1.0  0.44756  0.61713  0.19289  1.0000
  C   C6        1.0  0.55244  0.38287  0.80711  1.0000
  C   C7        1.0  0.37378  0.66522  0.07306  1.0000
  C   C8        1.0  0.62622  0.33479  0.92694  1.0000
  C   C9        1.0  0.20956  0.69686  0.05662  1.0000
  C   C10       1.0  0.79044  0.30314  0.94339  1.0000
  C   C11       1.0  0.12768  0.67872  0.16416  1.0000
  C   C12       1.0  0.87232  0.32129  0.83585  1.0000
  C   C13       1.0  0.21009  0.62966  0.28109  1.0000
  C   C14       1.0  0.78991  0.37034  0.71891  1.0000
  C   C15       1.0  0.03064  0.98109  0.69872  1.0000
  C   C16       1.0  0.96937  0.01891  0.30128  1.0000
  C   C17       1.0  0.17228  0.66333  0.59344  1.0000
  C   C18       1.0  0.82772  0.33667  0.40656  1.0000
  C   C19       1.0  0.07593  0.76064  0.63886  1.0000
  C   C20       1.0  0.92407  0.23936  0.36114  1.0000
  C   C21       1.0  0.12271  0.88228  0.64007  1.0000
  C   C22       1.0  0.87729  0.11772  0.35993  1.0000
  C   C23       1.0  0.26513  0.90306  0.59002  1.0000
  C   C24       1.0  0.73487  0.09694  0.40998  1.0000
  C   C25       1.0  0.35486  0.80196  0.54562  1.0000
  C   C26       1.0  0.64514  0.19803  0.45438  1.0000
  N   N1        1.0  0.36732  0.59890  0.29587  1.0000
  N   N2        1.0  0.63268  0.40110  0.70413  1.0000
  N   N3        1.0  0.31067  0.68229  0.54832  1.0000
  N   N4        1.0  0.68932  0.31771  0.45168  1.0000
  N   N5        1.0  0.75695  0.70109  0.42357  1.0000
  N   N6        1.0  0.24304  0.29892  0.57642  1.0000
  O   O1        1.0  0.63849  0.68542  0.37655  1.0000
  O   O2        1.0  0.36150  0.31458  0.62345  1.0000
  O   O3        1.0  0.74109  0.73342  0.51516  1.0000
  O   O4        1.0  0.25890  0.26661  0.48482  1.0000
  O   O5        1.0  0.88536  0.68447  0.37505  1.0000
  O   O6        1.0  0.11464  0.31552  0.62496  1.0000
