data_image0
_chemical_formula_structural       Ni4H32C20N8O28
_chemical_formula_sum              "Ni4 H32 C20 N8 O28"
_cell_length_a       7.74951
_cell_length_b       7.5526
_cell_length_c       14.6184
_cell_angle_alpha    89.9999
_cell_angle_beta     89.9999
_cell_angle_gamma    90

_space_group_name_H-M_alt    "P 1"
_space_group_IT_number       1

loop_
  _space_group_symop_operation_xyz
  'x, y, z'

loop_
  _atom_site_type_symbol
  _atom_site_label
  _atom_site_symmetry_multiplicity
  _atom_site_fract_x
  _atom_site_fract_y
  _atom_site_fract_z
  _atom_site_occupancy
  Ni  Ni1       1.0  0.81676  0.12353  0.82203  1.0000
  Ni  Ni2       1.0  0.68324  0.87647  0.32203  1.0000
  Ni  Ni3       1.0  0.31676  0.37647  0.17797  1.0000
  Ni  Ni4       1.0  0.18324  0.62353  0.67797  1.0000
  H   H1        1.0  0.48781  0.14391  0.75999  1.0000
  H   H2        1.0  0.01220  0.85609  0.25999  1.0000
  H   H3        1.0  0.98781  0.35609  0.24001  1.0000
  H   H4        1.0  0.51220  0.64391  0.74001  1.0000
  H   H5        1.0  0.48577  0.19411  0.86826  1.0000
  H   H6        1.0  0.01424  0.80589  0.36826  1.0000
  H   H7        1.0  0.98577  0.30589  0.13174  1.0000
  H   H8        1.0  0.51424  0.69411  0.63174  1.0000
  H   H9        1.0  0.13736  0.15406  0.78105  1.0000
  H   H10       1.0  0.36264  0.84594  0.28105  1.0000
  H   H11       1.0  0.63736  0.34594  0.21895  1.0000
  H   H12       1.0  0.86264  0.65406  0.71895  1.0000
  H   H13       1.0  0.10957  0.95152  0.81096  1.0000
  H   H14       1.0  0.39043  0.04847  0.31096  1.0000
  H   H15       1.0  0.60956  0.54847  0.18904  1.0000
  H   H16       1.0  0.89043  0.45153  0.68904  1.0000
  H   H17       1.0  0.76635  0.45055  0.86175  1.0000
  H   H18       1.0  0.73365  0.54945  0.36175  1.0000
  H   H19       1.0  0.26635  0.04945  0.13825  1.0000
  H   H20       1.0  0.23365  0.95055  0.63825  1.0000
  H   H21       1.0  0.88006  0.34759  0.93596  1.0000
  H   H22       1.0  0.61995  0.65241  0.43596  1.0000
  H   H23       1.0  0.38005  0.15241  0.06404  1.0000
  H   H24       1.0  0.11995  0.84759  0.56404  1.0000
  H   H25       1.0  0.72264  0.92187  0.67043  1.0000
  H   H26       1.0  0.77735  0.07813  0.17043  1.0000
  H   H27       1.0  0.22264  0.57813  0.32957  1.0000
  H   H28       1.0  0.27736  0.42187  0.82957  1.0000
  H   H29       1.0  0.87743  0.37454  0.52251  1.0000
  H   H30       1.0  0.62256  0.62547  0.02251  1.0000
  H   H31       1.0  0.37743  0.12546  0.47749  1.0000
  H   H32       1.0  0.12257  0.87453  0.97749  1.0000
  C   C1        1.0  0.68879  0.89978  0.53050  1.0000
  C   C2        1.0  0.81120  0.10022  0.03049  1.0000
  C   C3        1.0  0.18880  0.60022  0.46951  1.0000
  C   C4        1.0  0.31121  0.39978  0.96950  1.0000
  C   C5        1.0  0.80428  0.15590  0.61220  1.0000
  C   C6        1.0  0.69571  0.84410  0.11220  1.0000
  C   C7        1.0  0.30429  0.34410  0.38780  1.0000
  C   C8        1.0  0.19572  0.65590  0.88780  1.0000
  C   C9        1.0  0.82730  0.24045  0.52603  1.0000
  C   C10       1.0  0.67270  0.75956  0.02602  1.0000
  C   C11       1.0  0.32730  0.25955  0.47397  1.0000
  C   C12       1.0  0.17270  0.74044  0.97397  1.0000
  C   C13       1.0  0.78385  0.14676  0.44873  1.0000
  C   C14       1.0  0.71614  0.85325  0.94873  1.0000
  C   C15       1.0  0.28385  0.35324  0.55127  1.0000
  C   C16       1.0  0.21615  0.64675  0.05127  1.0000
  C   C17       1.0  0.80291  0.22641  0.35462  1.0000
  C   C18       1.0  0.69709  0.77359  0.85462  1.0000
  C   C19       1.0  0.30292  0.27359  0.64538  1.0000
  C   C20       1.0  0.19708  0.72641  0.14538  1.0000
  N   N1        1.0  0.71680  0.98094  0.44920  1.0000
  N   N2        1.0  0.78320  0.01906  0.94920  1.0000
  N   N3        1.0  0.21681  0.51906  0.55080  1.0000
  N   N4        1.0  0.28320  0.48094  0.05080  1.0000
  N   N5        1.0  0.73676  0.98791  0.60909  1.0000
  N   N6        1.0  0.76324  0.01210  0.10909  1.0000
  N   N7        1.0  0.23676  0.51209  0.39091  1.0000
  N   N8        1.0  0.26325  0.48791  0.89091  1.0000
  O   O1        1.0  0.55915  0.18391  0.81236  1.0000
  O   O2        1.0  0.94086  0.81609  0.31236  1.0000
  O   O3        1.0  0.05914  0.31609  0.18764  1.0000
  O   O4        1.0  0.44086  0.68392  0.68764  1.0000
  O   O5        1.0  0.07960  0.07684  0.82549  1.0000
  O   O6        1.0  0.42040  0.92315  0.32549  1.0000
  O   O7        1.0  0.57960  0.42315  0.17451  1.0000
  O   O8        1.0  0.92040  0.57685  0.67451  1.0000
  O   O9        1.0  0.87004  0.37507  0.86881  1.0000
  O   O10       1.0  0.62996  0.62493  0.36881  1.0000
  O   O11       1.0  0.37004  0.12493  0.13119  1.0000
  O   O12       1.0  0.12996  0.87508  0.63119  1.0000
  O   O13       1.0  0.62114  0.74746  0.53661  1.0000
  O   O14       1.0  0.87886  0.25254  0.03661  1.0000
  O   O15       1.0  0.12114  0.75254  0.46339  1.0000
  O   O16       1.0  0.37886  0.24746  0.96339  1.0000
  O   O17       1.0  0.84244  0.22601  0.68890  1.0000
  O   O18       1.0  0.65755  0.77399  0.18890  1.0000
  O   O19       1.0  0.34244  0.27398  0.31110  1.0000
  O   O20       1.0  0.15756  0.72601  0.81110  1.0000
  O   O21       1.0  0.73739  0.13780  0.28805  1.0000
  O   O22       1.0  0.76261  0.86220  0.78805  1.0000
  O   O23       1.0  0.23739  0.36220  0.71195  1.0000
  O   O24       1.0  0.26261  0.63780  0.21195  1.0000
  O   O25       1.0  0.87676  0.37396  0.34491  1.0000
  O   O26       1.0  0.62324  0.62604  0.84491  1.0000
  O   O27       1.0  0.37676  0.12604  0.65509  1.0000
  O   O28       1.0  0.12324  0.87396  0.15509  1.0000
