data_image0
_chemical_formula_structural       U2H8C10N4O14
_chemical_formula_sum              "U2 H8 C10 N4 O14"
_cell_length_a       5.69661
_cell_length_b       8.94224
_cell_length_c       9.84223
_cell_angle_alpha    99.9365
_cell_angle_beta     97.8361
_cell_angle_gamma    114.518

_space_group_name_H-M_alt    "P 1"
_space_group_IT_number       1

loop_
  _space_group_symop_operation_xyz
  'x, y, z'

loop_
  _atom_site_type_symbol
  _atom_site_label
  _atom_site_symmetry_multiplicity
  _atom_site_fract_x
  _atom_site_fract_y
  _atom_site_fract_z
  _atom_site_occupancy
  U   U1        1.0  0.99891  0.78542  0.43258  1.0000
  U   U2        1.0  0.00109  0.21458  0.56742  1.0000
  H   H1        1.0  0.36579  0.07746  0.64412  1.0000
  H   H2        1.0  0.63422  0.92254  0.35587  1.0000
  H   H3        1.0  0.22658  0.55226  0.06279  1.0000
  H   H4        1.0  0.77343  0.44774  0.93721  1.0000
  H   H5        1.0  0.86286  0.07496  0.12574  1.0000
  H   H6        1.0  0.13713  0.92504  0.87426  1.0000
  H   H7        1.0  0.26145  0.09673  0.25369  1.0000
  H   H8        1.0  0.73855  0.90327  0.74631  1.0000
  C   C1        1.0  0.73895  0.36976  0.32704  1.0000
  C   C2        1.0  0.26105  0.63024  0.67297  1.0000
  C   C3        1.0  0.49315  0.35044  0.23648  1.0000
  C   C4        1.0  0.50685  0.64956  0.76352  1.0000
  C   C5        1.0  0.48029  0.48726  0.18232  1.0000
  C   C6        1.0  0.51971  0.51274  0.81768  1.0000
  C   C7        1.0  0.00821  0.30441  0.07262  1.0000
  C   C8        1.0  0.99176  0.69559  0.92737  1.0000
  C   C9        1.0  0.26524  0.20189  0.21040  1.0000
  C   C10       1.0  0.73476  0.79811  0.78960  1.0000
  N   N1        1.0  0.23844  0.45212  0.09982  1.0000
  N   N2        1.0  0.76156  0.54788  0.90018  1.0000
  N   N3        1.0  0.03387  0.17961  0.13108  1.0000
  N   N4        1.0  0.96614  0.82039  0.86892  1.0000
  O   O1        1.0  0.71279  0.68907  0.50446  1.0000
  O   O2        1.0  0.28721  0.31093  0.49554  1.0000
  O   O3        1.0  0.27630  0.87382  0.34801  1.0000
  O   O4        1.0  0.72371  0.12618  0.65199  1.0000
  O   O5        1.0  0.95155  0.50856  0.34963  1.0000
  O   O6        1.0  0.04845  0.49144  0.65037  1.0000
  O   O7        1.0  0.72771  0.24513  0.37537  1.0000
  O   O8        1.0  0.27229  0.75487  0.62463  1.0000
  O   O9        1.0  0.66662  0.63437  0.20324  1.0000
  O   O10       1.0  0.33338  0.36563  0.79676  1.0000
  O   O11       1.0  0.79243  0.28188  0.00326  1.0000
  O   O12       1.0  0.20758  0.71812  0.99674  1.0000
  O   O13       1.0  0.16993  0.02935  0.62280  1.0000
  O   O14       1.0  0.83007  0.97065  0.37720  1.0000
