data_image0
_chemical_formula_structural       Tb6H38C60O46
_chemical_formula_sum              "Tb6 H38 C60 O46"
_cell_length_a       10.1206
_cell_length_b       12.1463
_cell_length_c       14.6988
_cell_angle_alpha    69.177
_cell_angle_beta     84.7722
_cell_angle_gamma    75.6216

_space_group_name_H-M_alt    "P 1"
_space_group_IT_number       1

loop_
  _space_group_symop_operation_xyz
  'x, y, z'

loop_
  _atom_site_type_symbol
  _atom_site_label
  _atom_site_symmetry_multiplicity
  _atom_site_fract_x
  _atom_site_fract_y
  _atom_site_fract_z
  _atom_site_occupancy
  Tb  Tb1       1.0  0.74807  0.98519  0.40133  1.0000
  Tb  Tb2       1.0  0.25193  0.01482  0.59867  1.0000
  Tb  Tb3       1.0  0.85982  0.48005  0.28332  1.0000
  Tb  Tb4       1.0  0.14018  0.51995  0.71668  1.0000
  Tb  Tb5       1.0  0.99420  0.78842  0.04848  1.0000
  Tb  Tb6       1.0  0.00580  0.21158  0.95152  1.0000
  H   H1        1.0  0.21849  0.29993  0.34873  1.0000
  H   H2        1.0  0.78151  0.70007  0.65128  1.0000
  H   H3        1.0  0.38508  0.54783  0.10617  1.0000
  H   H4        1.0  0.61492  0.45217  0.89384  1.0000
  H   H5        1.0  0.59450  0.39075  0.11526  1.0000
  H   H6        1.0  0.40550  0.60925  0.88474  1.0000
  H   H7        1.0  0.78183  0.27155  0.17833  1.0000
  H   H8        1.0  0.21817  0.72845  0.82167  1.0000
  H   H9        1.0  0.70289  0.23187  0.09385  1.0000
  H   H10       1.0  0.29711  0.76813  0.90615  1.0000
  H   H11       1.0  0.50980  0.80206  0.45514  1.0000
  H   H12       1.0  0.49020  0.19794  0.54486  1.0000
  H   H13       1.0  0.46159  0.48006  0.68968  1.0000
  H   H14       1.0  0.53841  0.51994  0.31032  1.0000
  H   H15       1.0  0.66806  0.36347  0.63916  1.0000
  H   H16       1.0  0.33194  0.63653  0.36084  1.0000
  H   H17       1.0  0.80703  0.27667  0.57751  1.0000
  H   H18       1.0  0.19297  0.72333  0.42249  1.0000
  H   H19       1.0  0.92999  0.34477  0.60277  1.0000
  H   H20       1.0  0.07001  0.65523  0.39723  1.0000
  H   H21       1.0  0.43484  0.75190  0.12539  1.0000
  H   H22       1.0  0.56516  0.24810  0.87461  1.0000
  H   H23       1.0  0.38796  0.03415  0.84419  1.0000
  H   H24       1.0  0.61205  0.96585  0.15581  1.0000
  H   H25       1.0  0.63550  0.96573  0.80998  1.0000
  H   H26       1.0  0.36450  0.03427  0.19002  1.0000
  H   H27       1.0  0.84589  0.79328  0.79128  1.0000
  H   H28       1.0  0.15411  0.20671  0.20872  1.0000
  H   H29       1.0  0.78361  0.66969  0.87545  1.0000
  H   H30       1.0  0.21639  0.33031  0.12455  1.0000
  H   H31       1.0  0.03674  0.02651  0.39560  1.0000
  H   H32       1.0  0.96326  0.97349  0.60440  1.0000
  H   H33       1.0  0.95422  0.15957  0.38288  1.0000
  H   H34       1.0  0.04577  0.84043  0.61712  1.0000
  H   H35       1.0  0.90916  0.74463  0.24946  1.0000
  H   H36       1.0  0.09085  0.25537  0.75054  1.0000
  H   H37       1.0  0.94205  0.87241  0.22183  1.0000
  H   H38       1.0  0.05795  0.12759  0.77817  1.0000
  C   C1        1.0  0.52382  0.25150  0.23474  1.0000
  C   C2        1.0  0.47618  0.74850  0.76526  1.0000
  C   C3        1.0  0.41602  0.22524  0.30224  1.0000
  C   C4        1.0  0.58398  0.77476  0.69776  1.0000
  C   C5        1.0  0.30118  0.31944  0.29725  1.0000
  C   C6        1.0  0.69882  0.68056  0.70275  1.0000
  C   C7        1.0  0.28830  0.43445  0.22724  1.0000
  C   C8        1.0  0.71170  0.56555  0.77276  1.0000
  C   C9        1.0  0.39461  0.45781  0.16066  1.0000
  C   C10       1.0  0.60538  0.54219  0.83935  1.0000
  C   C11       1.0  0.51134  0.36796  0.16493  1.0000
  C   C12       1.0  0.48866  0.63205  0.83507  1.0000
  C   C13       1.0  0.74522  0.19919  0.16745  1.0000
  C   C14       1.0  0.25478  0.80082  0.83255  1.0000
  C   C15       1.0  0.86312  0.09056  0.17776  1.0000
  C   C16       1.0  0.13688  0.90944  0.82224  1.0000
  C   C17       1.0  0.41561  0.10476  0.38007  1.0000
  C   C18       1.0  0.58440  0.89524  0.61993  1.0000
  C   C19       1.0  0.15994  0.52956  0.21685  1.0000
  C   C20       1.0  0.84006  0.47044  0.78315  1.0000
  C   C21       1.0  0.70260  0.51339  0.51167  1.0000
  C   C22       1.0  0.29740  0.48662  0.48833  1.0000
  C   C23       1.0  0.65876  0.63928  0.46131  1.0000
  C   C24       1.0  0.34124  0.36073  0.53869  1.0000
  C   C25       1.0  0.54150  0.70458  0.49292  1.0000
  C   C26       1.0  0.45850  0.29543  0.50708  1.0000
  C   C27       1.0  0.46623  0.64781  0.57206  1.0000
  C   C28       1.0  0.53377  0.35219  0.42794  1.0000
  C   C29       1.0  0.51419  0.52436  0.62399  1.0000
  C   C30       1.0  0.48581  0.47564  0.37601  1.0000
  C   C31       1.0  0.63225  0.45819  0.59524  1.0000
  C   C32       1.0  0.36775  0.54181  0.40476  1.0000
  C   C33       1.0  0.88127  0.33232  0.54434  1.0000
  C   C34       1.0  0.11873  0.66768  0.45566  1.0000
  C   C35       1.0  0.98269  0.26086  0.49157  1.0000
  C   C36       1.0  0.01731  0.73914  0.50843  1.0000
  C   C37       1.0  0.73259  0.70937  0.37726  1.0000
  C   C38       1.0  0.26742  0.29063  0.62274  1.0000
  C   C39       1.0  0.34268  0.71983  0.60490  1.0000
  C   C40       1.0  0.65732  0.28017  0.39510  1.0000
  C   C41       1.0  0.67395  0.82711  0.95101  1.0000
  C   C42       1.0  0.32605  0.17289  0.04899  1.0000
  C   C43       1.0  0.61997  0.76596  0.04141  1.0000
  C   C44       1.0  0.38003  0.23404  0.95859  1.0000
  C   C45       1.0  0.47909  0.80041  0.05694  1.0000
  C   C46       1.0  0.52091  0.19958  0.94306  1.0000
  C   C47       1.0  0.39574  0.89817  0.98738  1.0000
  C   C48       1.0  0.60426  0.10183  0.01262  1.0000
  C   C49       1.0  0.45285  0.95847  0.89855  1.0000
  C   C50       1.0  0.54715  0.04153  0.10145  1.0000
  C   C51       1.0  0.59079  0.92068  0.87944  1.0000
  C   C52       1.0  0.40921  0.07932  0.12056  1.0000
  C   C53       1.0  0.85193  0.73031  0.86696  1.0000
  C   C54       1.0  0.14808  0.26969  0.13304  1.0000
  C   C55       1.0  0.99707  0.65451  0.88899  1.0000
  C   C56       1.0  0.00293  0.34549  0.11101  1.0000
  C   C57       1.0  0.70800  0.66849  0.12066  1.0000
  C   C58       1.0  0.29200  0.33151  0.87934  1.0000
  C   C59       1.0  0.24538  0.93810  0.00541  1.0000
  C   C60       1.0  0.75462  0.06190  0.99459  1.0000
  O   O1        1.0  0.64205  0.16396  0.23950  1.0000
  O   O2        1.0  0.35795  0.83604  0.76049  1.0000
  O   O3        1.0  0.95425  0.10029  0.11301  1.0000
  O   O4        1.0  0.04575  0.89972  0.88699  1.0000
  O   O5        1.0  0.86291  0.99549  0.25128  1.0000
  O   O6        1.0  0.13709  0.00451  0.74872  1.0000
  O   O7        1.0  0.51755  0.01618  0.38739  1.0000
  O   O8        1.0  0.48245  0.98382  0.61261  1.0000
  O   O9        1.0  0.31042  0.09680  0.43489  1.0000
  O   O10       1.0  0.68958  0.90320  0.56511  1.0000
  O   O11       1.0  0.06951  0.51342  0.28429  1.0000
  O   O12       1.0  0.93049  0.48658  0.71571  1.0000
  O   O13       1.0  0.14636  0.61987  0.13906  1.0000
  O   O14       1.0  0.85364  0.38013  0.86095  1.0000
  O   O15       1.0  0.81503  0.44857  0.47674  1.0000
  O   O16       1.0  0.18497  0.55143  0.52326  1.0000
  O   O17       1.0  0.05317  0.16166  0.54587  1.0000
  O   O18       1.0  0.94682  0.83834  0.45413  1.0000
  O   O19       1.0  0.98486  0.29851  0.39930  1.0000
  O   O20       1.0  0.01514  0.70149  0.60070  1.0000
  O   O21       1.0  0.80330  0.65565  0.32167  1.0000
  O   O22       1.0  0.19670  0.34435  0.67834  1.0000
  O   O23       1.0  0.72183  0.81994  0.36318  1.0000
  O   O24       1.0  0.27817  0.18006  0.63681  1.0000
  O   O25       1.0  0.31930  0.83471  0.56764  1.0000
  O   O26       1.0  0.68070  0.16529  0.43236  1.0000
  O   O27       1.0  0.26767  0.66293  0.67010  1.0000
  O   O28       1.0  0.73233  0.33707  0.32990  1.0000
  O   O29       1.0  0.81295  0.79520  0.93390  1.0000
  O   O30       1.0  0.18705  0.20480  0.06610  1.0000
  O   O31       1.0  0.05035  0.60451  0.82734  1.0000
  O   O32       1.0  0.94965  0.39549  0.17266  1.0000
  O   O33       1.0  0.05584  0.64683  0.96341  1.0000
  O   O34       1.0  0.94416  0.35317  0.03659  1.0000
  O   O35       1.0  0.83573  0.66434  0.12571  1.0000
  O   O36       1.0  0.16427  0.33566  0.87429  1.0000
  O   O37       1.0  0.65561  0.58950  0.18519  1.0000
  O   O38       1.0  0.34439  0.41050  0.81481  1.0000
  O   O39       1.0  0.18438  0.85806  0.05909  1.0000
  O   O40       1.0  0.81562  0.14195  0.94091  1.0000
  O   O41       1.0  0.18819  0.04881  0.96309  1.0000
  O   O42       1.0  0.81182  0.95119  0.03691  1.0000
  O   O43       1.0  0.94571  0.07909  0.38612  1.0000
  O   O44       1.0  0.05429  0.92091  0.61388  1.0000
  O   O45       1.0  0.97141  0.79484  0.20887  1.0000
  O   O46       1.0  0.02859  0.20516  0.79113  1.0000
