data_image0
_chemical_formula_structural       Gd6H38C60O46
_chemical_formula_sum              "Gd6 H38 C60 O46"
_cell_length_a       10.1221
_cell_length_b       12.199
_cell_length_c       14.713
_cell_angle_alpha    69.1667
_cell_angle_beta     84.9149
_cell_angle_gamma    75.6544

_space_group_name_H-M_alt    "P 1"
_space_group_IT_number       1

loop_
  _space_group_symop_operation_xyz
  'x, y, z'

loop_
  _atom_site_type_symbol
  _atom_site_label
  _atom_site_symmetry_multiplicity
  _atom_site_fract_x
  _atom_site_fract_y
  _atom_site_fract_z
  _atom_site_occupancy
  Gd  Gd1       1.0  0.24733  0.48475  0.90155  1.0000
  Gd  Gd2       1.0  0.75267  0.51525  0.09845  1.0000
  Gd  Gd3       1.0  0.36092  0.97930  0.78436  1.0000
  Gd  Gd4       1.0  0.63908  0.02070  0.21563  1.0000
  Gd  Gd5       1.0  0.49469  0.28863  0.54887  1.0000
  Gd  Gd6       1.0  0.50532  0.71137  0.45113  1.0000
  H   H1        1.0  0.71880  0.80014  0.84749  1.0000
  H   H2        1.0  0.28120  0.19986  0.15251  1.0000
  H   H3        1.0  0.88795  0.04651  0.60669  1.0000
  H   H4        1.0  0.11205  0.95349  0.39331  1.0000
  H   H5        1.0  0.09640  0.88919  0.61605  1.0000
  H   H6        1.0  0.90360  0.11081  0.38396  1.0000
  H   H7        1.0  0.28239  0.76969  0.67840  1.0000
  H   H8        1.0  0.71761  0.23031  0.32160  1.0000
  H   H9        1.0  0.20285  0.73035  0.59415  1.0000
  H   H10       1.0  0.79715  0.26965  0.40585  1.0000
  H   H11       1.0  0.01195  0.30017  0.95640  1.0000
  H   H12       1.0  0.98805  0.69983  0.04360  1.0000
  H   H13       1.0  0.96045  0.98046  0.19024  1.0000
  H   H14       1.0  0.03955  0.01954  0.80976  1.0000
  H   H15       1.0  0.16645  0.86315  0.14065  1.0000
  H   H16       1.0  0.83355  0.13685  0.85935  1.0000
  H   H17       1.0  0.30001  0.77478  0.07431  1.0000
  H   H18       1.0  0.69999  0.22522  0.92569  1.0000
  H   H19       1.0  0.42192  0.83747  0.10763  1.0000
  H   H20       1.0  0.57808  0.16253  0.89237  1.0000
  H   H21       1.0  0.93494  0.25161  0.62549  1.0000
  H   H22       1.0  0.06506  0.74839  0.37451  1.0000
  H   H23       1.0  0.88869  0.53366  0.34499  1.0000
  H   H24       1.0  0.11131  0.46634  0.65501  1.0000
  H   H25       1.0  0.13595  0.46453  0.31085  1.0000
  H   H26       1.0  0.86405  0.53547  0.68915  1.0000
  H   H27       1.0  0.34436  0.29342  0.29179  1.0000
  H   H28       1.0  0.65564  0.70659  0.70821  1.0000
  H   H29       1.0  0.28336  0.16968  0.37580  1.0000
  H   H30       1.0  0.71664  0.83032  0.62420  1.0000
  H   H31       1.0  0.44839  0.66234  0.88282  1.0000
  H   H32       1.0  0.55161  0.33766  0.11718  1.0000
  H   H33       1.0  0.53478  0.52995  0.90040  1.0000
  H   H34       1.0  0.46522  0.47005  0.09960  1.0000
  H   H35       1.0  0.44171  0.37123  0.72316  1.0000
  H   H36       1.0  0.55829  0.62877  0.27684  1.0000
  H   H37       1.0  0.40949  0.24363  0.75080  1.0000
  H   H38       1.0  0.59051  0.75637  0.24920  1.0000
  C   C1        1.0  0.02434  0.75075  0.73464  1.0000
  C   C2        1.0  0.97566  0.24925  0.26536  1.0000
  C   C3        1.0  0.91613  0.72497  0.80153  1.0000
  C   C4        1.0  0.08387  0.27502  0.19847  1.0000
  C   C5        1.0  0.80176  0.81923  0.79633  1.0000
  C   C6        1.0  0.19824  0.18077  0.20367  1.0000
  C   C7        1.0  0.78980  0.93386  0.72665  1.0000
  C   C8        1.0  0.21020  0.06614  0.27335  1.0000
  C   C9        1.0  0.89651  0.95677  0.66074  1.0000
  C   C10       1.0  0.10349  0.04323  0.33926  1.0000
  C   C11       1.0  0.01281  0.86684  0.66521  1.0000
  C   C12       1.0  0.98719  0.13316  0.33479  1.0000
  C   C13       1.0  0.24542  0.69774  0.66766  1.0000
  C   C14       1.0  0.75458  0.30226  0.33234  1.0000
  C   C15       1.0  0.36304  0.58942  0.67792  1.0000
  C   C16       1.0  0.63696  0.41058  0.32208  1.0000
  C   C17       1.0  0.91479  0.60508  0.87905  1.0000
  C   C18       1.0  0.08521  0.39492  0.12095  1.0000
  C   C19       1.0  0.66220  0.02931  0.71631  1.0000
  C   C20       1.0  0.33780  0.97069  0.28369  1.0000
  C   C21       1.0  0.20249  0.01204  0.01345  1.0000
  C   C22       1.0  0.79751  0.98796  0.98656  1.0000
  C   C23       1.0  0.15987  0.13754  0.96304  1.0000
  C   C24       1.0  0.84013  0.86246  0.03696  1.0000
  C   C25       1.0  0.04294  0.20307  0.99423  1.0000
  C   C26       1.0  0.95707  0.79693  0.00578  1.0000
  C   C27       1.0  0.96671  0.14728  0.07279  1.0000
  C   C28       1.0  0.03329  0.85272  0.92721  1.0000
  C   C29       1.0  0.01350  0.02424  0.12482  1.0000
  C   C30       1.0  0.98650  0.97576  0.87518  1.0000
  C   C31       1.0  0.13131  0.95760  0.09663  1.0000
  C   C32       1.0  0.86869  0.04240  0.90337  1.0000
  C   C33       1.0  0.37655  0.82897  0.04593  1.0000
  C   C34       1.0  0.62345  0.17103  0.95407  1.0000
  C   C35       1.0  0.48101  0.75974  0.99360  1.0000
  C   C36       1.0  0.51900  0.24026  0.00641  1.0000
  C   C37       1.0  0.23392  0.20739  0.87934  1.0000
  C   C38       1.0  0.76608  0.79261  0.12067  1.0000
  C   C39       1.0  0.84353  0.22047  0.10446  1.0000
  C   C40       1.0  0.15647  0.77953  0.89554  1.0000
  C   C41       1.0  0.17406  0.32617  0.45166  1.0000
  C   C42       1.0  0.82593  0.67384  0.54834  1.0000
  C   C43       1.0  0.12007  0.26516  0.54186  1.0000
  C   C44       1.0  0.87993  0.73484  0.45814  1.0000
  C   C45       1.0  0.97935  0.29995  0.55723  1.0000
  C   C46       1.0  0.02065  0.70005  0.44277  1.0000
  C   C47       1.0  0.89623  0.39788  0.48786  1.0000
  C   C48       1.0  0.10377  0.60212  0.51214  1.0000
  C   C49       1.0  0.95343  0.45780  0.39920  1.0000
  C   C50       1.0  0.04657  0.54220  0.60080  1.0000
  C   C51       1.0  0.09110  0.41974  0.38015  1.0000
  C   C52       1.0  0.90889  0.58026  0.61985  1.0000
  C   C53       1.0  0.35140  0.23027  0.36727  1.0000
  C   C54       1.0  0.64860  0.76974  0.63273  1.0000
  C   C55       1.0  0.49691  0.15532  0.38861  1.0000
  C   C56       1.0  0.50309  0.84469  0.61138  1.0000
  C   C57       1.0  0.20805  0.16758  0.62100  1.0000
  C   C58       1.0  0.79195  0.83242  0.37900  1.0000
  C   C59       1.0  0.74616  0.43848  0.50576  1.0000
  C   C60       1.0  0.25384  0.56152  0.49425  1.0000
  O   O1        1.0  0.14220  0.66302  0.73956  1.0000
  O   O2        1.0  0.85780  0.33698  0.26044  1.0000
  O   O3        1.0  0.45400  0.59938  0.61327  1.0000
  O   O4        1.0  0.54600  0.40062  0.38673  1.0000
  O   O5        1.0  0.36283  0.49456  0.75116  1.0000
  O   O6        1.0  0.63717  0.50544  0.24884  1.0000
  O   O7        1.0  0.01574  0.51609  0.88638  1.0000
  O   O8        1.0  0.98426  0.48390  0.11362  1.0000
  O   O9        1.0  0.80978  0.59794  0.93387  1.0000
  O   O10       1.0  0.19022  0.40206  0.06613  1.0000
  O   O11       1.0  0.57167  0.01344  0.78335  1.0000
  O   O12       1.0  0.42833  0.98656  0.21665  1.0000
  O   O13       1.0  0.64932  0.11991  0.63900  1.0000
  O   O14       1.0  0.35068  0.88009  0.36100  1.0000
  O   O15       1.0  0.31454  0.94688  0.97910  1.0000
  O   O16       1.0  0.68546  0.05312  0.02090  1.0000
  O   O17       1.0  0.54963  0.65970  0.04749  1.0000
  O   O18       1.0  0.45036  0.34031  0.95251  1.0000
  O   O19       1.0  0.48733  0.80010  0.90153  1.0000
  O   O20       1.0  0.51267  0.19991  0.09847  1.0000
  O   O21       1.0  0.30482  0.15418  0.82379  1.0000
  O   O22       1.0  0.69518  0.84582  0.17621  1.0000
  O   O23       1.0  0.22289  0.31748  0.86538  1.0000
  O   O24       1.0  0.77711  0.68252  0.13462  1.0000
  O   O25       1.0  0.82284  0.33468  0.06738  1.0000
  O   O26       1.0  0.17717  0.66532  0.93262  1.0000
  O   O27       1.0  0.76588  0.16540  0.16818  1.0000
  O   O28       1.0  0.23412  0.83460  0.83182  1.0000
  O   O29       1.0  0.31292  0.29420  0.43461  1.0000
  O   O30       1.0  0.68708  0.70580  0.56539  1.0000
  O   O31       1.0  0.54954  0.10604  0.32668  1.0000
  O   O32       1.0  0.45046  0.89396  0.67332  1.0000
  O   O33       1.0  0.55651  0.14760  0.46274  1.0000
  O   O34       1.0  0.44349  0.85240  0.53726  1.0000
  O   O35       1.0  0.33565  0.16364  0.62645  1.0000
  O   O36       1.0  0.66435  0.83636  0.37354  1.0000
  O   O37       1.0  0.15558  0.08859  0.68496  1.0000
  O   O38       1.0  0.84442  0.91141  0.31503  1.0000
  O   O39       1.0  0.68478  0.35957  0.56003  1.0000
  O   O40       1.0  0.31522  0.64043  0.43997  1.0000
  O   O41       1.0  0.68950  0.54875  0.46268  1.0000
  O   O42       1.0  0.31049  0.45125  0.53732  1.0000
  O   O43       1.0  0.44310  0.58091  0.88764  1.0000
  O   O44       1.0  0.55690  0.41909  0.11236  1.0000
  O   O45       1.0  0.47143  0.29393  0.71033  1.0000
  O   O46       1.0  0.52857  0.70607  0.28967  1.0000
