data_image0
_chemical_formula_structural       Dy6H38C60O46
_chemical_formula_sum              "Dy6 H38 C60 O46"
_cell_length_a       10.123
_cell_length_b       12.1195
_cell_length_c       14.6594
_cell_angle_alpha    69.0419
_cell_angle_beta     84.6568
_cell_angle_gamma    75.5153

_space_group_name_H-M_alt    "P 1"
_space_group_IT_number       1

loop_
  _space_group_symop_operation_xyz
  'x, y, z'

loop_
  _atom_site_type_symbol
  _atom_site_label
  _atom_site_symmetry_multiplicity
  _atom_site_fract_x
  _atom_site_fract_y
  _atom_site_fract_z
  _atom_site_occupancy
  Dy  Dy1       1.0  0.24643  0.48503  0.90097  1.0000
  Dy  Dy2       1.0  0.75357  0.51497  0.09903  1.0000
  Dy  Dy3       1.0  0.36014  0.97964  0.78312  1.0000
  Dy  Dy4       1.0  0.63986  0.02036  0.21688  1.0000
  Dy  Dy5       1.0  0.49401  0.28888  0.54832  1.0000
  Dy  Dy6       1.0  0.50599  0.71112  0.45168  1.0000
  H   H1        1.0  0.71813  0.79935  0.84857  1.0000
  H   H2        1.0  0.28188  0.20065  0.15143  1.0000
  H   H3        1.0  0.88414  0.04873  0.60501  1.0000
  H   H4        1.0  0.11586  0.95128  0.39499  1.0000
  H   H5        1.0  0.09324  0.89071  0.61314  1.0000
  H   H6        1.0  0.90676  0.10929  0.38686  1.0000
  H   H7        1.0  0.28057  0.77189  0.67796  1.0000
  H   H8        1.0  0.71943  0.22811  0.32203  1.0000
  H   H9        1.0  0.20407  0.73212  0.59232  1.0000
  H   H10       1.0  0.79593  0.26788  0.40768  1.0000
  H   H11       1.0  0.01095  0.30175  0.95672  1.0000
  H   H12       1.0  0.98905  0.69825  0.04328  1.0000
  H   H13       1.0  0.96167  0.97693  0.19014  1.0000
  H   H14       1.0  0.03833  0.02307  0.80986  1.0000
  H   H15       1.0  0.16826  0.86039  0.13865  1.0000
  H   H16       1.0  0.83173  0.13961  0.86135  1.0000
  H   H17       1.0  0.31535  0.77609  0.08241  1.0000
  H   H18       1.0  0.68465  0.22391  0.91759  1.0000
  H   H19       1.0  0.43861  0.84853  0.10036  1.0000
  H   H20       1.0  0.56139  0.15147  0.89964  1.0000
  H   H21       1.0  0.93550  0.25042  0.62552  1.0000
  H   H22       1.0  0.06450  0.74958  0.37448  1.0000
  H   H23       1.0  0.88720  0.53651  0.34450  1.0000
  H   H24       1.0  0.11280  0.46349  0.65550  1.0000
  H   H25       1.0  0.13501  0.46907  0.30950  1.0000
  H   H26       1.0  0.86499  0.53093  0.69050  1.0000
  H   H27       1.0  0.34449  0.29212  0.29074  1.0000
  H   H28       1.0  0.65550  0.70788  0.70926  1.0000
  H   H29       1.0  0.28427  0.16837  0.37764  1.0000
  H   H30       1.0  0.71573  0.83163  0.62236  1.0000
  H   H31       1.0  0.45123  0.65775  0.88578  1.0000
  H   H32       1.0  0.54877  0.34225  0.11422  1.0000
  H   H33       1.0  0.53329  0.52231  0.90594  1.0000
  H   H34       1.0  0.46672  0.47769  0.09406  1.0000
  H   H35       1.0  0.41009  0.24416  0.74916  1.0000
  H   H36       1.0  0.58990  0.75584  0.25084  1.0000
  H   H37       1.0  0.44236  0.37251  0.72180  1.0000
  H   H38       1.0  0.55764  0.62748  0.27820  1.0000
  C   C1        1.0  0.02317  0.75100  0.73354  1.0000
  C   C2        1.0  0.97683  0.24899  0.26646  1.0000
  C   C3        1.0  0.91558  0.72454  0.80155  1.0000
  C   C4        1.0  0.08442  0.27546  0.19845  1.0000
  C   C5        1.0  0.80075  0.81906  0.79683  1.0000
  C   C6        1.0  0.19925  0.18094  0.20317  1.0000
  C   C7        1.0  0.78774  0.93464  0.72677  1.0000
  C   C8        1.0  0.21226  0.06536  0.27323  1.0000
  C   C9        1.0  0.89377  0.95825  0.65963  1.0000
  C   C10       1.0  0.10623  0.04175  0.34037  1.0000
  C   C11       1.0  0.01042  0.86798  0.66346  1.0000
  C   C12       1.0  0.98959  0.13201  0.33654  1.0000
  C   C13       1.0  0.24517  0.69913  0.66653  1.0000
  C   C14       1.0  0.75483  0.30087  0.33347  1.0000
  C   C15       1.0  0.36398  0.59045  0.67777  1.0000
  C   C16       1.0  0.63602  0.40955  0.32223  1.0000
  C   C17       1.0  0.91555  0.60365  0.87991  1.0000
  C   C18       1.0  0.08446  0.39635  0.12009  1.0000
  C   C19       1.0  0.65918  0.02996  0.71664  1.0000
  C   C20       1.0  0.34082  0.97004  0.28335  1.0000
  C   C21       1.0  0.20368  0.01219  0.01204  1.0000
  C   C22       1.0  0.79632  0.98781  0.98796  1.0000
  C   C23       1.0  0.15975  0.13860  0.96183  1.0000
  C   C24       1.0  0.84025  0.86140  0.03817  1.0000
  C   C25       1.0  0.04269  0.20379  0.99411  1.0000
  C   C26       1.0  0.95731  0.79621  0.00589  1.0000
  C   C27       1.0  0.96741  0.14629  0.07333  1.0000
  C   C28       1.0  0.03259  0.85371  0.92667  1.0000
  C   C29       1.0  0.01475  0.02201  0.12462  1.0000
  C   C30       1.0  0.98525  0.97799  0.87538  1.0000
  C   C31       1.0  0.13290  0.95592  0.09542  1.0000
  C   C32       1.0  0.86710  0.04408  0.90458  1.0000
  C   C33       1.0  0.38682  0.83316  0.04479  1.0000
  C   C34       1.0  0.61318  0.16684  0.95521  1.0000
  C   C35       1.0  0.48557  0.76105  0.99091  1.0000
  C   C36       1.0  0.51443  0.23894  0.00909  1.0000
  C   C37       1.0  0.23309  0.20903  0.87711  1.0000
  C   C38       1.0  0.76691  0.79097  0.12289  1.0000
  C   C39       1.0  0.84418  0.21877  0.10661  1.0000
  C   C40       1.0  0.15582  0.78123  0.89339  1.0000
  C   C41       1.0  0.17409  0.32865  0.45046  1.0000
  C   C42       1.0  0.82591  0.67135  0.54954  1.0000
  C   C43       1.0  0.12040  0.26629  0.54109  1.0000
  C   C44       1.0  0.87960  0.73371  0.45891  1.0000
  C   C45       1.0  0.97938  0.30000  0.55689  1.0000
  C   C46       1.0  0.02061  0.70000  0.44311  1.0000
  C   C47       1.0  0.89554  0.39844  0.48750  1.0000
  C   C48       1.0  0.10446  0.60156  0.51250  1.0000
  C   C49       1.0  0.95250  0.46010  0.39856  1.0000
  C   C50       1.0  0.04750  0.53990  0.60144  1.0000
  C   C51       1.0  0.09052  0.42299  0.37906  1.0000
  C   C52       1.0  0.90948  0.57701  0.62093  1.0000
  C   C53       1.0  0.35196  0.23014  0.36716  1.0000
  C   C54       1.0  0.64804  0.76986  0.63284  1.0000
  C   C55       1.0  0.49763  0.15489  0.38898  1.0000
  C   C56       1.0  0.50237  0.84511  0.61102  1.0000
  C   C57       1.0  0.20919  0.16844  0.62031  1.0000
  C   C58       1.0  0.79081  0.83156  0.37969  1.0000
  C   C59       1.0  0.74485  0.43799  0.50549  1.0000
  C   C60       1.0  0.25515  0.56201  0.49451  1.0000
  O   O1        1.0  0.14135  0.66305  0.73812  1.0000
  O   O2        1.0  0.85865  0.33695  0.26188  1.0000
  O   O3        1.0  0.45498  0.59928  0.61259  1.0000
  O   O4        1.0  0.54502  0.40072  0.38741  1.0000
  O   O5        1.0  0.36486  0.49599  0.75273  1.0000
  O   O6        1.0  0.63514  0.50401  0.24727  1.0000
  O   O7        1.0  0.01754  0.51472  0.88726  1.0000
  O   O8        1.0  0.98246  0.48528  0.11274  1.0000
  O   O9        1.0  0.81063  0.59576  0.93529  1.0000
  O   O10       1.0  0.18937  0.40424  0.06471  1.0000
  O   O11       1.0  0.56841  0.01296  0.78410  1.0000
  O   O12       1.0  0.43159  0.98704  0.21590  1.0000
  O   O13       1.0  0.64569  0.12113  0.63895  1.0000
  O   O14       1.0  0.35431  0.87887  0.36105  1.0000
  O   O15       1.0  0.31654  0.94791  0.97666  1.0000
  O   O16       1.0  0.68346  0.05209  0.02334  1.0000
  O   O17       1.0  0.55759  0.66198  0.04483  1.0000
  O   O18       1.0  0.44241  0.33802  0.95517  1.0000
  O   O19       1.0  0.48426  0.79808  0.89834  1.0000
  O   O20       1.0  0.51574  0.20192  0.10166  1.0000
  O   O21       1.0  0.30381  0.15497  0.82141  1.0000
  O   O22       1.0  0.69620  0.84503  0.17859  1.0000
  O   O23       1.0  0.22199  0.32007  0.86252  1.0000
  O   O24       1.0  0.77800  0.67993  0.13748  1.0000
  O   O25       1.0  0.82297  0.33395  0.07062  1.0000
  O   O26       1.0  0.17703  0.66605  0.92938  1.0000
  O   O27       1.0  0.76753  0.16197  0.17076  1.0000
  O   O28       1.0  0.23247  0.83803  0.82924  1.0000
  O   O29       1.0  0.31320  0.29714  0.43291  1.0000
  O   O30       1.0  0.68680  0.70286  0.56709  1.0000
  O   O31       1.0  0.55124  0.10426  0.32751  1.0000
  O   O32       1.0  0.44876  0.89574  0.67249  1.0000
  O   O33       1.0  0.55639  0.14798  0.46327  1.0000
  O   O34       1.0  0.44360  0.85202  0.53673  1.0000
  O   O35       1.0  0.33685  0.16454  0.62509  1.0000
  O   O36       1.0  0.66315  0.83546  0.37492  1.0000
  O   O37       1.0  0.15738  0.08876  0.68526  1.0000
  O   O38       1.0  0.84262  0.91124  0.31474  1.0000
  O   O39       1.0  0.68400  0.35739  0.55886  1.0000
  O   O40       1.0  0.31600  0.64261  0.44114  1.0000
  O   O41       1.0  0.68746  0.54918  0.46307  1.0000
  O   O42       1.0  0.31254  0.45082  0.53693  1.0000
  O   O43       1.0  0.44269  0.57578  0.89283  1.0000
  O   O44       1.0  0.55731  0.42422  0.10717  1.0000
  O   O45       1.0  0.47168  0.29519  0.70827  1.0000
  O   O46       1.0  0.52831  0.70481  0.29173  1.0000
