data_image0
_chemical_formula_structural       Pr2H18C20O18
_chemical_formula_sum              "Pr2 H18 C20 O18"
_cell_length_a       8.87323
_cell_length_b       8.83157
_cell_length_c       9.82779
_cell_angle_alpha    75.5423
_cell_angle_beta     67.0052
_cell_angle_gamma    71.3393

_space_group_name_H-M_alt    "P 1"
_space_group_IT_number       1

loop_
  _space_group_symop_operation_xyz
  'x, y, z'

loop_
  _atom_site_type_symbol
  _atom_site_label
  _atom_site_symmetry_multiplicity
  _atom_site_fract_x
  _atom_site_fract_y
  _atom_site_fract_z
  _atom_site_occupancy
  Pr  Pr1       1.0  0.22375  0.53573  0.53852  1.0000
  Pr  Pr2       1.0  0.77625  0.46427  0.46148  1.0000
  H   H1        1.0  0.73643  0.37510  0.00199  1.0000
  H   H2        1.0  0.26356  0.62491  0.99801  1.0000
  H   H3        1.0  0.39517  0.16802  0.93694  1.0000
  H   H4        1.0  0.60484  0.83197  0.06306  1.0000
  H   H5        1.0  0.27850  0.08914  0.20650  1.0000
  H   H6        1.0  0.72152  0.91084  0.79349  1.0000
  H   H7        1.0  0.24273  0.01130  0.58822  1.0000
  H   H8        1.0  0.75726  0.98870  0.41177  1.0000
  H   H9        1.0  0.25440  0.97081  0.41609  1.0000
  H   H10       1.0  0.74559  0.02919  0.58391  1.0000
  H   H11       1.0  0.43100  0.26083  0.70330  1.0000
  H   H12       1.0  0.56900  0.73917  0.29669  1.0000
  H   H13       1.0  0.36691  0.19546  0.60921  1.0000
  H   H14       1.0  0.63308  0.80454  0.39079  1.0000
  H   H15       1.0  0.89843  0.44791  0.77515  1.0000
  H   H16       1.0  0.10157  0.55209  0.22485  1.0000
  H   H17       1.0  0.03617  0.41013  0.85321  1.0000
  H   H18       1.0  0.96385  0.58985  0.14677  1.0000
  C   C1        1.0  0.44684  0.18025  0.25866  1.0000
  C   C2        1.0  0.55316  0.81974  0.74134  1.0000
  C   C3        1.0  0.57268  0.26772  0.19965  1.0000
  C   C4        1.0  0.42731  0.73228  0.80035  1.0000
  C   C5        1.0  0.63921  0.30856  0.04538  1.0000
  C   C6        1.0  0.36079  0.69145  0.95462  1.0000
  C   C7        1.0  0.57998  0.27110  0.94830  1.0000
  C   C8        1.0  0.42002  0.72890  0.05170  1.0000
  C   C9        1.0  0.44692  0.19456  0.00965  1.0000
  C   C10       1.0  0.55309  0.80543  0.99035  1.0000
  C   C11       1.0  0.38050  0.14967  0.16291  1.0000
  C   C12       1.0  0.61950  0.85033  0.83709  1.0000
  C   C13       1.0  0.24910  0.06521  0.47312  1.0000
  C   C14       1.0  0.75089  0.93479  0.52688  1.0000
  C   C15       1.0  0.09484  0.20673  0.47667  1.0000
  C   C16       1.0  0.90515  0.79327  0.52333  1.0000
  C   C17       1.0  0.62897  0.33324  0.29271  1.0000
  C   C18       1.0  0.37103  0.66676  0.70729  1.0000
  C   C19       1.0  0.65436  0.31549  0.78492  1.0000
  C   C20       1.0  0.34564  0.68452  0.21507  1.0000
  O   O1        1.0  0.40050  0.12312  0.40822  1.0000
  O   O2        1.0  0.59950  0.87688  0.59178  1.0000
  O   O3        1.0  0.96622  0.18460  0.46675  1.0000
  O   O4        1.0  0.03377  0.81540  0.53325  1.0000
  O   O5        1.0  0.10244  0.34448  0.48951  1.0000
  O   O6        1.0  0.89757  0.65552  0.51049  1.0000
  O   O7        1.0  0.52107  0.38513  0.41452  1.0000
  O   O8        1.0  0.47892  0.61488  0.58548  1.0000
  O   O9        1.0  0.77980  0.34506  0.24714  1.0000
  O   O10       1.0  0.22020  0.65494  0.75287  1.0000
  O   O11       1.0  0.76284  0.40090  0.73201  1.0000
  O   O12       1.0  0.23716  0.59911  0.26799  1.0000
  O   O13       1.0  0.61091  0.27185  0.69369  1.0000
  O   O14       1.0  0.38909  0.72816  0.30630  1.0000
  O   O15       1.0  0.32367  0.26045  0.69028  1.0000
  O   O16       1.0  0.67633  0.73956  0.30972  1.0000
  O   O17       1.0  0.98857  0.48806  0.78201  1.0000
  O   O18       1.0  0.01143  0.51193  0.21800  1.0000
