data_image0
_chemical_formula_structural       Zn2H8C8O8
_chemical_formula_sum              "Zn2 H8 C8 O8"
_cell_length_a       4.87949
_cell_length_b       4.87949
_cell_length_c       11.2288
_cell_angle_alpha    83.421
_cell_angle_beta     83.4212
_cell_angle_gamma    89.0656

_space_group_name_H-M_alt    "P 1"
_space_group_IT_number       1

loop_
  _space_group_symop_operation_xyz
  'x, y, z'

loop_
  _atom_site_type_symbol
  _atom_site_label
  _atom_site_symmetry_multiplicity
  _atom_site_fract_x
  _atom_site_fract_y
  _atom_site_fract_z
  _atom_site_occupancy
  Zn  Zn1       1.0  0.51426  0.48574  0.25000  1.0000
  Zn  Zn2       1.0  0.48574  0.51426  0.75000  1.0000
  H   H1        1.0  0.02922  0.75819  0.09986  1.0000
  H   H2        1.0  0.75819  0.02922  0.59986  1.0000
  H   H3        1.0  0.97078  0.24180  0.90014  1.0000
  H   H4        1.0  0.24180  0.97078  0.40014  1.0000
  H   H5        1.0  0.79923  0.76177  0.99229  1.0000
  H   H6        1.0  0.76177  0.79923  0.49229  1.0000
  H   H7        1.0  0.20076  0.23823  0.00771  1.0000
  H   H8        1.0  0.23823  0.20076  0.50771  1.0000
  C   C1        1.0  0.90786  0.89850  0.04236  1.0000
  C   C2        1.0  0.89850  0.90786  0.54236  1.0000
  C   C3        1.0  0.09214  0.10150  0.95764  1.0000
  C   C4        1.0  0.10150  0.09214  0.45764  1.0000
  C   C5        1.0  0.69610  0.03383  0.12549  1.0000
  C   C6        1.0  0.03383  0.69610  0.62549  1.0000
  C   C7        1.0  0.30390  0.96617  0.87451  1.0000
  C   C8        1.0  0.96617  0.30390  0.37451  1.0000
  O   O1        1.0  0.67770  0.29653  0.11194  1.0000
  O   O2        1.0  0.29653  0.67770  0.61194  1.0000
  O   O3        1.0  0.32230  0.70347  0.88807  1.0000
  O   O4        1.0  0.70347  0.32230  0.38806  1.0000
  O   O5        1.0  0.54135  0.88856  0.20804  1.0000
  O   O6        1.0  0.88856  0.54135  0.70804  1.0000
  O   O7        1.0  0.45865  0.11144  0.79196  1.0000
  O   O8        1.0  0.11144  0.45865  0.29196  1.0000
