data_image0
_chemical_formula_structural       Ho6H38C60O46
_chemical_formula_sum              "Ho6 H38 C60 O46"
_cell_length_a       10.1352
_cell_length_b       12.0891
_cell_length_c       14.6408
_cell_angle_alpha    68.9657
_cell_angle_beta     84.5129
_cell_angle_gamma    75.3803

_space_group_name_H-M_alt    "P 1"
_space_group_IT_number       1

loop_
  _space_group_symop_operation_xyz
  'x, y, z'

loop_
  _atom_site_type_symbol
  _atom_site_label
  _atom_site_symmetry_multiplicity
  _atom_site_fract_x
  _atom_site_fract_y
  _atom_site_fract_z
  _atom_site_occupancy
  Ho  Ho1       1.0  0.24567  0.48503  0.90060  1.0000
  Ho  Ho2       1.0  0.75433  0.51497  0.09940  1.0000
  Ho  Ho3       1.0  0.35992  0.97936  0.78297  1.0000
  Ho  Ho4       1.0  0.64008  0.02064  0.21703  1.0000
  Ho  Ho5       1.0  0.49313  0.28879  0.54769  1.0000
  Ho  Ho6       1.0  0.50687  0.71121  0.45231  1.0000
  H   H1        1.0  0.71775  0.79877  0.84937  1.0000
  H   H2        1.0  0.28225  0.20123  0.15063  1.0000
  H   H3        1.0  0.88110  0.04978  0.60434  1.0000
  H   H4        1.0  0.11891  0.95021  0.39566  1.0000
  H   H5        1.0  0.09085  0.89195  0.61190  1.0000
  H   H6        1.0  0.90916  0.10805  0.38810  1.0000
  H   H7        1.0  0.27872  0.77349  0.67733  1.0000
  H   H8        1.0  0.72129  0.22651  0.32268  1.0000
  H   H9        1.0  0.20398  0.73295  0.59142  1.0000
  H   H10       1.0  0.79602  0.26706  0.40858  1.0000
  H   H11       1.0  0.01102  0.30217  0.95680  1.0000
  H   H12       1.0  0.98898  0.69783  0.04319  1.0000
  H   H13       1.0  0.96232  0.97521  0.18984  1.0000
  H   H14       1.0  0.03768  0.02479  0.81016  1.0000
  H   H15       1.0  0.16914  0.85888  0.13764  1.0000
  H   H16       1.0  0.83086  0.14112  0.86236  1.0000
  H   H17       1.0  0.32438  0.77777  0.08731  1.0000
  H   H18       1.0  0.67562  0.22223  0.91269  1.0000
  H   H19       1.0  0.44798  0.85481  0.09614  1.0000
  H   H20       1.0  0.55202  0.14519  0.90386  1.0000
  H   H21       1.0  0.93578  0.24920  0.62605  1.0000
  H   H22       1.0  0.06422  0.75080  0.37395  1.0000
  H   H23       1.0  0.88577  0.53671  0.34464  1.0000
  H   H24       1.0  0.11422  0.46330  0.65536  1.0000
  H   H25       1.0  0.13333  0.47017  0.30904  1.0000
  H   H26       1.0  0.86667  0.52983  0.69096  1.0000
  H   H27       1.0  0.34381  0.29286  0.28999  1.0000
  H   H28       1.0  0.65619  0.70714  0.71001  1.0000
  H   H29       1.0  0.28427  0.16859  0.37743  1.0000
  H   H30       1.0  0.71572  0.83141  0.62257  1.0000
  H   H31       1.0  0.44799  0.65760  0.88626  1.0000
  H   H32       1.0  0.55201  0.34240  0.11374  1.0000
  H   H33       1.0  0.53086  0.52153  0.90799  1.0000
  H   H34       1.0  0.46914  0.47847  0.09201  1.0000
  H   H35       1.0  0.40868  0.24499  0.74774  1.0000
  H   H36       1.0  0.59132  0.75501  0.25226  1.0000
  H   H37       1.0  0.44193  0.37325  0.72071  1.0000
  H   H38       1.0  0.55806  0.62675  0.27929  1.0000
  C   C1        1.0  0.02213  0.75142  0.73306  1.0000
  C   C2        1.0  0.97787  0.24858  0.26694  1.0000
  C   C3        1.0  0.91514  0.72450  0.80168  1.0000
  C   C4        1.0  0.08486  0.27550  0.19832  1.0000
  C   C5        1.0  0.79996  0.81894  0.79723  1.0000
  C   C6        1.0  0.20004  0.18105  0.20277  1.0000
  C   C7        1.0  0.78605  0.93492  0.72690  1.0000
  C   C8        1.0  0.21395  0.06508  0.27310  1.0000
  C   C9        1.0  0.89155  0.95903  0.65924  1.0000
  C   C10       1.0  0.10846  0.04097  0.34076  1.0000
  C   C11       1.0  0.00854  0.86885  0.66275  1.0000
  C   C12       1.0  0.99147  0.13114  0.33725  1.0000
  C   C13       1.0  0.24435  0.70017  0.66587  1.0000
  C   C14       1.0  0.75566  0.29983  0.33413  1.0000
  C   C15       1.0  0.36372  0.59138  0.67768  1.0000
  C   C16       1.0  0.63628  0.40863  0.32232  1.0000
  C   C17       1.0  0.91614  0.60317  0.88035  1.0000
  C   C18       1.0  0.08386  0.39683  0.11965  1.0000
  C   C19       1.0  0.65690  0.02989  0.71680  1.0000
  C   C20       1.0  0.34310  0.97011  0.28319  1.0000
  C   C21       1.0  0.20481  0.01200  0.01170  1.0000
  C   C22       1.0  0.79519  0.98800  0.98830  1.0000
  C   C23       1.0  0.16027  0.13876  0.96158  1.0000
  C   C24       1.0  0.83972  0.86124  0.03842  1.0000
  C   C25       1.0  0.04309  0.20386  0.99413  1.0000
  C   C26       1.0  0.95691  0.79614  0.00587  1.0000
  C   C27       1.0  0.96815  0.14569  0.07350  1.0000
  C   C28       1.0  0.03185  0.85431  0.92650  1.0000
  C   C29       1.0  0.01555  0.02085  0.12441  1.0000
  C   C30       1.0  0.98445  0.97915  0.87559  1.0000
  C   C31       1.0  0.13392  0.95497  0.09491  1.0000
  C   C32       1.0  0.86608  0.04503  0.90509  1.0000
  C   C33       1.0  0.39276  0.83553  0.04459  1.0000
  C   C34       1.0  0.60723  0.16447  0.95541  1.0000
  C   C35       1.0  0.48793  0.76150  0.99019  1.0000
  C   C36       1.0  0.51207  0.23850  0.00981  1.0000
  C   C37       1.0  0.23299  0.20945  0.87632  1.0000
  C   C38       1.0  0.76701  0.79054  0.12368  1.0000
  C   C39       1.0  0.84506  0.21806  0.10729  1.0000
  C   C40       1.0  0.15494  0.78195  0.89271  1.0000
  C   C41       1.0  0.17351  0.32925  0.45023  1.0000
  C   C42       1.0  0.82649  0.67075  0.54977  1.0000
  C   C43       1.0  0.12024  0.26629  0.54109  1.0000
  C   C44       1.0  0.87976  0.73371  0.45891  1.0000
  C   C45       1.0  0.97920  0.29941  0.55723  1.0000
  C   C46       1.0  0.02080  0.70059  0.44277  1.0000
  C   C47       1.0  0.89477  0.39798  0.48797  1.0000
  C   C48       1.0  0.10522  0.60202  0.51203  1.0000
  C   C49       1.0  0.95131  0.46026  0.39877  1.0000
  C   C50       1.0  0.04869  0.53975  0.60123  1.0000
  C   C51       1.0  0.08936  0.42367  0.37892  1.0000
  C   C52       1.0  0.91064  0.57633  0.62108  1.0000
  C   C53       1.0  0.35155  0.23079  0.36659  1.0000
  C   C54       1.0  0.64844  0.76921  0.63341  1.0000
  C   C55       1.0  0.49724  0.15546  0.38832  1.0000
  C   C56       1.0  0.50276  0.84454  0.61168  1.0000
  C   C57       1.0  0.20962  0.16831  0.62011  1.0000
  C   C58       1.0  0.79037  0.83169  0.37989  1.0000
  C   C59       1.0  0.74395  0.43693  0.50600  1.0000
  C   C60       1.0  0.25604  0.56307  0.49400  1.0000
  O   O1        1.0  0.14046  0.66350  0.73733  1.0000
  O   O2        1.0  0.85954  0.33650  0.26267  1.0000
  O   O3        1.0  0.45504  0.59989  0.61259  1.0000
  O   O4        1.0  0.54496  0.40011  0.38741  1.0000
  O   O5        1.0  0.36482  0.49689  0.75318  1.0000
  O   O6        1.0  0.63518  0.50311  0.24682  1.0000
  O   O7        1.0  0.01828  0.51415  0.88716  1.0000
  O   O8        1.0  0.98171  0.48584  0.11284  1.0000
  O   O9        1.0  0.81187  0.59498  0.93646  1.0000
  O   O10       1.0  0.18812  0.40502  0.06353  1.0000
  O   O11       1.0  0.56653  0.01262  0.78472  1.0000
  O   O12       1.0  0.43347  0.98738  0.21528  1.0000
  O   O13       1.0  0.64249  0.12085  0.63858  1.0000
  O   O14       1.0  0.35751  0.87915  0.36142  1.0000
  O   O15       1.0  0.31818  0.94827  0.97601  1.0000
  O   O16       1.0  0.68182  0.05173  0.02399  1.0000
  O   O17       1.0  0.56080  0.66238  0.04388  1.0000
  O   O18       1.0  0.43919  0.33763  0.95612  1.0000
  O   O19       1.0  0.48337  0.79742  0.89759  1.0000
  O   O20       1.0  0.51663  0.20258  0.10241  1.0000
  O   O21       1.0  0.30287  0.15524  0.82017  1.0000
  O   O22       1.0  0.69713  0.84476  0.17983  1.0000
  O   O23       1.0  0.22213  0.32082  0.86153  1.0000
  O   O24       1.0  0.77787  0.67918  0.13847  1.0000
  O   O25       1.0  0.82464  0.33355  0.07244  1.0000
  O   O26       1.0  0.17536  0.66645  0.92756  1.0000
  O   O27       1.0  0.76784  0.16083  0.17080  1.0000
  O   O28       1.0  0.23216  0.83917  0.82919  1.0000
  O   O29       1.0  0.31255  0.29814  0.43230  1.0000
  O   O30       1.0  0.68745  0.70187  0.56770  1.0000
  O   O31       1.0  0.55128  0.10474  0.32678  1.0000
  O   O32       1.0  0.44871  0.89526  0.67322  1.0000
  O   O33       1.0  0.55560  0.14851  0.46276  1.0000
  O   O34       1.0  0.44439  0.85149  0.53724  1.0000
  O   O35       1.0  0.33706  0.16480  0.62449  1.0000
  O   O36       1.0  0.66294  0.83519  0.37551  1.0000
  O   O37       1.0  0.15867  0.08793  0.68539  1.0000
  O   O38       1.0  0.84133  0.91208  0.31461  1.0000
  O   O39       1.0  0.68333  0.35535  0.55825  1.0000
  O   O40       1.0  0.31667  0.64465  0.44175  1.0000
  O   O41       1.0  0.68628  0.54868  0.46449  1.0000
  O   O42       1.0  0.31372  0.45132  0.53551  1.0000
  O   O43       1.0  0.43994  0.57468  0.89525  1.0000
  O   O44       1.0  0.56006  0.42532  0.10474  1.0000
  O   O45       1.0  0.47030  0.29603  0.70668  1.0000
  O   O46       1.0  0.52970  0.70396  0.29332  1.0000
