data_image0
_chemical_formula_structural       Cu4H8C8N12
_chemical_formula_sum              "Cu4 H8 C8 N12"
_cell_length_a       4.86297
_cell_length_b       4.94766
_cell_length_c       14.6426
_cell_angle_alpha    90.0001
_cell_angle_beta     90
_cell_angle_gamma    108.47

_space_group_name_H-M_alt    "P 1"
_space_group_IT_number       1

loop_
  _space_group_symop_operation_xyz
  'x, y, z'

loop_
  _atom_site_type_symbol
  _atom_site_label
  _atom_site_symmetry_multiplicity
  _atom_site_fract_x
  _atom_site_fract_y
  _atom_site_fract_z
  _atom_site_occupancy
  Cu  Cu1       1.0  0.83780  0.16347  0.45061  1.0000
  Cu  Cu2       1.0  0.16219  0.33654  0.95062  1.0000
  Cu  Cu3       1.0  0.16219  0.83653  0.54938  1.0000
  Cu  Cu4       1.0  0.83780  0.66347  0.04939  1.0000
  H   H1        1.0  0.17132  0.33074  0.69609  1.0000
  H   H2        1.0  0.82869  0.16926  0.19609  1.0000
  H   H3        1.0  0.82869  0.66926  0.30391  1.0000
  H   H4        1.0  0.17132  0.83075  0.80391  1.0000
  H   H5        1.0  0.66078  0.81697  0.69520  1.0000
  H   H6        1.0  0.33921  0.68302  0.19520  1.0000
  H   H7        1.0  0.33921  0.18302  0.30479  1.0000
  H   H8        1.0  0.66078  0.31698  0.80480  1.0000
  C   C1        1.0  0.36921  0.38096  0.65653  1.0000
  C   C2        1.0  0.63082  0.11909  0.15651  1.0000
  C   C3        1.0  0.63082  0.61908  0.34349  1.0000
  C   C4        1.0  0.36921  0.88096  0.84347  1.0000
  C   C5        1.0  0.61233  0.62151  0.65631  1.0000
  C   C6        1.0  0.38761  0.87847  0.15630  1.0000
  C   C7        1.0  0.38762  0.37846  0.34370  1.0000
  C   C8        1.0  0.61233  0.12151  0.84369  1.0000
  N   N1        1.0  0.67840  0.31837  0.55712  1.0000
  N   N2        1.0  0.32161  0.18162  0.05713  1.0000
  N   N3        1.0  0.32161  0.68161  0.44287  1.0000
  N   N4        1.0  0.67840  0.81837  0.94288  1.0000
  N   N5        1.0  0.80026  0.57772  0.59416  1.0000
  N   N6        1.0  0.19967  0.92221  0.09417  1.0000
  N   N7        1.0  0.19967  0.42221  0.40583  1.0000
  N   N8        1.0  0.80026  0.07772  0.90584  1.0000
  N   N9        1.0  0.41505  0.19630  0.59461  1.0000
  N   N10       1.0  0.58503  0.30375  0.09462  1.0000
  N   N11       1.0  0.58503  0.80375  0.40538  1.0000
  N   N12       1.0  0.41505  0.69630  0.90539  1.0000
