data_image0
_chemical_formula_structural       Zn4H28C44N24Cl4O8
_chemical_formula_sum              "Zn4 H28 C44 N24 Cl4 O8"
_cell_length_a       5.91392
_cell_length_b       13.9707
_cell_length_c       15.703
_cell_angle_alpha    90.0005
_cell_angle_beta     90.0003
_cell_angle_gamma    100.989

_space_group_name_H-M_alt    "P 1"
_space_group_IT_number       1

loop_
  _space_group_symop_operation_xyz
  'x, y, z'

loop_
  _atom_site_type_symbol
  _atom_site_label
  _atom_site_symmetry_multiplicity
  _atom_site_fract_x
  _atom_site_fract_y
  _atom_site_fract_z
  _atom_site_occupancy
  Zn  Zn1       1.0  0.73472  0.20869  0.51944  1.0000
  Zn  Zn2       1.0  0.26528  0.29131  0.01943  1.0000
  Zn  Zn3       1.0  0.26525  0.79132  0.48057  1.0000
  Zn  Zn4       1.0  0.73469  0.70868  0.98057  1.0000
  H   H1        1.0  0.95643  0.31584  0.77915  1.0000
  H   H2        1.0  0.04354  0.18416  0.27916  1.0000
  H   H3        1.0  0.04357  0.68416  0.22085  1.0000
  H   H4        1.0  0.95644  0.81584  0.72081  1.0000
  H   H5        1.0  0.73458  0.31187  0.89504  1.0000
  H   H6        1.0  0.26546  0.18814  0.39503  1.0000
  H   H7        1.0  0.26546  0.68815  0.10498  1.0000
  H   H8        1.0  0.73450  0.81185  0.60495  1.0000
  H   H9        1.0  0.74107  0.58820  0.72019  1.0000
  H   H10       1.0  0.25896  0.91182  0.22017  1.0000
  H   H11       1.0  0.25906  0.41184  0.27986  1.0000
  H   H12       1.0  0.74102  0.08816  0.77983  1.0000
  H   H13       1.0  0.23010  0.48754  0.91831  1.0000
  H   H14       1.0  0.76989  0.01246  0.41831  1.0000
  H   H15       1.0  0.76986  0.51243  0.08170  1.0000
  H   H16       1.0  0.23009  0.98755  0.58171  1.0000
  H   H17       1.0  0.29402  0.50552  0.58063  1.0000
  H   H18       1.0  0.70599  0.99450  0.08063  1.0000
  H   H19       1.0  0.70602  0.49449  0.41937  1.0000
  H   H20       1.0  0.29404  0.00550  0.91934  1.0000
  H   H21       1.0  0.40515  0.36498  0.53382  1.0000
  H   H22       1.0  0.59483  0.13501  0.03382  1.0000
  H   H23       1.0  0.59485  0.63500  0.46619  1.0000
  H   H24       1.0  0.40509  0.86498  0.96617  1.0000
  H   H25       1.0  0.51656  0.15918  0.71585  1.0000
  H   H26       1.0  0.48347  0.34084  0.21584  1.0000
  H   H27       1.0  0.48339  0.84081  0.28416  1.0000
  H   H28       1.0  0.51662  0.65919  0.78414  1.0000
  C   C1        1.0  0.96965  0.38264  0.74199  1.0000
  C   C2        1.0  0.03033  0.11737  0.24199  1.0000
  C   C3        1.0  0.03035  0.61737  0.25802  1.0000
  C   C4        1.0  0.96967  0.88262  0.75799  1.0000
  C   C5        1.0  0.13531  0.40324  0.67779  1.0000
  C   C6        1.0  0.86468  0.09677  0.17779  1.0000
  C   C7        1.0  0.86469  0.59677  0.32222  1.0000
  C   C8        1.0  0.13532  0.90323  0.82219  1.0000
  C   C9        1.0  0.82930  0.45076  0.75692  1.0000
  C   C10       1.0  0.17069  0.04924  0.25691  1.0000
  C   C11       1.0  0.17074  0.54925  0.24310  1.0000
  C   C12       1.0  0.82930  0.95076  0.74308  1.0000
  C   C13       1.0  0.62947  0.36706  0.88482  1.0000
  C   C14       1.0  0.37055  0.13296  0.38482  1.0000
  C   C15       1.0  0.37055  0.63295  0.11519  1.0000
  C   C16       1.0  0.62944  0.86704  0.61517  1.0000
  C   C17       1.0  0.84962  0.53532  0.70815  1.0000
  C   C18       1.0  0.15037  0.96470  0.20815  1.0000
  C   C19       1.0  0.15043  0.46470  0.29187  1.0000
  C   C20       1.0  0.84961  0.03530  0.79185  1.0000
  C   C21       1.0  0.01452  0.55368  0.64385  1.0000
  C   C22       1.0  0.98544  0.94632  0.14386  1.0000
  C   C23       1.0  0.98549  0.44632  0.35616  1.0000
  C   C24       1.0  0.01457  0.05367  0.85613  1.0000
  C   C25       1.0  0.37508  0.45768  0.89474  1.0000
  C   C26       1.0  0.62490  0.04231  0.39474  1.0000
  C   C27       1.0  0.62489  0.54230  0.10526  1.0000
  C   C28       1.0  0.37510  0.95769  0.60526  1.0000
  C   C29       1.0  0.16063  0.48792  0.62887  1.0000
  C   C30       1.0  0.83934  0.01207  0.12887  1.0000
  C   C31       1.0  0.83936  0.51208  0.37112  1.0000
  C   C32       1.0  0.16066  0.98792  0.87111  1.0000
  C   C33       1.0  0.40606  0.32466  0.59267  1.0000
  C   C34       1.0  0.59393  0.17534  0.09266  1.0000
  C   C35       1.0  0.59393  0.67533  0.40734  1.0000
  C   C36       1.0  0.40604  0.82465  0.90732  1.0000
  C   C37       1.0  0.45929  0.22084  0.68698  1.0000
  C   C38       1.0  0.54071  0.27916  0.18697  1.0000
  C   C39       1.0  0.54068  0.77915  0.31303  1.0000
  C   C40       1.0  0.45933  0.72085  0.81301  1.0000
  C   C41       1.0  0.03513  0.64686  0.59353  1.0000
  C   C42       1.0  0.96486  0.85314  0.09352  1.0000
  C   C43       1.0  0.96490  0.35315  0.40648  1.0000
  C   C44       1.0  0.03511  0.14685  0.90647  1.0000
  N   N1        1.0  0.28393  0.33613  0.66326  1.0000
  N   N2        1.0  0.71606  0.16388  0.16326  1.0000
  N   N3        1.0  0.71608  0.66387  0.33675  1.0000
  N   N4        1.0  0.28394  0.83613  0.83672  1.0000
  N   N5        1.0  0.66142  0.43494  0.82256  1.0000
  N   N6        1.0  0.33859  0.06507  0.32255  1.0000
  N   N7        1.0  0.33861  0.56507  0.17746  1.0000
  N   N8        1.0  0.66141  0.93493  0.67743  1.0000
  N   N9        1.0  0.52076  0.25271  0.60630  1.0000
  N   N10       1.0  0.47924  0.24728  0.10630  1.0000
  N   N11       1.0  0.47921  0.74728  0.39370  1.0000
  N   N12       1.0  0.52076  0.75271  0.89370  1.0000
  N   N13       1.0  0.44824  0.37979  0.93118  1.0000
  N   N14       1.0  0.55178  0.12020  0.43117  1.0000
  N   N15       1.0  0.55176  0.62019  0.06882  1.0000
  N   N16       1.0  0.44819  0.87980  0.56882  1.0000
  N   N17       1.0  0.50046  0.49320  0.82840  1.0000
  N   N18       1.0  0.49954  0.00679  0.32840  1.0000
  N   N19       1.0  0.49954  0.50679  0.17161  1.0000
  N   N20       1.0  0.50048  0.99321  0.67160  1.0000
  N   N21       1.0  0.31629  0.26997  0.72407  1.0000
  N   N22       1.0  0.68373  0.23004  0.22407  1.0000
  N   N23       1.0  0.68370  0.73003  0.27593  1.0000
  N   N24       1.0  0.31632  0.76997  0.77591  1.0000
  Cl  Cl1       1.0  0.98457  0.12596  0.57271  1.0000
  Cl  Cl2       1.0  0.01544  0.37405  0.07270  1.0000
  Cl  Cl3       1.0  0.01539  0.87404  0.42728  1.0000
  Cl  Cl4       1.0  0.98456  0.62597  0.92729  1.0000
  O   O1        1.0  0.19910  0.66181  0.53776  1.0000
  O   O2        1.0  0.80084  0.83819  0.03776  1.0000
  O   O3        1.0  0.80091  0.33821  0.46225  1.0000
  O   O4        1.0  0.19915  0.16180  0.96223  1.0000
  O   O5        1.0  0.89643  0.70235  0.60778  1.0000
  O   O6        1.0  0.10356  0.79766  0.10776  1.0000
  O   O7        1.0  0.10362  0.29766  0.39226  1.0000
  O   O8        1.0  0.89636  0.20233  0.89225  1.0000
