data_image0
_chemical_formula_structural       Zn4H28C44N28O20
_chemical_formula_sum              "Zn4 H28 C44 N28 O20"
_cell_length_a       6.85767
_cell_length_b       10.7452
_cell_length_c       18.8173
_cell_angle_alpha    100.275
_cell_angle_beta     90.0001
_cell_angle_gamma    90.0002

_space_group_name_H-M_alt    "P 1"
_space_group_IT_number       1

loop_
  _space_group_symop_operation_xyz
  'x, y, z'

loop_
  _atom_site_type_symbol
  _atom_site_label
  _atom_site_symmetry_multiplicity
  _atom_site_fract_x
  _atom_site_fract_y
  _atom_site_fract_z
  _atom_site_occupancy
  Zn  Zn1       1.0  0.02819  0.57246  0.83253  1.0000
  Zn  Zn2       1.0  0.52819  0.92754  0.66747  1.0000
  Zn  Zn3       1.0  0.97181  0.42754  0.16747  1.0000
  Zn  Zn4       1.0  0.47180  0.07246  0.33253  1.0000
  H   H1        1.0  0.38270  0.19181  0.18392  1.0000
  H   H2        1.0  0.88270  0.30819  0.31608  1.0000
  H   H3        1.0  0.61730  0.80819  0.81608  1.0000
  H   H4        1.0  0.11730  0.69181  0.68392  1.0000
  H   H5        1.0  0.23799  0.83166  0.00602  1.0000
  H   H6        1.0  0.73799  0.66834  0.49398  1.0000
  H   H7        1.0  0.76201  0.16834  0.99398  1.0000
  H   H8        1.0  0.26201  0.33166  0.50602  1.0000
  H   H9        1.0  0.15471  0.07314  0.84995  1.0000
  H   H10       1.0  0.65471  0.42685  0.65005  1.0000
  H   H11       1.0  0.84529  0.92686  0.15005  1.0000
  H   H12       1.0  0.34529  0.57314  0.34995  1.0000
  H   H13       1.0  0.36540  0.81872  0.22563  1.0000
  H   H14       1.0  0.86540  0.68128  0.27437  1.0000
  H   H15       1.0  0.63460  0.18128  0.77437  1.0000
  H   H16       1.0  0.13461  0.31872  0.72563  1.0000
  H   H17       1.0  0.98281  0.27092  0.86381  1.0000
  H   H18       1.0  0.48281  0.22907  0.63619  1.0000
  H   H19       1.0  0.01719  0.72907  0.13619  1.0000
  H   H20       1.0  0.51718  0.77093  0.36381  1.0000
  H   H21       1.0  0.33852  0.57581  0.95844  1.0000
  H   H22       1.0  0.83852  0.92419  0.54156  1.0000
  H   H23       1.0  0.66148  0.42419  0.04156  1.0000
  H   H24       1.0  0.16148  0.07581  0.45845  1.0000
  H   H25       1.0  0.30786  0.23696  0.06986  1.0000
  H   H26       1.0  0.80786  0.26304  0.43014  1.0000
  H   H27       1.0  0.69214  0.76304  0.93014  1.0000
  H   H28       1.0  0.19214  0.73696  0.56986  1.0000
  C   C1        1.0  0.36918  0.08952  0.17741  1.0000
  C   C2        1.0  0.86918  0.41048  0.32259  1.0000
  C   C3        1.0  0.63082  0.91048  0.82259  1.0000
  C   C4        1.0  0.13082  0.58952  0.67741  1.0000
  C   C5        1.0  0.13383  0.82788  0.86757  1.0000
  C   C6        1.0  0.63384  0.67213  0.63243  1.0000
  C   C7        1.0  0.86617  0.17212  0.13243  1.0000
  C   C8        1.0  0.36615  0.32787  0.36757  1.0000
  C   C9        1.0  0.23740  0.92584  0.99274  1.0000
  C   C10       1.0  0.73740  0.57416  0.50726  1.0000
  C   C11       1.0  0.76260  0.07416  0.00726  1.0000
  C   C12       1.0  0.26259  0.42584  0.49274  1.0000
  C   C13       1.0  0.19097  0.94154  0.92281  1.0000
  C   C14       1.0  0.69098  0.55846  0.57719  1.0000
  C   C15       1.0  0.80903  0.05846  0.07719  1.0000
  C   C16       1.0  0.30902  0.44154  0.42281  1.0000
  C   C17       1.0  0.23003  0.16565  0.95906  1.0000
  C   C18       1.0  0.73003  0.33435  0.54094  1.0000
  C   C19       1.0  0.76997  0.83435  0.04094  1.0000
  C   C20       1.0  0.26997  0.66565  0.45906  1.0000
  C   C21       1.0  0.18854  0.06224  0.90512  1.0000
  C   C22       1.0  0.68854  0.43776  0.59488  1.0000
  C   C23       1.0  0.81146  0.93776  0.09488  1.0000
  C   C24       1.0  0.31146  0.56224  0.40512  1.0000
  C   C25       1.0  0.27965  0.03091  0.04552  1.0000
  C   C26       1.0  0.77964  0.46909  0.45448  1.0000
  C   C27       1.0  0.72036  0.96909  0.95448  1.0000
  C   C28       1.0  0.22036  0.53091  0.54552  1.0000
  C   C29       1.0  0.35852  0.89917  0.19803  1.0000
  C   C30       1.0  0.85852  0.60083  0.30197  1.0000
  C   C31       1.0  0.64148  0.10083  0.80197  1.0000
  C   C32       1.0  0.14149  0.39917  0.69803  1.0000
  C   C33       1.0  0.09310  0.32902  0.89501  1.0000
  C   C34       1.0  0.59310  0.17098  0.60499  1.0000
  C   C35       1.0  0.90690  0.67098  0.10499  1.0000
  C   C36       1.0  0.40689  0.82902  0.39501  1.0000
  C   C37       1.0  0.27290  0.48266  0.94577  1.0000
  C   C38       1.0  0.77290  0.01735  0.55423  1.0000
  C   C39       1.0  0.72710  0.51734  0.05423  1.0000
  C   C40       1.0  0.22710  0.98266  0.44577  1.0000
  C   C41       1.0  0.27792  0.15286  0.02964  1.0000
  C   C42       1.0  0.77792  0.34714  0.47036  1.0000
  C   C43       1.0  0.72208  0.84714  0.97036  1.0000
  C   C44       1.0  0.22208  0.65286  0.52964  1.0000
  N   N1        1.0  0.12614  0.45164  0.89618  1.0000
  N   N2        1.0  0.62614  0.04836  0.60382  1.0000
  N   N3        1.0  0.87386  0.54836  0.10382  1.0000
  N   N4        1.0  0.37386  0.95164  0.39618  1.0000
  N   N5        1.0  0.39560  0.02183  0.22959  1.0000
  N   N6        1.0  0.89560  0.47818  0.27041  1.0000
  N   N7        1.0  0.60439  0.97817  0.77041  1.0000
  N   N8        1.0  0.10440  0.52183  0.72959  1.0000
  N   N9        1.0  0.31953  0.00887  0.11639  1.0000
  N   N10       1.0  0.81952  0.49113  0.38361  1.0000
  N   N11       1.0  0.68048  0.99113  0.88361  1.0000
  N   N12       1.0  0.18048  0.50887  0.61639  1.0000
  N   N13       1.0  0.21602  0.28885  0.94217  1.0000
  N   N14       1.0  0.71603  0.21115  0.55783  1.0000
  N   N15       1.0  0.78398  0.71115  0.05783  1.0000
  N   N16       1.0  0.28397  0.78885  0.44217  1.0000
  N   N17       1.0  0.33080  0.38610  0.97526  1.0000
  N   N18       1.0  0.83080  0.11390  0.52474  1.0000
  N   N19       1.0  0.66920  0.61390  0.02474  1.0000
  N   N20       1.0  0.16920  0.88610  0.47526  1.0000
  N   N21       1.0  0.31118  0.88721  0.12935  1.0000
  N   N22       1.0  0.81118  0.61279  0.37065  1.0000
  N   N23       1.0  0.68882  0.11279  0.87065  1.0000
  N   N24       1.0  0.18882  0.38721  0.62936  1.0000
  N   N25       1.0  0.65053  0.48576  0.81064  1.0000
  N   N26       1.0  0.15053  0.01424  0.68936  1.0000
  N   N27       1.0  0.34948  0.51424  0.18936  1.0000
  N   N28       1.0  0.84947  0.98576  0.31064  1.0000
  O   O1        1.0  0.75919  0.39335  0.78514  1.0000
  O   O2        1.0  0.25920  0.10665  0.71485  1.0000
  O   O3        1.0  0.24081  0.60665  0.21486  1.0000
  O   O4        1.0  0.74081  0.89335  0.28515  1.0000
  O   O5        1.0  0.73473  0.59127  0.84148  1.0000
  O   O6        1.0  0.23474  0.90873  0.65852  1.0000
  O   O7        1.0  0.26527  0.40873  0.15852  1.0000
  O   O8        1.0  0.76526  0.09128  0.34148  1.0000
  O   O9        1.0  0.09005  0.83941  0.80489  1.0000
  O   O10       1.0  0.59009  0.66059  0.69512  1.0000
  O   O11       1.0  0.90995  0.16059  0.19511  1.0000
  O   O12       1.0  0.40990  0.33940  0.30488  1.0000
  O   O13       1.0  0.47072  0.48063  0.80797  1.0000
  O   O14       1.0  0.97072  0.01937  0.69203  1.0000
  O   O15       1.0  0.52929  0.51937  0.19203  1.0000
  O   O16       1.0  0.02928  0.98064  0.30798  1.0000
  O   O17       1.0  0.13047  0.72338  0.89339  1.0000
  O   O18       1.0  0.63047  0.77662  0.60661  1.0000
  O   O19       1.0  0.86953  0.27662  0.10661  1.0000
  O   O20       1.0  0.36953  0.22338  0.39339  1.0000
