data_image0
_chemical_formula_structural       Zn2H16C10N4O14
_chemical_formula_sum              "Zn2 H16 C10 N4 O14"
_cell_length_a       7.11584
_cell_length_b       7.05921
_cell_length_c       11.5727
_cell_angle_alpha    109.661
_cell_angle_beta     91.3909
_cell_angle_gamma    112.984

_space_group_name_H-M_alt    "P 1"
_space_group_IT_number       1

loop_
  _space_group_symop_operation_xyz
  'x, y, z'

loop_
  _atom_site_type_symbol
  _atom_site_label
  _atom_site_symmetry_multiplicity
  _atom_site_fract_x
  _atom_site_fract_y
  _atom_site_fract_z
  _atom_site_occupancy
  Zn  Zn1       1.0  1.00000  1.00000  0.00000  1.0000
  Zn  Zn2       1.0  0.50000  0.49999  0.49999  1.0000
  H   H1        1.0  0.27035  0.73838  0.56472  1.0000
  H   H2        1.0  0.72966  0.26161  0.43527  1.0000
  H   H3        1.0  0.37690  0.74040  0.69076  1.0000
  H   H4        1.0  0.62310  0.25959  0.30923  1.0000
  H   H5        1.0  0.22610  0.17862  0.30996  1.0000
  H   H6        1.0  0.77390  0.82138  0.69002  1.0000
  H   H7        1.0  0.17757  0.38346  0.35541  1.0000
  H   H8        1.0  0.82243  0.61653  0.64459  1.0000
  H   H9        1.0  0.16614  0.71466  0.88607  1.0000
  H   H10       1.0  0.83386  0.28535  0.11394  1.0000
  H   H11       1.0  0.92413  0.58470  0.83761  1.0000
  H   H12       1.0  0.07587  0.41531  0.16239  1.0000
  H   H13       1.0  0.16950  0.16577  0.74609  1.0000
  H   H14       1.0  0.83049  0.83423  0.25392  1.0000
  H   H15       1.0  0.75943  0.35498  0.94557  1.0000
  H   H16       1.0  0.24057  0.64505  0.05443  1.0000
  C   C1        1.0  0.56896  0.34455  0.70280  1.0000
  C   C2        1.0  0.43104  0.65545  0.29720  1.0000
  C   C3        1.0  0.49196  0.27667  0.80715  1.0000
  C   C4        1.0  0.50803  0.72334  0.19285  1.0000
  C   C5        1.0  0.59377  0.29435  0.91705  1.0000
  C   C6        1.0  0.40622  0.70566  0.08296  1.0000
  C   C7        1.0  0.43501  0.21848  0.98242  1.0000
  C   C8        1.0  0.56499  0.78154  0.01759  1.0000
  C   C9        1.0  0.44012  0.19548  0.10533  1.0000
  C   C10       1.0  0.55988  0.80452  0.89467  1.0000
  N   N1        1.0  0.24781  0.15742  0.91631  1.0000
  N   N2        1.0  0.75218  0.84258  0.08369  1.0000
  N   N3        1.0  0.28530  0.19407  0.81187  1.0000
  N   N4        1.0  0.71470  0.80594  0.18814  1.0000
  O   O1        1.0  0.76336  0.41392  0.70203  1.0000
  O   O2        1.0  0.23664  0.58609  0.29798  1.0000
  O   O3        1.0  0.43250  0.33522  0.62566  1.0000
  O   O4        1.0  0.56750  0.66478  0.37433  1.0000
  O   O5        1.0  0.61562  0.25909  0.16979  1.0000
  O   O6        1.0  0.38438  0.74092  0.83021  1.0000
  O   O7        1.0  0.26578  0.11322  0.13876  1.0000
  O   O8        1.0  0.73422  0.88677  0.86124  1.0000
  O   O9        1.0  0.39238  0.73734  0.60365  1.0000
  O   O10       1.0  0.60762  0.26263  0.39634  1.0000
  O   O11       1.0  0.19440  0.27166  0.38490  1.0000
  O   O12       1.0  0.80561  0.72833  0.61508  1.0000
  O   O13       1.0  0.03015  0.69653  0.91364  1.0000
  O   O14       1.0  0.96985  0.30347  0.08636  1.0000
