data_image0
_chemical_formula_structural       K4H12C20N8O16
_chemical_formula_sum              "K4 H12 C20 N8 O16"
_cell_length_a       7.37408
_cell_length_b       8.32106
_cell_length_c       11.2626
_cell_angle_alpha    90.0002
_cell_angle_beta     89.9997
_cell_angle_gamma    91.0444

_space_group_name_H-M_alt    "P 1"
_space_group_IT_number       1

loop_
  _space_group_symop_operation_xyz
  'x, y, z'

loop_
  _atom_site_type_symbol
  _atom_site_label
  _atom_site_symmetry_multiplicity
  _atom_site_fract_x
  _atom_site_fract_y
  _atom_site_fract_z
  _atom_site_occupancy
  K   K1        1.0  0.22992  0.42174  0.46997  1.0000
  K   K2        1.0  0.27009  0.57825  0.96996  1.0000
  K   K3        1.0  0.77009  0.57826  0.53003  1.0000
  K   K4        1.0  0.72991  0.42173  0.03004  1.0000
  H   H1        1.0  0.14135  0.85566  0.42918  1.0000
  H   H2        1.0  0.35866  0.14434  0.92918  1.0000
  H   H3        1.0  0.85865  0.14433  0.57082  1.0000
  H   H4        1.0  0.64134  0.85567  0.07082  1.0000
  H   H5        1.0  0.15390  0.93994  0.05708  1.0000
  H   H6        1.0  0.34611  0.06005  0.55709  1.0000
  H   H7        1.0  0.84610  0.06005  0.94291  1.0000
  H   H8        1.0  0.65388  0.93995  0.44292  1.0000
  H   H9        1.0  0.41003  0.45708  0.21691  1.0000
  H   H10       1.0  0.08996  0.54293  0.71691  1.0000
  H   H11       1.0  0.58997  0.54292  0.78309  1.0000
  H   H12       1.0  0.91004  0.45708  0.28309  1.0000
  C   C1        1.0  0.02547  0.68076  0.22295  1.0000
  C   C2        1.0  0.47454  0.31923  0.72295  1.0000
  C   C3        1.0  0.97453  0.31923  0.77705  1.0000
  C   C4        1.0  0.52546  0.68077  0.27705  1.0000
  C   C5        1.0  0.11292  0.84078  0.23847  1.0000
  C   C6        1.0  0.38709  0.15922  0.73847  1.0000
  C   C7        1.0  0.88708  0.15922  0.76152  1.0000
  C   C8        1.0  0.61291  0.84079  0.26153  1.0000
  C   C9        1.0  0.16759  0.95192  0.15266  1.0000
  C   C10       1.0  0.33242  0.04808  0.65267  1.0000
  C   C11       1.0  0.83242  0.04808  0.84733  1.0000
  C   C12       1.0  0.66757  0.95192  0.34734  1.0000
  C   C13       1.0  0.23889  0.08312  0.21762  1.0000
  C   C14       1.0  0.26111  0.91688  0.71762  1.0000
  C   C15       1.0  0.76111  0.91688  0.78237  1.0000
  C   C16       1.0  0.73889  0.08313  0.28238  1.0000
  C   C17       1.0  0.31943  0.23386  0.17159  1.0000
  C   C18       1.0  0.18057  0.76614  0.67160  1.0000
  C   C19       1.0  0.68057  0.76614  0.82841  1.0000
  C   C20       1.0  0.81942  0.23386  0.32841  1.0000
  N   N1        1.0  0.15333  0.90894  0.34605  1.0000
  N   N2        1.0  0.34667  0.09106  0.84605  1.0000
  N   N3        1.0  0.84667  0.09105  0.65394  1.0000
  N   N4        1.0  0.65333  0.90895  0.15394  1.0000
  N   N5        1.0  0.22844  0.05509  0.33650  1.0000
  N   N6        1.0  0.27156  0.94490  0.83650  1.0000
  N   N7        1.0  0.77156  0.94490  0.66350  1.0000
  N   N8        1.0  0.72844  0.05510  0.16350  1.0000
  O   O1        1.0  0.99577  0.63173  0.11928  1.0000
  O   O2        1.0  0.50423  0.36827  0.61928  1.0000
  O   O3        1.0  0.00423  0.36827  0.88073  1.0000
  O   O4        1.0  0.49577  0.63173  0.38073  1.0000
  O   O5        1.0  0.98521  0.60062  0.31874  1.0000
  O   O6        1.0  0.51479  0.39938  0.81874  1.0000
  O   O7        1.0  0.01479  0.39938  0.68126  1.0000
  O   O8        1.0  0.48521  0.60062  0.18127  1.0000
  O   O9        1.0  0.35922  0.25425  0.06456  1.0000
  O   O10       1.0  0.14079  0.74575  0.56456  1.0000
  O   O11       1.0  0.64078  0.74575  0.93544  1.0000
  O   O12       1.0  0.85921  0.25425  0.43545  1.0000
  O   O13       1.0  0.34693  0.34546  0.25228  1.0000
  O   O14       1.0  0.15305  0.65455  0.75229  1.0000
  O   O15       1.0  0.65307  0.65455  0.74771  1.0000
  O   O16       1.0  0.84694  0.34545  0.24772  1.0000
