data_image0
_chemical_formula_structural       Ni6H28C12O32
_chemical_formula_sum              "Ni6 H28 C12 O32"
_cell_length_a       5.43255
_cell_length_b       9.38161
_cell_length_c       14.4885
_cell_angle_alpha    101.307
_cell_angle_beta     89.9999
_cell_angle_gamma    90.0005

_space_group_name_H-M_alt    "P 1"
_space_group_IT_number       1

loop_
  _space_group_symop_operation_xyz
  'x, y, z'

loop_
  _atom_site_type_symbol
  _atom_site_label
  _atom_site_symmetry_multiplicity
  _atom_site_fract_x
  _atom_site_fract_y
  _atom_site_fract_z
  _atom_site_occupancy
  Ni  Ni1       1.0  0.88593  0.94854  0.32613  1.0000
  Ni  Ni2       1.0  0.38534  0.05166  0.17391  1.0000
  Ni  Ni3       1.0  0.11466  0.05166  0.67391  1.0000
  Ni  Ni4       1.0  0.61406  0.94854  0.82613  1.0000
  Ni  Ni5       1.0  0.99968  0.49991  0.99983  1.0000
  Ni  Ni6       1.0  0.50033  0.49991  0.49983  1.0000
  H   H1        1.0  0.76082  0.82094  0.46058  1.0000
  H   H2        1.0  0.26019  0.17964  0.03957  1.0000
  H   H3        1.0  0.23981  0.17964  0.53957  1.0000
  H   H4        1.0  0.73918  0.82095  0.96058  1.0000
  H   H5        1.0  0.75916  0.99093  0.51152  1.0000
  H   H6        1.0  0.25910  0.00952  0.98868  1.0000
  H   H7        1.0  0.24089  0.00952  0.48868  1.0000
  H   H8        1.0  0.74083  0.99093  0.01153  1.0000
  H   H9        1.0  0.37020  0.95116  0.34434  1.0000
  H   H10       1.0  0.87009  0.04908  0.15561  1.0000
  H   H11       1.0  0.62992  0.04907  0.65561  1.0000
  H   H12       1.0  0.12980  0.95116  0.84434  1.0000
  H   H13       1.0  0.28520  0.79885  0.37368  1.0000
  H   H14       1.0  0.78574  0.20123  0.12598  1.0000
  H   H15       1.0  0.71427  0.20122  0.62598  1.0000
  H   H16       1.0  0.21480  0.79884  0.87368  1.0000
  H   H17       1.0  0.89131  0.81427  0.07916  1.0000
  H   H18       1.0  0.39187  0.18537  0.42097  1.0000
  H   H19       1.0  0.10814  0.18538  0.92097  1.0000
  H   H20       1.0  0.60869  0.81426  0.57917  1.0000
  H   H21       1.0  0.55588  0.62442  0.96915  1.0000
  H   H22       1.0  0.05568  0.37525  0.53091  1.0000
  H   H23       1.0  0.44432  0.37525  0.03091  1.0000
  H   H24       1.0  0.94412  0.62442  0.46915  1.0000
  H   H25       1.0  0.71597  0.61733  0.87487  1.0000
  H   H26       1.0  0.21642  0.38309  0.62504  1.0000
  H   H27       1.0  0.28359  0.38310  0.12503  1.0000
  H   H28       1.0  0.78403  0.61733  0.37488  1.0000
  C   C1        1.0  0.02102  0.81045  0.13705  1.0000
  C   C2        1.0  0.52140  0.18923  0.36305  1.0000
  C   C3        1.0  0.97860  0.18924  0.86304  1.0000
  C   C4        1.0  0.47898  0.81045  0.63706  1.0000
  C   C5        1.0  0.90674  0.69140  0.18419  1.0000
  C   C6        1.0  0.40701  0.30838  0.31601  1.0000
  C   C7        1.0  0.09300  0.30839  0.81601  1.0000
  C   C8        1.0  0.59326  0.69140  0.68419  1.0000
  C   C9        1.0  0.26671  0.76292  0.08863  1.0000
  C   C10       1.0  0.76716  0.23679  0.41127  1.0000
  C   C11       1.0  0.73284  0.23679  0.91127  1.0000
  C   C12       1.0  0.23329  0.76291  0.58863  1.0000
  O   O1        1.0  0.72815  0.92121  0.45143  1.0000
  O   O2        1.0  0.22760  0.07928  0.04868  1.0000
  O   O3        1.0  0.27239  0.07928  0.54868  1.0000
  O   O4        1.0  0.77184  0.92122  0.95143  1.0000
  O   O5        1.0  0.23632  0.89967  0.37760  1.0000
  O   O6        1.0  0.73632  0.10057  0.12241  1.0000
  O   O7        1.0  0.76368  0.10057  0.62240  1.0000
  O   O8        1.0  0.26367  0.89967  0.87761  1.0000
  O   O9        1.0  0.03739  0.94854  0.19695  1.0000
  O   O10       1.0  0.53742  0.05127  0.30300  1.0000
  O   O11       1.0  0.96259  0.05128  0.80300  1.0000
  O   O12       1.0  0.46260  0.94854  0.69695  1.0000
  O   O13       1.0  0.83314  0.72876  0.26911  1.0000
  O   O14       1.0  0.33255  0.27106  0.23124  1.0000
  O   O15       1.0  0.16744  0.27106  0.73124  1.0000
  O   O16       1.0  0.66686  0.72876  0.76911  1.0000
  O   O17       1.0  0.88204  0.56409  0.13607  1.0000
  O   O18       1.0  0.38291  0.43590  0.36393  1.0000
  O   O19       1.0  0.11709  0.43591  0.86393  1.0000
  O   O20       1.0  0.61796  0.56409  0.63608  1.0000
  O   O21       1.0  0.45638  0.83867  0.11292  1.0000
  O   O22       1.0  0.95740  0.16206  0.38605  1.0000
  O   O23       1.0  0.54260  0.16206  0.88605  1.0000
  O   O24       1.0  0.04362  0.83868  0.61291  1.0000
  O   O25       1.0  0.27162  0.65168  0.02105  1.0000
  O   O26       1.0  0.77106  0.34711  0.47953  1.0000
  O   O27       1.0  0.72895  0.34711  0.97953  1.0000
  O   O28       1.0  0.22837  0.65167  0.52106  1.0000
  O   O29       1.0  0.72683  0.63284  0.94413  1.0000
  O   O30       1.0  0.22683  0.36692  0.55577  1.0000
  O   O31       1.0  0.27317  0.36692  0.05576  1.0000
  O   O32       1.0  0.77317  0.63283  0.44414  1.0000
