data_image0
_chemical_formula_structural       Cd2H28C44N24O8
_chemical_formula_sum              "Cd2 H28 C44 N24 O8"
_cell_length_a       4.3854
_cell_length_b       9.64172
_cell_length_c       26.2077
_cell_angle_alpha    90
_cell_angle_beta     90.0001
_cell_angle_gamma    93.065

_space_group_name_H-M_alt    "P 1"
_space_group_IT_number       1

loop_
  _space_group_symop_operation_xyz
  'x, y, z'

loop_
  _atom_site_type_symbol
  _atom_site_label
  _atom_site_symmetry_multiplicity
  _atom_site_fract_x
  _atom_site_fract_y
  _atom_site_fract_z
  _atom_site_occupancy
  Cd  Cd1       1.0  0.70098  0.23020  0.08039  1.0000
  Cd  Cd2       1.0  0.29902  0.76980  0.58038  1.0000
  H   H1        1.0  0.46837  0.86874  0.90576  1.0000
  H   H2        1.0  0.53162  0.13126  0.40576  1.0000
  H   H3        1.0  0.97829  0.67408  0.03235  1.0000
  H   H4        1.0  0.02171  0.32592  0.53235  1.0000
  H   H5        1.0  0.88059  0.43025  0.87759  1.0000
  H   H6        1.0  0.11943  0.56975  0.37759  1.0000
  H   H7        1.0  0.53407  0.25228  0.21430  1.0000
  H   H8        1.0  0.46592  0.74772  0.71430  1.0000
  H   H9        1.0  0.95753  0.59300  0.25719  1.0000
  H   H10       1.0  0.04248  0.40700  0.75719  1.0000
  H   H11       1.0  0.81537  0.02141  0.21757  1.0000
  H   H12       1.0  0.18464  0.97859  0.71757  1.0000
  H   H13       1.0  0.42787  0.78770  0.12882  1.0000
  H   H14       1.0  0.57213  0.21230  0.62882  1.0000
  H   H15       1.0  0.47814  0.56253  0.10300  1.0000
  H   H16       1.0  0.52187  0.43747  0.60300  1.0000
  H   H17       1.0  0.62295  0.61325  0.31544  1.0000
  H   H18       1.0  0.37706  0.38675  0.81544  1.0000
  H   H19       1.0  0.23401  0.98866  0.35494  1.0000
  H   H20       1.0  0.76601  0.01134  0.85494  1.0000
  H   H21       1.0  0.15456  0.77928  0.78996  1.0000
  H   H22       1.0  0.84542  0.22073  0.28996  1.0000
  H   H23       1.0  0.92654  0.89983  0.05819  1.0000
  H   H24       1.0  0.07346  0.10017  0.55819  1.0000
  H   H25       1.0  0.86403  0.20626  0.94534  1.0000
  H   H26       1.0  0.13597  0.79374  0.44534  1.0000
  H   H27       1.0  0.58738  0.43793  0.94483  1.0000
  H   H28       1.0  0.41262  0.56207  0.44483  1.0000
  C   C1        1.0  0.28308  0.54700  0.99184  1.0000
  C   C2        1.0  0.71691  0.45300  0.49184  1.0000
  C   C3        1.0  0.55332  0.65337  0.92054  1.0000
  C   C4        1.0  0.44667  0.34663  0.42054  1.0000
  C   C5        1.0  0.41977  0.77904  0.93000  1.0000
  C   C6        1.0  0.58022  0.22096  0.43000  1.0000
  C   C7        1.0  0.14619  0.67180  0.00183  1.0000
  C   C8        1.0  0.85380  0.32820  0.50183  1.0000
  C   C9        1.0  0.91336  0.53516  0.86264  1.0000
  C   C10       1.0  0.08664  0.46484  0.36264  1.0000
  C   C11       1.0  0.48681  0.34904  0.19563  1.0000
  C   C12       1.0  0.51319  0.65096  0.69563  1.0000
  C   C13       1.0  0.19551  0.67619  0.19121  1.0000
  C   C14       1.0  0.80449  0.32381  0.69121  1.0000
  C   C15       1.0  0.99920  0.68396  0.23293  1.0000
  C   C16       1.0  0.00081  0.31604  0.73293  1.0000
  C   C17       1.0  0.12321  0.91467  0.16946  1.0000
  C   C18       1.0  0.87679  0.08533  0.66946  1.0000
  C   C19       1.0  0.92289  0.92446  0.21046  1.0000
  C   C20       1.0  0.07712  0.07554  0.71046  1.0000
  C   C21       1.0  0.26235  0.79033  0.15970  1.0000
  C   C22       1.0  0.73765  0.20967  0.65970  1.0000
  C   C23       1.0  0.86534  0.80994  0.24227  1.0000
  C   C24       1.0  0.13466  0.19006  0.74227  1.0000
  C   C25       1.0  0.19937  0.04063  0.13670  1.0000
  C   C26       1.0  0.80064  0.95936  0.63671  1.0000
  C   C27       1.0  0.46352  0.50454  0.13834  1.0000
  C   C28       1.0  0.53649  0.49546  0.63834  1.0000
  C   C29       1.0  0.56006  0.72103  0.31751  1.0000
  C   C30       1.0  0.43995  0.27898  0.81751  1.0000
  C   C31       1.0  0.36885  0.91198  0.33629  1.0000
  C   C32       1.0  0.63116  0.08803  0.83629  1.0000
  C   C33       1.0  0.21776  0.78665  0.97089  1.0000
  C   C34       1.0  0.78223  0.21335  0.47089  1.0000
  C   C35       1.0  0.04097  0.71170  0.81798  1.0000
  C   C36       1.0  0.95902  0.28830  0.31798  1.0000
  C   C37       1.0  0.20270  0.42047  0.02416  1.0000
  C   C38       1.0  0.79730  0.57953  0.52416  1.0000
  C   C39       1.0  0.94318  0.95767  0.02284  1.0000
  C   C40       1.0  0.05682  0.04233  0.52283  1.0000
  C   C41       1.0  0.92032  0.11240  0.96519  1.0000
  C   C42       1.0  0.07967  0.88760  0.46519  1.0000
  C   C43       1.0  0.48734  0.53727  0.95133  1.0000
  C   C44       1.0  0.51265  0.46273  0.45133  1.0000
  N   N1        1.0  0.84199  0.08326  0.01476  1.0000
  N   N2        1.0  0.15800  0.91674  0.51476  1.0000
  N   N3        1.0  0.07785  0.91353  0.97980  1.0000
  N   N4        1.0  0.92214  0.08647  0.47980  1.0000
  N   N5        1.0  0.06387  0.01222  0.94240  1.0000
  N   N6        1.0  0.93612  0.98778  0.44240  1.0000
  N   N7        1.0  0.75999  0.64553  0.87938  1.0000
  N   N8        1.0  0.24000  0.35447  0.37938  1.0000
  N   N9        1.0  0.09287  0.57373  0.82382  1.0000
  N   N10       1.0  0.90712  0.42627  0.32382  1.0000
  N   N11       1.0  0.84095  0.75987  0.85060  1.0000
  N   N12       1.0  0.15903  0.24014  0.35060  1.0000
  N   N13       1.0  0.56097  0.37796  0.14591  1.0000
  N   N14       1.0  0.43904  0.62204  0.64591  1.0000
  N   N15       1.0  0.33531  0.54925  0.18186  1.0000
  N   N16       1.0  0.66470  0.45075  0.68186  1.0000
  N   N17       1.0  0.35046  0.45029  0.21907  1.0000
  N   N18       1.0  0.64954  0.54971  0.71907  1.0000
  N   N19       1.0  0.66635  0.82130  0.28438  1.0000
  N   N20       1.0  0.33367  0.17870  0.78438  1.0000
  N   N21       1.0  0.54356  0.94481  0.29623  1.0000
  N   N22       1.0  0.45646  0.05519  0.79623  1.0000
  N   N23       1.0  0.37173  0.77531  0.35088  1.0000
  N   N24       1.0  0.62829  0.22470  0.85088  1.0000
  O   O1        1.0  0.04081  0.14565  0.14241  1.0000
  O   O2        1.0  0.95919  0.85435  0.64241  1.0000
  O   O3        1.0  0.42193  0.03095  0.10576  1.0000
  O   O4        1.0  0.57808  0.96905  0.60576  1.0000
  O   O5        1.0  0.36081  0.31544  0.01841  1.0000
  O   O6        1.0  0.63919  0.68456  0.51841  1.0000
  O   O7        1.0  0.97846  0.43028  0.05470  1.0000
  O   O8        1.0  0.02154  0.56972  0.55470  1.0000
