data_image0
_chemical_formula_structural       Zn2H28C44N24O8
_chemical_formula_sum              "Zn2 H28 C44 N24 O8"
_cell_length_a       10.189
_cell_length_b       10.9314
_cell_length_c       12.223
_cell_angle_alpha    92.2277
_cell_angle_beta     98.7089
_cell_angle_gamma    113.151

_space_group_name_H-M_alt    "P 1"
_space_group_IT_number       1

loop_
  _space_group_symop_operation_xyz
  'x, y, z'

loop_
  _atom_site_type_symbol
  _atom_site_label
  _atom_site_symmetry_multiplicity
  _atom_site_fract_x
  _atom_site_fract_y
  _atom_site_fract_z
  _atom_site_occupancy
  Zn  Zn1       1.0  0.79826  0.23002  0.92872  1.0000
  Zn  Zn2       1.0  0.20174  0.76998  0.07128  1.0000
  H   H1        1.0  0.81907  0.29891  0.28504  1.0000
  H   H2        1.0  0.18093  0.70109  0.71496  1.0000
  H   H3        1.0  0.77404  0.91853  0.96162  1.0000
  H   H4        1.0  0.22596  0.08147  0.03838  1.0000
  H   H5        1.0  0.30317  0.64036  0.83604  1.0000
  H   H6        1.0  0.69682  0.35964  0.16396  1.0000
  H   H7        1.0  0.08815  0.48932  0.89232  1.0000
  H   H8        1.0  0.91185  0.51068  0.10768  1.0000
  H   H9        1.0  0.66530  0.29621  0.39704  1.0000
  H   H10       1.0  0.33470  0.70380  0.60296  1.0000
  H   H11       1.0  0.41500  0.29769  0.85293  1.0000
  H   H12       1.0  0.58500  0.70231  0.14707  1.0000
  H   H13       1.0  0.12412  0.12625  0.25025  1.0000
  H   H14       1.0  0.87588  0.87375  0.74975  1.0000
  H   H15       1.0  0.75189  0.69226  0.87550  1.0000
  H   H16       1.0  0.24811  0.30774  0.12450  1.0000
  H   H17       1.0  0.49867  0.05619  0.75741  1.0000
  H   H18       1.0  0.50132  0.94381  0.24260  1.0000
  H   H19       1.0  0.95084  0.07675  0.80107  1.0000
  H   H20       1.0  0.04916  0.92325  0.19894  1.0000
  H   H21       1.0  0.05945  0.22681  0.57812  1.0000
  H   H22       1.0  0.94055  0.77319  0.42189  1.0000
  H   H23       1.0  0.38825  0.94808  0.43809  1.0000
  H   H24       1.0  0.61175  0.05191  0.56190  1.0000
  H   H25       1.0  0.85022  0.47442  0.72484  1.0000
  H   H26       1.0  0.14977  0.52557  0.27516  1.0000
  H   H27       1.0  0.25603  0.18035  0.64111  1.0000
  H   H28       1.0  0.74398  0.81965  0.35889  1.0000
  C   C1        1.0  0.89867  0.26308  0.32287  1.0000
  C   C2        1.0  0.10133  0.73692  0.67714  1.0000
  C   C3        1.0  0.34270  0.45857  0.84012  1.0000
  C   C4        1.0  0.65730  0.54143  0.15987  1.0000
  C   C5        1.0  0.68445  0.92304  0.90349  1.0000
  C   C6        1.0  0.31555  0.07696  0.09651  1.0000
  C   C7        1.0  0.52982  0.67801  0.85262  1.0000
  C   C8        1.0  0.47018  0.32199  0.14738  1.0000
  C   C9        1.0  0.38225  0.59582  0.84110  1.0000
  C   C10       1.0  0.61775  0.40418  0.15890  1.0000
  C   C11       1.0  0.08474  0.39274  0.86357  1.0000
  C   C12       1.0  0.91526  0.60726  0.13643  1.0000
  C   C13       1.0  0.73669  0.33677  0.47718  1.0000
  C   C14       1.0  0.26331  0.66323  0.52283  1.0000
  C   C15       1.0  0.44674  0.40472  0.85218  1.0000
  C   C16       1.0  0.55326  0.59528  0.14782  1.0000
  C   C17       1.0  0.06965  0.16507  0.30304  1.0000
  C   C18       1.0  0.93035  0.83493  0.69696  1.0000
  C   C19       1.0  0.59338  0.48935  0.86640  1.0000
  C   C20       1.0  0.40662  0.51065  0.13360  1.0000
  C   C21       1.0  0.96577  0.20985  0.25519  1.0000
  C   C22       1.0  0.03423  0.79015  0.74482  1.0000
  C   C23       1.0  0.63674  0.62762  0.86603  1.0000
  C   C24       1.0  0.36326  0.37238  0.13397  1.0000
  C   C25       1.0  0.54185  0.99091  0.80014  1.0000
  C   C26       1.0  0.45815  0.00909  0.19987  1.0000
  C   C27       1.0  0.70447  0.43044  0.88544  1.0000
  C   C28       1.0  0.29553  0.56956  0.11456  1.0000
  C   C29       1.0  0.01786  0.18291  0.81730  1.0000
  C   C30       1.0  0.98214  0.81709  0.18269  1.0000
  C   C31       1.0  0.93490  0.26981  0.43822  1.0000
  C   C32       1.0  0.06510  0.73019  0.56178  1.0000
  C   C33       1.0  0.03628  0.22277  0.48792  1.0000
  C   C34       1.0  0.96372  0.77723  0.51208  1.0000
  C   C35       1.0  0.92642  0.19861  0.13072  1.0000
  C   C36       1.0  0.07358  0.80139  0.86928  1.0000
  C   C37       1.0  0.10312  0.17035  0.41855  1.0000
  C   C38       1.0  0.89689  0.82965  0.58145  1.0000
  C   C39       1.0  0.33566  0.00955  0.46660  1.0000
  C   C40       1.0  0.66434  0.99045  0.53340  1.0000
  C   C41       1.0  0.83224  0.42330  0.64247  1.0000
  C   C42       1.0  0.16776  0.57669  0.35753  1.0000
  C   C43       1.0  0.27154  0.12654  0.57095  1.0000
  C   C44       1.0  0.72846  0.87346  0.42905  1.0000
  N   N1        1.0  0.35580  0.05915  0.57526  1.0000
  N   N2        1.0  0.64420  0.94085  0.42474  1.0000
  N   N3        1.0  0.71245  0.39842  0.56267  1.0000
  N   N4        1.0  0.28755  0.60158  0.43733  1.0000
  N   N5        1.0  0.19517  0.36999  0.83204  1.0000
  N   N6        1.0  0.80483  0.63001  0.16796  1.0000
  N   N7        1.0  0.47624  0.85904  0.78215  1.0000
  N   N8        1.0  0.52375  0.14096  0.21785  1.0000
  N   N9        1.0  0.56781  0.81724  0.84835  1.0000
  N   N10       1.0  0.43219  0.18276  0.15165  1.0000
  N   N11       1.0  0.97153  0.27548  0.85555  1.0000
  N   N12       1.0  0.02847  0.72452  0.14445  1.0000
  N   N13       1.0  0.86596  0.32515  0.50496  1.0000
  N   N14       1.0  0.13404  0.67485  0.49504  1.0000
  N   N15       1.0  0.67026  0.03443  0.87442  1.0000
  N   N16       1.0  0.32974  0.96557  0.12558  1.0000
  N   N17       1.0  0.24522  0.04219  0.39602  1.0000
  N   N18       1.0  0.75478  0.95780  0.60398  1.0000
  N   N19       1.0  0.92818  0.38036  0.61190  1.0000
  N   N20       1.0  0.07182  0.61964  0.38810  1.0000
  N   N21       1.0  0.15337  0.23596  0.80161  1.0000
  N   N22       1.0  0.84663  0.76404  0.19839  1.0000
  N   N23       1.0  0.20409  0.11774  0.46400  1.0000
  N   N24       1.0  0.79591  0.88226  0.53600  1.0000
  O   O1        1.0  0.83690  0.50528  0.90411  1.0000
  O   O2        1.0  0.16310  0.49472  0.09589  1.0000
  O   O3        1.0  0.97055  0.13246  0.07124  1.0000
  O   O4        1.0  0.02946  0.86754  0.92876  1.0000
  O   O5        1.0  0.84341  0.25836  0.09265  1.0000
  O   O6        1.0  0.15659  0.74165  0.90735  1.0000
  O   O7        1.0  0.65130  0.30122  0.88270  1.0000
  O   O8        1.0  0.34870  0.69878  0.11730  1.0000
