data_image0
_chemical_formula_structural       Cu3P4H18C16N2O18
_chemical_formula_sum              "Cu3 P4 H18 C16 N2 O18"
_cell_length_a       8.47676
_cell_length_b       8.92252
_cell_length_c       9.6412
_cell_angle_alpha    109.64
_cell_angle_beta     99.7424
_cell_angle_gamma    109.383

_space_group_name_H-M_alt    "P 1"
_space_group_IT_number       1

loop_
  _space_group_symop_operation_xyz
  'x, y, z'

loop_
  _atom_site_type_symbol
  _atom_site_label
  _atom_site_symmetry_multiplicity
  _atom_site_fract_x
  _atom_site_fract_y
  _atom_site_fract_z
  _atom_site_occupancy
  Cu  Cu1       1.0  0.00059  0.00048  0.00010  1.0000
  Cu  Cu2       1.0  0.27120  0.24256  0.52198  1.0000
  Cu  Cu3       1.0  0.72820  0.75690  0.47811  1.0000
  P   P1        1.0  0.03398  0.70962  0.70154  1.0000
  P   P2        1.0  0.96610  0.29057  0.29817  1.0000
  P   P3        1.0  0.09772  0.07067  0.72885  1.0000
  P   P4        1.0  0.90221  0.92895  0.27095  1.0000
  H   H1        1.0  0.12790  0.50832  0.60814  1.0000
  H   H2        1.0  0.87156  0.49144  0.39148  1.0000
  H   H3        1.0  0.49449  0.28484  0.06671  1.0000
  H   H4        1.0  0.50600  0.71539  0.93364  1.0000
  H   H5        1.0  0.71954  0.57099  0.10676  1.0000
  H   H6        1.0  0.28054  0.42927  0.89325  1.0000
  H   H7        1.0  0.78029  0.35306  0.67379  1.0000
  H   H8        1.0  0.21978  0.64688  0.32624  1.0000
  H   H9        1.0  0.56611  0.05372  0.62289  1.0000
  H   H10       1.0  0.43419  0.94621  0.37744  1.0000
  H   H11       1.0  0.14944  0.89642  0.47295  1.0000
  H   H12       1.0  0.85089  0.10354  0.52674  1.0000
  H   H13       1.0  0.34719  0.97418  0.92005  1.0000
  H   H14       1.0  0.65249  0.02574  0.07980  1.0000
  H   H15       1.0  0.41847  0.86860  0.76735  1.0000
  H   H16       1.0  0.58179  0.13148  0.23289  1.0000
  H   H17       1.0  0.83953  0.59153  0.90679  1.0000
  H   H18       1.0  0.16025  0.40867  0.09320  1.0000
  C   C1        1.0  0.55407  0.29212  0.97632  1.0000
  C   C2        1.0  0.44624  0.70803  0.02391  1.0000
  C   C3        1.0  0.67832  0.45306  0.00079  1.0000
  C   C4        1.0  0.32181  0.54713  0.99927  1.0000
  C   C5        1.0  0.71384  0.32927  0.75652  1.0000
  C   C6        1.0  0.28626  0.67078  0.24354  1.0000
  C   C7        1.0  0.59299  0.16538  0.72922  1.0000
  C   C8        1.0  0.40726  0.83466  0.27098  1.0000
  C   C9        1.0  0.18920  0.90376  0.68728  1.0000
  C   C10       1.0  0.81120  0.09620  0.31239  1.0000
  C   C11       1.0  0.48296  0.44014  0.41522  1.0000
  C   C12       1.0  0.51569  0.55901  0.58446  1.0000
  C   C13       1.0  0.50668  0.14447  0.83834  1.0000
  C   C14       1.0  0.49359  0.85565  0.16189  1.0000
  C   C15       1.0  0.37011  0.97007  0.81043  1.0000
  C   C16       1.0  0.63011  0.03001  0.18966  1.0000
  N   N1        1.0  0.75280  0.46845  0.89052  1.0000
  N   N2        1.0  0.24716  0.53169  0.10944  1.0000
  O   O1        1.0  0.54889  0.51379  0.33423  1.0000
  O   O2        1.0  0.44992  0.48536  0.66551  1.0000
  O   O3        1.0  0.90445  0.99105  0.62519  1.0000
  O   O4        1.0  0.09531  0.00869  0.37568  1.0000
  O   O5        1.0  0.87633  0.60873  0.55387  1.0000
  O   O6        1.0  0.12354  0.39166  0.44596  1.0000
  O   O7        1.0  0.21377  0.22391  0.70137  1.0000
  O   O8        1.0  0.78594  0.77629  0.29879  1.0000
  O   O9        1.0  0.11846  0.13836  0.90341  1.0000
  O   O10       1.0  0.88308  0.86204  0.09684  1.0000
  O   O11       1.0  0.99258  0.77318  0.85457  1.0000
  O   O12       1.0  0.00801  0.22779  0.14528  1.0000
  O   O13       1.0  0.13423  0.59173  0.71506  1.0000
  O   O14       1.0  0.86531  0.40803  0.28463  1.0000
  O   O15       1.0  0.39271  0.27700  0.36726  1.0000
  O   O16       1.0  0.60598  0.72216  0.63243  1.0000
  O   O17       1.0  0.21051  0.85265  0.53745  1.0000
  O   O18       1.0  0.79025  0.14767  0.46245  1.0000
