data_image0
_chemical_formula_structural       Ag2H20C12N4O4F6
_chemical_formula_sum              "Ag2 H20 C12 N4 O4 F6"
_cell_length_a       7.73446
_cell_length_b       8.55748
_cell_length_c       8.70943
_cell_angle_alpha    106.373
_cell_angle_beta     113.247
_cell_angle_gamma    104.526

_space_group_name_H-M_alt    "P 1"
_space_group_IT_number       1

loop_
  _space_group_symop_operation_xyz
  'x, y, z'

loop_
  _atom_site_type_symbol
  _atom_site_label
  _atom_site_symmetry_multiplicity
  _atom_site_fract_x
  _atom_site_fract_y
  _atom_site_fract_z
  _atom_site_occupancy
  Ag  Ag1       1.0  0.47503  0.84715  0.14890  1.0000
  Ag  Ag2       1.0  0.52498  0.15285  0.85110  1.0000
  H   H1        1.0  0.72047  0.77618  0.03623  1.0000
  H   H2        1.0  0.27954  0.22382  0.96378  1.0000
  H   H3        1.0  0.24137  0.00651  0.24235  1.0000
  H   H4        1.0  0.75864  0.99350  0.75765  1.0000
  H   H5        1.0  0.52965  0.47614  0.78020  1.0000
  H   H6        1.0  0.47035  0.52386  0.21980  1.0000
  H   H7        1.0  0.37835  0.60538  0.76100  1.0000
  H   H8        1.0  0.62166  0.39462  0.23900  1.0000
  H   H9        1.0  0.81945  0.70364  0.29048  1.0000
  H   H10       1.0  0.18055  0.29637  0.70952  1.0000
  H   H11       1.0  0.79021  0.53409  0.09512  1.0000
  H   H12       1.0  0.20980  0.46592  0.90488  1.0000
  H   H13       1.0  0.48120  0.23313  0.54574  1.0000
  H   H14       1.0  0.51881  0.76688  0.45426  1.0000
  H   H15       1.0  0.59142  0.23139  0.39948  1.0000
  H   H16       1.0  0.40858  0.76862  0.60053  1.0000
  H   H17       1.0  0.16579  0.74527  0.29439  1.0000
  H   H18       1.0  0.83422  0.25474  0.70561  1.0000
  H   H19       1.0  0.22531  0.94236  0.48163  1.0000
  H   H20       1.0  0.77470  0.05764  0.51837  1.0000
  C   C1        1.0  0.45308  0.54157  0.84355  1.0000
  C   C2        1.0  0.54692  0.45843  0.15645  1.0000
  C   C3        1.0  0.70695  0.59797  0.15076  1.0000
  C   C4        1.0  0.29305  0.40203  0.84924  1.0000
  C   C5        1.0  0.53586  0.15561  0.46534  1.0000
  C   C6        1.0  0.46415  0.84439  0.53465  1.0000
  C   C7        1.0  0.28953  0.87398  0.40474  1.0000
  C   C8        1.0  0.71048  0.12603  0.59527  1.0000
  C   C9        1.0  0.90822  0.13420  0.19236  1.0000
  C   C10       1.0  0.09176  0.86580  0.80764  1.0000
  C   C11       1.0  0.07350  0.32032  0.24902  1.0000
  C   C12       1.0  0.92649  0.67967  0.75098  1.0000
  N   N1        1.0  0.60641  0.67964  0.03316  1.0000
  N   N2        1.0  0.39359  0.32036  0.96684  1.0000
  N   N3        1.0  0.36384  0.98251  0.31971  1.0000
  N   N4        1.0  0.63617  0.01750  0.68029  1.0000
  O   O1        1.0  0.73840  0.13701  0.17125  1.0000
  O   O2        1.0  0.26158  0.86298  0.82873  1.0000
  O   O3        1.0  0.96242  0.00653  0.17173  1.0000
  O   O4        1.0  0.03756  0.99346  0.82828  1.0000
  F   F1        1.0  0.03134  0.36151  0.10005  1.0000
  F   F2        1.0  0.96866  0.63847  0.89995  1.0000
  F   F3        1.0  0.26922  0.32888  0.31549  1.0000
  F   F4        1.0  0.73076  0.67110  0.68450  1.0000
  F   F5        1.0  0.07950  0.45566  0.38218  1.0000
  F   F6        1.0  0.92050  0.54433  0.61781  1.0000
