data_image0
_chemical_formula_structural       Cu4H28C24N12Cl4O4
_chemical_formula_sum              "Cu4 H28 C24 N12 Cl4 O4"
_cell_length_a       6.0236
_cell_length_b       6.77614
_cell_length_c       18.4025
_cell_angle_alpha    90.0037
_cell_angle_beta     90.0012
_cell_angle_gamma    93.6763

_space_group_name_H-M_alt    "P 1"
_space_group_IT_number       1

loop_
  _space_group_symop_operation_xyz
  'x, y, z'

loop_
  _atom_site_type_symbol
  _atom_site_label
  _atom_site_symmetry_multiplicity
  _atom_site_fract_x
  _atom_site_fract_y
  _atom_site_fract_z
  _atom_site_occupancy
  Cu  Cu1       1.0  0.92893  0.33783  0.44778  1.0000
  Cu  Cu2       1.0  0.07109  0.16217  0.94777  1.0000
  Cu  Cu3       1.0  0.07106  0.66216  0.55223  1.0000
  Cu  Cu4       1.0  0.92892  0.83785  0.05223  1.0000
  H   H1        1.0  0.42001  0.30132  0.00911  1.0000
  H   H2        1.0  0.57997  0.19862  0.50908  1.0000
  H   H3        1.0  0.57998  0.69866  0.99091  1.0000
  H   H4        1.0  0.42000  0.80135  0.49091  1.0000
  H   H5        1.0  0.27592  0.49289  0.98535  1.0000
  H   H6        1.0  0.72413  0.00709  0.48533  1.0000
  H   H7        1.0  0.72410  0.50711  0.01466  1.0000
  H   H8        1.0  0.27587  0.99289  0.51466  1.0000
  H   H9        1.0  0.03118  0.29530  0.08727  1.0000
  H   H10       1.0  0.96883  0.20470  0.58725  1.0000
  H   H11       1.0  0.96882  0.70469  0.91275  1.0000
  H   H12       1.0  0.03115  0.79529  0.41275  1.0000
  H   H13       1.0  0.52553  0.50335  0.26136  1.0000
  H   H14       1.0  0.47451  0.99670  0.76133  1.0000
  H   H15       1.0  0.47447  0.49670  0.73866  1.0000
  H   H16       1.0  0.52551  0.00326  0.23866  1.0000
  H   H17       1.0  0.87319  0.31473  0.17913  1.0000
  H   H18       1.0  0.12682  0.18535  0.67911  1.0000
  H   H19       1.0  0.12678  0.68534  0.82088  1.0000
  H   H20       1.0  0.87319  0.81462  0.32087  1.0000
  H   H21       1.0  0.75298  0.26176  0.30646  1.0000
  H   H22       1.0  0.24704  0.23829  0.80646  1.0000
  H   H23       1.0  0.24703  0.73827  0.69354  1.0000
  H   H24       1.0  0.75297  0.76166  0.19352  1.0000
  H   H25       1.0  0.37435  0.44890  0.38736  1.0000
  H   H26       1.0  0.62569  0.05110  0.88734  1.0000
  H   H27       1.0  0.62566  0.55110  0.61265  1.0000
  H   H28       1.0  0.37433  0.94886  0.11266  1.0000
  C   C1        1.0  0.31678  0.43579  0.13547  1.0000
  C   C2        1.0  0.68322  0.06426  0.63546  1.0000
  C   C3        1.0  0.68319  0.56426  0.86453  1.0000
  C   C4        1.0  0.31677  0.93571  0.36453  1.0000
  C   C5        1.0  0.21551  0.41133  0.20954  1.0000
  C   C6        1.0  0.78452  0.08871  0.70952  1.0000
  C   C7        1.0  0.78449  0.58872  0.79048  1.0000
  C   C8        1.0  0.21548  0.91127  0.29047  1.0000
  C   C9        1.0  0.35285  0.45101  0.26978  1.0000
  C   C10       1.0  0.64717  0.04902  0.76977  1.0000
  C   C11       1.0  0.64713  0.54902  0.73022  1.0000
  C   C12       1.0  0.35285  0.95096  0.23023  1.0000
  C   C13       1.0  0.99342  0.34582  0.22268  1.0000
  C   C14       1.0  0.00659  0.15424  0.72267  1.0000
  C   C15       1.0  0.00656  0.65423  0.77733  1.0000
  C   C16       1.0  0.99342  0.84576  0.27732  1.0000
  C   C17       1.0  0.92190  0.31905  0.29388  1.0000
  C   C18       1.0  0.07811  0.18100  0.79387  1.0000
  C   C19       1.0  0.07809  0.68098  0.70613  1.0000
  C   C20       1.0  0.92191  0.81898  0.20612  1.0000
  C   C21       1.0  0.26976  0.42177  0.33951  1.0000
  C   C22       1.0  0.73027  0.07824  0.83950  1.0000
  C   C23       1.0  0.73024  0.57824  0.66049  1.0000
  C   C24       1.0  0.26974  0.92174  0.16050  1.0000
  N   N1        1.0  0.26269  0.35380  0.00825  1.0000
  N   N2        1.0  0.73731  0.14619  0.50823  1.0000
  N   N3        1.0  0.73730  0.64620  0.99176  1.0000
  N   N4        1.0  0.26265  0.85379  0.49176  1.0000
  N   N5        1.0  0.18600  0.36521  0.08036  1.0000
  N   N6        1.0  0.81403  0.13481  0.58034  1.0000
  N   N7        1.0  0.81403  0.63480  0.91965  1.0000
  N   N8        1.0  0.18597  0.86519  0.41965  1.0000
  N   N9        1.0  0.05611  0.35611  0.35219  1.0000
  N   N10       1.0  0.94393  0.14389  0.85218  1.0000
  N   N11       1.0  0.94389  0.64390  0.64782  1.0000
  N   N12       1.0  0.05609  0.85609  0.14781  1.0000
  Cl  Cl1       1.0  0.74368  0.64288  0.46474  1.0000
  Cl  Cl2       1.0  0.25630  0.85710  0.96474  1.0000
  Cl  Cl3       1.0  0.25631  0.35710  0.53527  1.0000
  Cl  Cl4       1.0  0.74369  0.14291  0.03527  1.0000
  O   O1        1.0  0.50878  0.51116  0.12636  1.0000
  O   O2        1.0  0.49127  0.98888  0.62635  1.0000
  O   O3        1.0  0.49123  0.48891  0.87364  1.0000
  O   O4        1.0  0.50875  0.01106  0.37365  1.0000
