data_image0
_chemical_formula_structural       Ag2P4H48Au2C52S4
_chemical_formula_sum              "Ag2 P4 H48 Au2 C52 S4"
_cell_length_a       6.54078
_cell_length_b       12.3869
_cell_length_c       16.3672
_cell_angle_alpha    68.0126
_cell_angle_beta     77.7911
_cell_angle_gamma    75.6276

_space_group_name_H-M_alt    "P 1"
_space_group_IT_number       1

loop_
  _space_group_symop_operation_xyz
  'x, y, z'

loop_
  _atom_site_type_symbol
  _atom_site_label
  _atom_site_symmetry_multiplicity
  _atom_site_fract_x
  _atom_site_fract_y
  _atom_site_fract_z
  _atom_site_occupancy
  Ag  Ag1       1.0  0.86280  0.24618  0.75293  1.0000
  Ag  Ag2       1.0  0.13714  0.75380  0.24705  1.0000
  P   P1        1.0  0.20487  0.99022  0.85495  1.0000
  P   P2        1.0  0.95128  0.49133  0.35665  1.0000
  P   P3        1.0  0.79513  0.00980  0.14508  1.0000
  P   P4        1.0  0.04867  0.50865  0.64333  1.0000
  H   H1        1.0  0.51228  0.05423  0.85846  1.0000
  H   H2        1.0  0.57573  0.54792  0.37546  1.0000
  H   H3        1.0  0.48764  0.94581  0.14162  1.0000
  H   H4        1.0  0.42424  0.45203  0.62447  1.0000
  H   H5        1.0  0.27763  0.11324  0.91716  1.0000
  H   H6        1.0  0.70985  0.61206  0.42448  1.0000
  H   H7        1.0  0.72222  0.88682  0.08289  1.0000
  H   H8        1.0  0.29003  0.38785  0.57553  1.0000
  H   H9        1.0  0.60546  0.00504  0.72960  1.0000
  H   H10       1.0  0.65452  0.51697  0.23313  1.0000
  H   H11       1.0  0.39458  0.99502  0.27046  1.0000
  H   H12       1.0  0.34544  0.48301  0.76686  1.0000
  H   H13       1.0  0.73038  0.94324  0.59575  1.0000
  H   H14       1.0  0.71296  0.45652  0.09900  1.0000
  H   H15       1.0  0.26976  0.05681  0.40432  1.0000
  H   H16       1.0  0.28705  0.54351  0.90095  1.0000
  H   H17       1.0  0.50084  0.84941  0.54999  1.0000
  H   H18       1.0  0.06894  0.35431  0.05187  1.0000
  H   H19       1.0  0.49939  0.15064  0.45005  1.0000
  H   H20       1.0  0.93107  0.64575  0.94808  1.0000
  H   H21       1.0  0.15732  0.80525  0.64163  1.0000
  H   H22       1.0  0.36423  0.29994  0.14224  1.0000
  H   H23       1.0  0.84287  0.19480  0.35836  1.0000
  H   H24       1.0  0.63575  0.70005  0.85773  1.0000
  H   H25       1.0  0.03124  0.86787  0.77446  1.0000
  H   H26       1.0  0.30763  0.36008  0.27545  1.0000
  H   H27       1.0  0.96883  0.13218  0.22553  1.0000
  H   H28       1.0  0.69233  0.63985  0.72455  1.0000
  H   H29       1.0  0.95459  0.80962  0.97012  1.0000
  H   H30       1.0  0.27605  0.31468  0.46173  1.0000
  H   H31       1.0  0.04538  0.19039  0.02991  1.0000
  H   H32       1.0  0.72390  0.68529  0.53824  1.0000
  H   H33       1.0  0.04033  0.62333  0.09836  1.0000
  H   H34       1.0  0.25312  0.12632  0.59103  1.0000
  H   H35       1.0  0.95968  0.37664  0.90165  1.0000
  H   H36       1.0  0.74685  0.87367  0.40895  1.0000
  H   H37       1.0  0.39079  0.56928  0.15096  1.0000
  H   H38       1.0  0.90609  0.06437  0.65325  1.0000
  H   H39       1.0  0.60927  0.43067  0.84902  1.0000
  H   H40       1.0  0.09388  0.93563  0.34675  1.0000
  H   H41       1.0  0.66053  0.69900  0.07647  1.0000
  H   H42       1.0  0.57751  0.18867  0.58834  1.0000
  H   H43       1.0  0.33952  0.30095  0.92349  1.0000
  H   H44       1.0  0.42245  0.81132  0.41168  1.0000
  H   H45       1.0  0.58008  0.88112  0.94700  1.0000
  H   H46       1.0  0.60033  0.37291  0.45863  1.0000
  H   H47       1.0  0.41991  0.11888  0.05300  1.0000
  H   H48       1.0  0.39961  0.62707  0.54137  1.0000
  Au  Au1       1.0  0.31241  0.25177  0.74560  1.0000
  Au  Au2       1.0  0.68753  0.74823  0.25442  1.0000
  C   C1        1.0  0.34362  0.09587  0.85466  1.0000
  C   C2        1.0  0.71032  0.59246  0.36418  1.0000
  C   C3        1.0  0.65628  0.90417  0.14539  1.0000
  C   C4        1.0  0.28963  0.40749  0.63580  1.0000
  C   C5        1.0  0.30901  0.94187  0.75943  1.0000
  C   C6        1.0  0.97845  0.44376  0.26171  1.0000
  C   C7        1.0  0.69104  0.05819  0.24061  1.0000
  C   C8        1.0  0.02151  0.55621  0.73828  1.0000
  C   C9        1.0  0.50803  0.96113  0.71023  1.0000
  C   C10       1.0  0.80936  0.46901  0.21318  1.0000
  C   C11       1.0  0.49204  0.03893  0.28983  1.0000
  C   C12       1.0  0.19062  0.53097  0.78680  1.0000
  C   C13       1.0  0.57768  0.92650  0.63538  1.0000
  C   C14       1.0  0.84241  0.43533  0.13815  1.0000
  C   C15       1.0  0.42244  0.07355  0.36469  1.0000
  C   C16       1.0  0.15761  0.56468  0.86181  1.0000
  C   C17       1.0  0.44976  0.87251  0.61001  1.0000
  C   C18       1.0  0.04257  0.37673  0.11190  1.0000
  C   C19       1.0  0.55041  0.12754  0.39002  1.0000
  C   C20       1.0  0.95742  0.62329  0.88805  1.0000
  C   C21       1.0  0.25531  0.84900  0.66088  1.0000
  C   C22       1.0  0.20900  0.34740  0.16212  1.0000
  C   C23       1.0  0.74483  0.15105  0.33914  1.0000
  C   C24       1.0  0.79097  0.65258  0.83785  1.0000
  C   C25       1.0  0.18520  0.88348  0.73553  1.0000
  C   C26       1.0  0.17694  0.38063  0.23700  1.0000
  C   C27       1.0  0.81490  0.11657  0.26447  1.0000
  C   C28       1.0  0.82302  0.61933  0.76299  1.0000
  C   C29       1.0  0.26189  0.85558  0.94953  1.0000
  C   C30       1.0  0.94147  0.35453  0.45132  1.0000
  C   C31       1.0  0.73807  0.14442  0.05049  1.0000
  C   C32       1.0  0.05849  0.64544  0.54866  1.0000
  C   C33       1.0  0.11074  0.78297  0.99263  1.0000
  C   C34       1.0  0.12444  0.28497  0.48896  1.0000
  C   C35       1.0  0.88923  0.21704  0.00738  1.0000
  C   C36       1.0  0.87554  0.71500  0.51102  1.0000
  C   C37       1.0  0.15826  0.67965  0.06428  1.0000
  C   C38       1.0  0.11149  0.18031  0.56096  1.0000
  C   C39       1.0  0.84174  0.32034  0.93571  1.0000
  C   C40       1.0  0.88849  0.81967  0.43902  1.0000
  C   C41       1.0  0.35682  0.64909  0.09394  1.0000
  C   C42       1.0  0.91489  0.14525  0.59616  1.0000
  C   C43       1.0  0.64321  0.35089  0.90604  1.0000
  C   C44       1.0  0.08509  0.85473  0.40383  1.0000
  C   C45       1.0  0.50816  0.72153  0.05145  1.0000
  C   C46       1.0  0.73162  0.21437  0.55893  1.0000
  C   C47       1.0  0.49187  0.27844  0.94853  1.0000
  C   C48       1.0  0.26835  0.78561  0.44107  1.0000
  C   C49       1.0  0.46188  0.82426  0.97918  1.0000
  C   C50       1.0  0.74449  0.31844  0.48656  1.0000
  C   C51       1.0  0.53811  0.17573  0.02082  1.0000
  C   C52       1.0  0.25546  0.68154  0.51344  1.0000
  S   S1        1.0  0.88651  0.04475  0.86014  1.0000
  S   S2        1.0  0.21354  0.55242  0.35217  1.0000
  S   S3        1.0  0.11344  0.95525  0.13987  1.0000
  S   S4        1.0  0.78640  0.44756  0.64781  1.0000
