data_image0
_chemical_formula_structural       Li4H32C36N16O8F12
_chemical_formula_sum              "Li4 H32 C36 N16 O8 F12"
_cell_length_a       8.50049
_cell_length_b       10.0583
_cell_length_c       15.3478
_cell_angle_alpha    102.766
_cell_angle_beta     99.4474
_cell_angle_gamma    98.6444

_space_group_name_H-M_alt    "P 1"
_space_group_IT_number       1

loop_
  _space_group_symop_operation_xyz
  'x, y, z'

loop_
  _atom_site_type_symbol
  _atom_site_label
  _atom_site_symmetry_multiplicity
  _atom_site_fract_x
  _atom_site_fract_y
  _atom_site_fract_z
  _atom_site_occupancy
  Li  Li1       1.0  0.92869  0.72552  0.37619  1.0000
  Li  Li2       1.0  0.07131  0.27448  0.62381  1.0000
  Li  Li3       1.0  0.76735  0.27442  0.01845  1.0000
  Li  Li4       1.0  0.23265  0.72558  0.98155  1.0000
  H   H1        1.0  0.28695  0.92369  0.37027  1.0000
  H   H2        1.0  0.71305  0.07631  0.62973  1.0000
  H   H3        1.0  0.09982  0.96537  0.32128  1.0000
  H   H4        1.0  0.90018  0.03463  0.67872  1.0000
  H   H5        1.0  0.23097  0.90109  0.24868  1.0000
  H   H6        1.0  0.76904  0.09891  0.75132  1.0000
  H   H7        1.0  0.29593  0.68168  0.35413  1.0000
  H   H8        1.0  0.70407  0.31832  0.64587  1.0000
  H   H9        1.0  0.25168  0.65130  0.23238  1.0000
  H   H10       1.0  0.74832  0.34869  0.76762  1.0000
  H   H11       1.0  0.99949  0.48463  0.21949  1.0000
  H   H12       1.0  0.00051  0.51537  0.78051  1.0000
  H   H13       1.0  0.16366  0.43581  0.28653  1.0000
  H   H14       1.0  0.83634  0.56419  0.71347  1.0000
  H   H15       1.0  0.91314  0.33131  0.36205  1.0000
  H   H16       1.0  0.08686  0.66869  0.63795  1.0000
  H   H17       1.0  0.79239  0.40242  0.28357  1.0000
  H   H18       1.0  0.20762  0.59757  0.71643  1.0000
  H   H19       1.0  0.66914  0.40393  0.41801  1.0000
  H   H20       1.0  0.33087  0.59607  0.58199  1.0000
  H   H21       1.0  0.85641  0.49536  0.49397  1.0000
  H   H22       1.0  0.14359  0.50464  0.50603  1.0000
  H   H23       1.0  0.53828  0.60298  0.47248  1.0000
  H   H24       1.0  0.46173  0.39702  0.52752  1.0000
  H   H25       1.0  0.63964  0.77037  0.46789  1.0000
  H   H26       1.0  0.36037  0.22963  0.53211  1.0000
  H   H27       1.0  0.72723  0.68600  0.54972  1.0000
  H   H28       1.0  0.27278  0.31399  0.45028  1.0000
  H   H29       1.0  0.74000  0.04324  0.89678  1.0000
  H   H30       1.0  0.26000  0.95676  0.10322  1.0000
  H   H31       1.0  0.61089  0.12780  0.85977  1.0000
  H   H32       1.0  0.38911  0.87220  0.14023  1.0000
  C   C1        1.0  0.34845  0.20008  0.74781  1.0000
  C   C2        1.0  0.65155  0.79992  0.25219  1.0000
  C   C3        1.0  0.39456  0.99906  0.69380  1.0000
  C   C4        1.0  0.60544  0.00094  0.30620  1.0000
  C   C5        1.0  0.25613  0.02083  0.63754  1.0000
  C   C6        1.0  0.74387  0.97917  0.36246  1.0000
  C   C7        1.0  0.46950  0.88198  0.68289  1.0000
  C   C8        1.0  0.53050  0.11801  0.31711  1.0000
  C   C9        1.0  0.15212  0.92564  0.56140  1.0000
  C   C10       1.0  0.84788  0.07436  0.43860  1.0000
  C   C11       1.0  0.37293  0.34372  0.80843  1.0000
  C   C12       1.0  0.62707  0.65628  0.19157  1.0000
  C   C13       1.0  0.18490  0.89464  0.31069  1.0000
  C   C14       1.0  0.81510  0.10535  0.68931  1.0000
  C   C15       1.0  0.19687  0.65519  0.29288  1.0000
  C   C16       1.0  0.80313  0.34480  0.70712  1.0000
  C   C17       1.0  0.08945  0.51665  0.28433  1.0000
  C   C18       1.0  0.91055  0.48335  0.71567  1.0000
  C   C19       1.0  0.87144  0.42650  0.35185  1.0000
  C   C20       1.0  0.12856  0.57350  0.64815  1.0000
  C   C21       1.0  0.78141  0.47967  0.42530  1.0000
  C   C22       1.0  0.21859  0.52033  0.57470  1.0000
  C   C23       1.0  0.65752  0.66965  0.47977  1.0000
  C   C24       1.0  0.34248  0.33035  0.52023  1.0000
  C   C25       1.0  0.96507  0.85999  0.89302  1.0000
  C   C26       1.0  0.03493  0.14001  0.10698  1.0000
  C   C27       1.0  0.84952  0.68677  0.93284  1.0000
  C   C28       1.0  0.15047  0.31323  0.06716  1.0000
  C   C29       1.0  0.73414  0.76850  0.91109  1.0000
  C   C30       1.0  0.26586  0.23150  0.08890  1.0000
  C   C31       1.0  0.82425  0.56410  0.96277  1.0000
  C   C32       1.0  0.17575  0.43591  0.03723  1.0000
  C   C33       1.0  0.56746  0.74672  0.91416  1.0000
  C   C34       1.0  0.43253  0.25328  0.08584  1.0000
  C   C35       1.0  0.09017  0.95109  0.86289  1.0000
  C   C36       1.0  0.90983  0.04891  0.13711  1.0000
  N   N1        1.0  0.22869  0.15062  0.67299  1.0000
  N   N2        1.0  0.77131  0.84938  0.32701  1.0000
  N   N3        1.0  0.45118  0.11465  0.76400  1.0000
  N   N4        1.0  0.54882  0.88535  0.23600  1.0000
  N   N5        1.0  0.06535  0.84400  0.49953  1.0000
  N   N6        1.0  0.93465  0.15600  0.50047  1.0000
  N   N7        1.0  0.53185  0.78523  0.67170  1.0000
  N   N8        1.0  0.46815  0.21477  0.32830  1.0000
  N   N9        1.0  0.81062  0.87914  0.88608  1.0000
  N   N10       1.0  0.18938  0.12086  0.11392  1.0000
  N   N11       1.0  0.99739  0.74698  0.92094  1.0000
  N   N12       1.0  0.00260  0.25302  0.07906  1.0000
  N   N13       1.0  0.43018  0.72617  0.91764  1.0000
  N   N14       1.0  0.56982  0.27383  0.08235  1.0000
  N   N15       1.0  0.80036  0.46204  0.98673  1.0000
  N   N16       1.0  0.19964  0.53796  0.01328  1.0000
  O   O1        1.0  0.09684  0.75775  0.30088  1.0000
  O   O2        1.0  0.90316  0.24225  0.69912  1.0000
  O   O3        1.0  0.00716  0.53541  0.35943  1.0000
  O   O4        1.0  0.99284  0.46459  0.64057  1.0000
  O   O5        1.0  0.74283  0.60946  0.41327  1.0000
  O   O6        1.0  0.25717  0.39054  0.58673  1.0000
  O   O7        1.0  0.70671  0.13490  0.90841  1.0000
  O   O8        1.0  0.29329  0.86510  0.09159  1.0000
  F   F1        1.0  0.49446  0.43355  0.79008  1.0000
  F   F2        1.0  0.50555  0.56645  0.20992  1.0000
  F   F3        1.0  0.41589  0.34518  0.89790  1.0000
  F   F4        1.0  0.58411  0.65483  0.10210  1.0000
  F   F5        1.0  0.23603  0.39804  0.79716  1.0000
  F   F6        1.0  0.76397  0.60196  0.20283  1.0000
  F   F7        1.0  0.06512  0.08355  0.87462  1.0000
  F   F8        1.0  0.93487  0.91645  0.12538  1.0000
  F   F9        1.0  0.24355  0.95535  0.90720  1.0000
  F   F10       1.0  0.75644  0.04466  0.09280  1.0000
  F   F11       1.0  0.08649  0.90156  0.77089  1.0000
  F   F12       1.0  0.91351  0.09844  0.22911  1.0000
