data_image0
_chemical_formula_structural       Zn4H56C32N8O28
_chemical_formula_sum              "Zn4 H56 C32 N8 O28"
_cell_length_a       8.40138
_cell_length_b       9.45717
_cell_length_c       17.6199
_cell_angle_alpha    90.0008
_cell_angle_beta     89.9997
_cell_angle_gamma    103.963

_space_group_name_H-M_alt    "P 1"
_space_group_IT_number       1

loop_
  _space_group_symop_operation_xyz
  'x, y, z'

loop_
  _atom_site_type_symbol
  _atom_site_label
  _atom_site_symmetry_multiplicity
  _atom_site_fract_x
  _atom_site_fract_y
  _atom_site_fract_z
  _atom_site_occupancy
  Zn  Zn1       1.0  0.30954  0.20241  0.15936  1.0000
  Zn  Zn2       1.0  0.19045  0.79758  0.65936  1.0000
  Zn  Zn3       1.0  0.69046  0.79758  0.84064  1.0000
  Zn  Zn4       1.0  0.80953  0.20241  0.34065  1.0000
  H   H1        1.0  0.06796  0.50990  0.14851  1.0000
  H   H2        1.0  0.43203  0.49010  0.64850  1.0000
  H   H3        1.0  0.93204  0.49010  0.85150  1.0000
  H   H4        1.0  0.56797  0.50990  0.35150  1.0000
  H   H5        1.0  0.20938  0.50061  0.22318  1.0000
  H   H6        1.0  0.29062  0.49939  0.72317  1.0000
  H   H7        1.0  0.79063  0.49939  0.77683  1.0000
  H   H8        1.0  0.70938  0.50061  0.27683  1.0000
  H   H9        1.0  0.08212  0.33180  0.03977  1.0000
  H   H10       1.0  0.41788  0.66820  0.53977  1.0000
  H   H11       1.0  0.91788  0.66820  0.96023  1.0000
  H   H12       1.0  0.58212  0.33180  0.46023  1.0000
  H   H13       1.0  0.28592  0.33598  0.00995  1.0000
  H   H14       1.0  0.21407  0.66402  0.50995  1.0000
  H   H15       1.0  0.71408  0.66403  0.99005  1.0000
  H   H16       1.0  0.78593  0.33598  0.49005  1.0000
  H   H17       1.0  0.50699  0.49793  0.08245  1.0000
  H   H18       1.0  0.99301  0.50207  0.58244  1.0000
  H   H19       1.0  0.49301  0.50208  0.91755  1.0000
  H   H20       1.0  0.00699  0.49792  0.41755  1.0000
  H   H21       1.0  0.47338  0.53796  0.17854  1.0000
  H   H22       1.0  0.02661  0.46204  0.67853  1.0000
  H   H23       1.0  0.52662  0.46204  0.82146  1.0000
  H   H24       1.0  0.97339  0.53796  0.32146  1.0000
  H   H25       1.0  0.32596  0.72153  0.14460  1.0000
  H   H26       1.0  0.17404  0.27847  0.64459  1.0000
  H   H27       1.0  0.67405  0.27847  0.85540  1.0000
  H   H28       1.0  0.82596  0.72153  0.35540  1.0000
  H   H29       1.0  0.50476  0.75613  0.08818  1.0000
  H   H30       1.0  0.99524  0.24388  0.58817  1.0000
  H   H31       1.0  0.49525  0.24388  0.91182  1.0000
  H   H32       1.0  0.00475  0.75613  0.41182  1.0000
  H   H33       1.0  0.27937  0.88211  0.03403  1.0000
  H   H34       1.0  0.22065  0.11789  0.53402  1.0000
  H   H35       1.0  0.72064  0.11790  0.96597  1.0000
  H   H36       1.0  0.77936  0.88210  0.46597  1.0000
  H   H37       1.0  0.16802  0.77889  0.95878  1.0000
  H   H38       1.0  0.33199  0.22112  0.45877  1.0000
  H   H39       1.0  0.83199  0.22112  0.04123  1.0000
  H   H40       1.0  0.66801  0.77889  0.54123  1.0000
  H   H41       1.0  0.44320  0.00182  0.16185  1.0000
  H   H42       1.0  0.05681  0.99819  0.66185  1.0000
  H   H43       1.0  0.55681  0.99818  0.83815  1.0000
  H   H44       1.0  0.94320  0.00182  0.33814  1.0000
  H   H45       1.0  0.42185  0.04764  0.24705  1.0000
  H   H46       1.0  0.07814  0.95236  0.74705  1.0000
  H   H47       1.0  0.57815  0.95236  0.75295  1.0000
  H   H48       1.0  0.92185  0.04764  0.25294  1.0000
  H   H49       1.0  0.03386  0.06823  0.10132  1.0000
  H   H50       1.0  0.46613  0.93176  0.60132  1.0000
  H   H51       1.0  0.96614  0.93177  0.89868  1.0000
  H   H52       1.0  0.53386  0.06822  0.39868  1.0000
  H   H53       1.0  0.09660  0.08135  0.01760  1.0000
  H   H54       1.0  0.40338  0.91862  0.51760  1.0000
  H   H55       1.0  0.90340  0.91864  0.98240  1.0000
  H   H56       1.0  0.59659  0.08133  0.48240  1.0000
  C   C1        1.0  0.03064  0.30568  0.20542  1.0000
  C   C2        1.0  0.46934  0.69432  0.70542  1.0000
  C   C3        1.0  0.96936  0.69431  0.79458  1.0000
  C   C4        1.0  0.53064  0.30569  0.29458  1.0000
  C   C5        1.0  0.14460  0.44292  0.17369  1.0000
  C   C6        1.0  0.35539  0.55707  0.67369  1.0000
  C   C7        1.0  0.85540  0.55707  0.82631  1.0000
  C   C8        1.0  0.64461  0.44293  0.32631  1.0000
  C   C9        1.0  0.20951  0.39579  0.04127  1.0000
  C   C10       1.0  0.29047  0.60422  0.54127  1.0000
  C   C11       1.0  0.79048  0.60422  0.95873  1.0000
  C   C12       1.0  0.70952  0.39578  0.45873  1.0000
  C   C13       1.0  0.21137  0.53509  0.99778  1.0000
  C   C14       1.0  0.28862  0.46492  0.49777  1.0000
  C   C15       1.0  0.78863  0.46492  0.00223  1.0000
  C   C16       1.0  0.71137  0.53508  0.50223  1.0000
  C   C17       1.0  0.42058  0.53098  0.12139  1.0000
  C   C18       1.0  0.07941  0.46902  0.62138  1.0000
  C   C19       1.0  0.57942  0.46902  0.87861  1.0000
  C   C20       1.0  0.92058  0.53097  0.37861  1.0000
  C   C21       1.0  0.38794  0.67620  0.09869  1.0000
  C   C22       1.0  0.11205  0.32380  0.59868  1.0000
  C   C23       1.0  0.61206  0.32380  0.90132  1.0000
  C   C24       1.0  0.88794  0.67620  0.40132  1.0000
  C   C25       1.0  0.28197  0.79764  0.99174  1.0000
  C   C26       1.0  0.21804  0.20236  0.49173  1.0000
  C   C27       1.0  0.71805  0.20237  0.00826  1.0000
  C   C28       1.0  0.78196  0.79764  0.50827  1.0000
  C   C29       1.0  0.42106  0.85450  0.93548  1.0000
  C   C30       1.0  0.07894  0.14550  0.43547  1.0000
  C   C31       1.0  0.57894  0.14550  0.06453  1.0000
  C   C32       1.0  0.92106  0.85450  0.56452  1.0000
  N   N1        1.0  0.26806  0.41262  0.12059  1.0000
  N   N2        1.0  0.23193  0.58738  0.62059  1.0000
  N   N3        1.0  0.73194  0.58738  0.87941  1.0000
  N   N4        1.0  0.76806  0.41262  0.37941  1.0000
  N   N5        1.0  0.28828  0.66350  0.02976  1.0000
  N   N6        1.0  0.21172  0.33650  0.52975  1.0000
  N   N7        1.0  0.71172  0.33650  0.97025  1.0000
  N   N8        1.0  0.78829  0.66350  0.47025  1.0000
  O   O1        1.0  0.06272  0.18123  0.19303  1.0000
  O   O2        1.0  0.43728  0.81877  0.69303  1.0000
  O   O3        1.0  0.93728  0.81877  0.80697  1.0000
  O   O4        1.0  0.56271  0.18123  0.30696  1.0000
  O   O5        1.0  0.91230  0.32369  0.24492  1.0000
  O   O6        1.0  0.58768  0.67630  0.74493  1.0000
  O   O7        1.0  0.08770  0.67631  0.75508  1.0000
  O   O8        1.0  0.41230  0.32370  0.25507  1.0000
  O   O9        1.0  0.14221  0.52614  0.93484  1.0000
  O   O10       1.0  0.35778  0.47387  0.43483  1.0000
  O   O11       1.0  0.85778  0.47387  0.06517  1.0000
  O   O12       1.0  0.64221  0.52613  0.56517  1.0000
  O   O13       1.0  0.52303  0.77517  0.92504  1.0000
  O   O14       1.0  0.97697  0.22482  0.42504  1.0000
  O   O15       1.0  0.47697  0.22483  0.07497  1.0000
  O   O16       1.0  0.02303  0.77518  0.57496  1.0000
  O   O17       1.0  0.42202  0.97360  0.90298  1.0000
  O   O18       1.0  0.07799  0.02640  0.40298  1.0000
  O   O19       1.0  0.57799  0.02640  0.09702  1.0000
  O   O20       1.0  0.92202  0.97361  0.59702  1.0000
  O   O21       1.0  0.35646  0.01139  0.20117  1.0000
  O   O22       1.0  0.14354  0.98860  0.70117  1.0000
  O   O23       1.0  0.64354  0.98860  0.79883  1.0000
  O   O24       1.0  0.85646  0.01139  0.29883  1.0000
  O   O25       1.0  0.10619  0.03359  0.06591  1.0000
  O   O26       1.0  0.39383  0.96642  0.56590  1.0000
  O   O27       1.0  0.89381  0.96641  0.93409  1.0000
  O   O28       1.0  0.60623  0.03362  0.43408  1.0000
