data_image0
_chemical_formula_structural       Ag2H16C10N4Cl2
_chemical_formula_sum              "Ag2 H16 C10 N4 Cl2"
_cell_length_a       6.19541
_cell_length_b       7.99472
_cell_length_c       8.33675
_cell_angle_alpha    109.576
_cell_angle_beta     111.767
_cell_angle_gamma    90.0092

_space_group_name_H-M_alt    "P 1"
_space_group_IT_number       1

loop_
  _space_group_symop_operation_xyz
  'x, y, z'

loop_
  _atom_site_type_symbol
  _atom_site_label
  _atom_site_symmetry_multiplicity
  _atom_site_fract_x
  _atom_site_fract_y
  _atom_site_fract_z
  _atom_site_occupancy
  Ag  Ag1       1.0  0.50000  0.00000  0.00000  1.0000
  Ag  Ag2       1.0  0.99999  1.00000  1.00000  1.0000
  H   H1        1.0  0.20653  0.18354  0.41325  1.0000
  H   H2        1.0  0.79347  0.81646  0.58674  1.0000
  H   H3        1.0  0.13859  0.81121  0.27701  1.0000
  H   H4        1.0  0.86142  0.18879  0.72299  1.0000
  H   H5        1.0  0.35019  0.67006  0.70166  1.0000
  H   H6        1.0  0.64982  0.32994  0.29835  1.0000
  H   H7        1.0  0.38555  0.60000  0.48594  1.0000
  H   H8        1.0  0.09959  0.60040  0.48594  1.0000
  H   H9        1.0  0.61446  0.40000  0.51407  1.0000
  H   H10       1.0  0.90042  0.39961  0.51406  1.0000
  H   H11       1.0  0.47248  0.32637  0.94522  1.0000
  H   H12       1.0  0.52750  0.67363  0.05478  1.0000
  H   H13       1.0  0.24799  0.39923  0.78695  1.0000
  H   H14       1.0  0.53871  0.39912  0.78671  1.0000
  H   H15       1.0  0.75199  0.60077  0.21304  1.0000
  H   H16       1.0  0.46128  0.60088  0.21329  1.0000
  C   C1        1.0  0.36598  0.99987  0.73219  1.0000
  C   C2        1.0  0.63402  0.00013  0.26781  1.0000
  C   C3        1.0  0.24286  0.08990  0.48590  1.0000
  C   C4        1.0  0.75715  0.91011  0.51410  1.0000
  C   C5        1.0  0.20934  0.90690  0.41849  1.0000
  C   C6        1.0  0.79067  0.09310  0.58151  1.0000
  C   C7        1.0  0.27994  0.67057  0.56059  1.0000
  C   C8        1.0  0.72007  0.32943  0.43942  1.0000
  C   C9        1.0  0.40232  0.32853  0.80480  1.0000
  C   C10       1.0  0.59767  0.67147  0.19519  1.0000
  N   N1        1.0  0.33841  0.14349  0.67713  1.0000
  N   N2        1.0  0.66159  0.85651  0.32287  1.0000
  N   N3        1.0  0.28552  0.85536  0.57107  1.0000
  N   N4        1.0  0.71448  0.14464  0.42893  1.0000
  Cl  Cl1       1.0  0.06269  0.31628  0.12521  1.0000
  Cl  Cl2       1.0  0.93731  0.68372  0.87479  1.0000
