data_image0
_chemical_formula_structural       Ag2H16C10Br2N4
_chemical_formula_sum              "Ag2 H16 C10 Br2 N4"
_cell_length_a       6.19642
_cell_length_b       8.23114
_cell_length_c       8.41505
_cell_angle_alpha    108.845
_cell_angle_beta     111.623
_cell_angle_gamma    89.9476

_space_group_name_H-M_alt    "P 1"
_space_group_IT_number       1

loop_
  _space_group_symop_operation_xyz
  'x, y, z'

loop_
  _atom_site_type_symbol
  _atom_site_label
  _atom_site_symmetry_multiplicity
  _atom_site_fract_x
  _atom_site_fract_y
  _atom_site_fract_z
  _atom_site_occupancy
  Ag  Ag1       1.0  1.00000  1.00000  0.00000  1.0000
  Ag  Ag2       1.0  0.50001  0.00001  0.00000  1.0000
  H   H1        1.0  0.29187  0.82543  0.58375  1.0000
  H   H2        1.0  0.70813  0.17458  0.41625  1.0000
  H   H3        1.0  0.35517  0.18509  0.71058  1.0000
  H   H4        1.0  0.64482  0.81491  0.28942  1.0000
  H   H5        1.0  0.28165  0.40771  0.56359  1.0000
  H   H6        1.0  0.71835  0.59229  0.43640  1.0000
  H   H7        1.0  0.13902  0.59717  0.27773  1.0000
  H   H8        1.0  0.86098  0.40282  0.72227  1.0000
  H   H9        1.0  0.31980  0.33996  0.35130  1.0000
  H   H10       1.0  0.03119  0.34011  0.35132  1.0000
  H   H11       1.0  0.68020  0.66004  0.64869  1.0000
  H   H12       1.0  0.96880  0.65988  0.64867  1.0000
  H   H13       1.0  0.20059  0.65824  0.11159  1.0000
  H   H14       1.0  0.91130  0.65831  0.11150  1.0000
  H   H15       1.0  0.79941  0.34176  0.88841  1.0000
  H   H16       1.0  0.08870  0.34169  0.88850  1.0000
  C   C1        1.0  0.09915  0.68308  0.19801  1.0000
  C   C2        1.0  0.90085  0.31692  0.80199  1.0000
  C   C3        1.0  0.13199  0.00024  0.26407  1.0000
  C   C4        1.0  0.86801  0.99976  0.73593  1.0000
  C   C5        1.0  0.21097  0.31826  0.42221  1.0000
  C   C6        1.0  0.78903  0.68174  0.57778  1.0000
  C   C7        1.0  0.28623  0.09221  0.57262  1.0000
  C   C8        1.0  0.71378  0.90780  0.42740  1.0000
  C   C9        1.0  0.25490  0.91524  0.50998  1.0000
  C   C10       1.0  0.74510  0.08475  0.49002  1.0000
  Br  Br1       1.0  0.44180  0.67717  0.88180  1.0000
  Br  Br2       1.0  0.55819  0.32284  0.11820  1.0000
  N   N1        1.0  0.16089  0.86229  0.32181  1.0000
  N   N2        1.0  0.83911  0.13771  0.67819  1.0000
  N   N3        1.0  0.21003  0.14074  0.42024  1.0000
  N   N4        1.0  0.78997  0.85926  0.57976  1.0000
