data_image0
_chemical_formula_structural       K4H64C48N16
_chemical_formula_sum              "K4 H64 C48 N16"
_cell_length_a       6.80602
_cell_length_b       9.37555
_cell_length_c       19.1004
_cell_angle_alpha    90.0001
_cell_angle_beta     89.9997
_cell_angle_gamma    90.0003

_space_group_name_H-M_alt    "P 1"
_space_group_IT_number       1

loop_
  _space_group_symop_operation_xyz
  'x, y, z'

loop_
  _atom_site_type_symbol
  _atom_site_label
  _atom_site_symmetry_multiplicity
  _atom_site_fract_x
  _atom_site_fract_y
  _atom_site_fract_z
  _atom_site_occupancy
  K   K1        1.0  0.92194  0.60712  0.43100  1.0000
  K   K2        1.0  0.57807  0.39288  0.93100  1.0000
  K   K3        1.0  0.42195  0.89289  0.56900  1.0000
  K   K4        1.0  0.07804  0.10711  0.06900  1.0000
  H   H1        1.0  0.57922  0.09097  0.24990  1.0000
  H   H2        1.0  0.92078  0.90903  0.74991  1.0000
  H   H3        1.0  0.07921  0.40901  0.75010  1.0000
  H   H4        1.0  0.42080  0.59099  0.25010  1.0000
  H   H5        1.0  0.40022  0.87348  0.28845  1.0000
  H   H6        1.0  0.09979  0.12652  0.78845  1.0000
  H   H7        1.0  0.90020  0.62651  0.71156  1.0000
  H   H8        1.0  0.59979  0.37349  0.21156  1.0000
  H   H9        1.0  0.20976  0.88653  0.40431  1.0000
  H   H10       1.0  0.29025  0.11347  0.90431  1.0000
  H   H11       1.0  0.70975  0.61346  0.59569  1.0000
  H   H12       1.0  0.79024  0.38654  0.09570  1.0000
  H   H13       1.0  0.19884  0.11367  0.46838  1.0000
  H   H14       1.0  0.30117  0.88633  0.96839  1.0000
  H   H15       1.0  0.69884  0.38633  0.53161  1.0000
  H   H16       1.0  0.80117  0.61367  0.03161  1.0000
  H   H17       1.0  0.21574  0.53744  0.57526  1.0000
  H   H18       1.0  0.28426  0.46256  0.07527  1.0000
  H   H19       1.0  0.71573  0.96255  0.42473  1.0000
  H   H20       1.0  0.78425  0.03745  0.92473  1.0000
  H   H21       1.0  0.22064  0.30097  0.52338  1.0000
  H   H22       1.0  0.27936  0.69903  0.02339  1.0000
  H   H23       1.0  0.72065  0.19903  0.47661  1.0000
  H   H24       1.0  0.77935  0.80098  0.97661  1.0000
  H   H25       1.0  0.52900  0.48361  0.34528  1.0000
  H   H26       1.0  0.97099  0.51639  0.84529  1.0000
  H   H27       1.0  0.02902  0.01640  0.65472  1.0000
  H   H28       1.0  0.47098  0.98360  0.15471  1.0000
  H   H29       1.0  0.50014  0.71753  0.40375  1.0000
  H   H30       1.0  0.99986  0.28247  0.90375  1.0000
  H   H31       1.0  0.00014  0.78247  0.59625  1.0000
  H   H32       1.0  0.49986  0.21753  0.09625  1.0000
  H   H33       1.0  0.97439  0.25397  0.39139  1.0000
  H   H34       1.0  0.52562  0.74603  0.89140  1.0000
  H   H35       1.0  0.47438  0.24602  0.60861  1.0000
  H   H36       1.0  0.02561  0.75398  0.10860  1.0000
  H   H37       1.0  0.76113  0.29562  0.35563  1.0000
  H   H38       1.0  0.73887  0.70437  0.85563  1.0000
  H   H39       1.0  0.26112  0.20437  0.64437  1.0000
  H   H40       1.0  0.23887  0.79563  0.14436  1.0000
  H   H41       1.0  0.14427  0.41781  0.31445  1.0000
  H   H42       1.0  0.35574  0.58220  0.81445  1.0000
  H   H43       1.0  0.64426  0.08219  0.68555  1.0000
  H   H44       1.0  0.85574  0.91780  0.18555  1.0000
  H   H45       1.0  0.91304  0.45973  0.27701  1.0000
  H   H46       1.0  0.58697  0.54027  0.77701  1.0000
  H   H47       1.0  0.41302  0.04027  0.72299  1.0000
  H   H48       1.0  0.08697  0.95973  0.22299  1.0000
  H   H49       1.0  0.09916  0.16277  0.27514  1.0000
  H   H50       1.0  0.40084  0.83723  0.77514  1.0000
  H   H51       1.0  0.59916  0.33723  0.72487  1.0000
  H   H52       1.0  0.90083  0.66277  0.22486  1.0000
  H   H53       1.0  0.87699  0.21226  0.23404  1.0000
  H   H54       1.0  0.62301  0.78774  0.73404  1.0000
  H   H55       1.0  0.37698  0.28774  0.76596  1.0000
  H   H56       1.0  0.12301  0.71226  0.26595  1.0000
  H   H57       1.0  0.27543  0.31401  0.19991  1.0000
  H   H58       1.0  0.22457  0.68599  0.69991  1.0000
  H   H59       1.0  0.77543  0.18599  0.80009  1.0000
  H   H60       1.0  0.72457  0.81401  0.30009  1.0000
  H   H61       1.0  0.07829  0.38375  0.16610  1.0000
  H   H62       1.0  0.42171  0.61624  0.66610  1.0000
  H   H63       1.0  0.57828  0.11624  0.83390  1.0000
  H   H64       1.0  0.92172  0.88375  0.33390  1.0000
  C   C1        1.0  0.49153  0.09405  0.29802  1.0000
  C   C2        1.0  0.00847  0.90594  0.79802  1.0000
  C   C3        1.0  0.99152  0.40593  0.70198  1.0000
  C   C4        1.0  0.50848  0.59407  0.20198  1.0000
  C   C5        1.0  0.39437  0.97020  0.32009  1.0000
  C   C6        1.0  0.10563  0.02980  0.82009  1.0000
  C   C7        1.0  0.89436  0.52979  0.67991  1.0000
  C   C8        1.0  0.60563  0.47021  0.17991  1.0000
  C   C9        1.0  0.28743  0.97910  0.38336  1.0000
  C   C10       1.0  0.21259  0.02090  0.88336  1.0000
  C   C11       1.0  0.78741  0.52091  0.61664  1.0000
  C   C12       1.0  0.71259  0.47908  0.11664  1.0000
  C   C13       1.0  0.28282  0.10658  0.41985  1.0000
  C   C14       1.0  0.21719  0.89342  0.91985  1.0000
  C   C15       1.0  0.78281  0.39342  0.58015  1.0000
  C   C16       1.0  0.71719  0.60658  0.08015  1.0000
  C   C17       1.0  0.38185  0.22941  0.39309  1.0000
  C   C18       1.0  0.11815  0.77060  0.89309  1.0000
  C   C19       1.0  0.88186  0.27060  0.60691  1.0000
  C   C20       1.0  0.61814  0.72942  0.10691  1.0000
  C   C21       1.0  0.28403  0.52313  0.52388  1.0000
  C   C22       1.0  0.21597  0.47688  0.02388  1.0000
  C   C23       1.0  0.78403  0.97686  0.47612  1.0000
  C   C24       1.0  0.71596  0.02314  0.97612  1.0000
  C   C25       1.0  0.28780  0.38833  0.49438  1.0000
  C   C26       1.0  0.21220  0.61167  0.99438  1.0000
  C   C27       1.0  0.78780  0.11167  0.50562  1.0000
  C   C28       1.0  0.71220  0.88833  0.00562  1.0000
  C   C29       1.0  0.37650  0.36527  0.42753  1.0000
  C   C30       1.0  0.12350  0.63472  0.92754  1.0000
  C   C31       1.0  0.87650  0.13472  0.57246  1.0000
  C   C32       1.0  0.62350  0.86527  0.07246  1.0000
  C   C33       1.0  0.45634  0.49154  0.39591  1.0000
  C   C34       1.0  0.04365  0.50847  0.89591  1.0000
  C   C35       1.0  0.95635  0.00849  0.60409  1.0000
  C   C36       1.0  0.54365  0.99152  0.10409  1.0000
  C   C37       1.0  0.44104  0.62187  0.42908  1.0000
  C   C38       1.0  0.05896  0.37813  0.92908  1.0000
  C   C39       1.0  0.94104  0.87813  0.57092  1.0000
  C   C40       1.0  0.55896  0.12189  0.07092  1.0000
  C   C41       1.0  0.99798  0.37383  0.30218  1.0000
  C   C42       1.0  0.50202  0.62617  0.80218  1.0000
  C   C43       1.0  0.49798  0.12617  0.69782  1.0000
  C   C44       1.0  0.00202  0.87383  0.19782  1.0000
  C   C45       1.0  0.02306  0.25214  0.24956  1.0000
  C   C46       1.0  0.47695  0.74787  0.74956  1.0000
  C   C47       1.0  0.52305  0.24786  0.75044  1.0000
  C   C48       1.0  0.97695  0.75214  0.25044  1.0000
  N   N1        1.0  0.48749  0.21910  0.33115  1.0000
  N   N2        1.0  0.01252  0.78089  0.83115  1.0000
  N   N3        1.0  0.98748  0.28089  0.66884  1.0000
  N   N4        1.0  0.51253  0.71910  0.16885  1.0000
  N   N5        1.0  0.35597  0.64378  0.49300  1.0000
  N   N6        1.0  0.14403  0.35622  0.99300  1.0000
  N   N7        1.0  0.85596  0.85621  0.50700  1.0000
  N   N8        1.0  0.64403  0.14378  0.00700  1.0000
  N   N9        1.0  0.89889  0.33474  0.36744  1.0000
  N   N10       1.0  0.60111  0.66526  0.86745  1.0000
  N   N11       1.0  0.39888  0.16526  0.63256  1.0000
  N   N12       1.0  0.10112  0.83474  0.13255  1.0000
  N   N13       1.0  0.13363  0.29067  0.18613  1.0000
  N   N14       1.0  0.36637  0.70932  0.68614  1.0000
  N   N15       1.0  0.63363  0.20933  0.81387  1.0000
  N   N16       1.0  0.86637  0.79068  0.31386  1.0000
