data_image0
_chemical_formula_structural       Zn2H20C20N10O8
_chemical_formula_sum              "Zn2 H20 C20 N10 O8"
_cell_length_a       8.41414
_cell_length_b       8.33014
_cell_length_c       10.3658
_cell_angle_alpha    110.643
_cell_angle_beta     102.572
_cell_angle_gamma    101.424

_space_group_name_H-M_alt    "P 1"
_space_group_IT_number       1

loop_
  _space_group_symop_operation_xyz
  'x, y, z'

loop_
  _atom_site_type_symbol
  _atom_site_label
  _atom_site_symmetry_multiplicity
  _atom_site_fract_x
  _atom_site_fract_y
  _atom_site_fract_z
  _atom_site_occupancy
  Zn  Zn1       1.0  0.40997  0.40781  0.19091  1.0000
  Zn  Zn2       1.0  0.59002  0.59218  0.80908  1.0000
  H   H1        1.0  0.88194  0.91288  0.88050  1.0000
  H   H2        1.0  0.11807  0.08715  0.11952  1.0000
  H   H3        1.0  0.67667  0.24197  0.68789  1.0000
  H   H4        1.0  0.32333  0.75804  0.31210  1.0000
  H   H5        1.0  0.39805  0.00128  0.58270  1.0000
  H   H6        1.0  0.60196  0.99871  0.41727  1.0000
  H   H7        1.0  0.37245  0.72633  0.63500  1.0000
  H   H8        1.0  0.62757  0.27364  0.36494  1.0000
  H   H9        1.0  0.76330  0.91581  0.27604  1.0000
  H   H10       1.0  0.23670  0.08417  0.72403  1.0000
  H   H11       1.0  0.99416  0.20776  0.37729  1.0000
  H   H12       1.0  0.00581  0.79221  0.62279  1.0000
  H   H13       1.0  0.66175  0.36226  0.05761  1.0000
  H   H14       1.0  0.33824  0.63777  0.94238  1.0000
  H   H15       1.0  0.22069  0.47012  0.39408  1.0000
  H   H16       1.0  0.77931  0.52986  0.60591  1.0000
  H   H17       1.0  0.12387  0.51771  0.26370  1.0000
  H   H18       1.0  0.87614  0.48230  0.73632  1.0000
  H   H19       1.0  0.49676  0.19791  0.95693  1.0000
  H   H20       1.0  0.50323  0.80215  0.04304  1.0000
  C   C1        1.0  0.96944  0.23410  0.86564  1.0000
  C   C2        1.0  0.03055  0.76592  0.13436  1.0000
  C   C3        1.0  0.77839  0.93832  0.81484  1.0000
  C   C4        1.0  0.22161  0.06170  0.18517  1.0000
  C   C5        1.0  0.66391  0.12133  0.70866  1.0000
  C   C6        1.0  0.33609  0.87866  0.29131  1.0000
  C   C7        1.0  0.80271  0.09816  0.79445  1.0000
  C   C8        1.0  0.19729  0.90184  0.20554  1.0000
  C   C9        1.0  0.50794  0.98711  0.64992  1.0000
  C   C10       1.0  0.49207  0.01289  0.35006  1.0000
  C   C11       1.0  0.49184  0.83477  0.67793  1.0000
  C   C12       1.0  0.50818  0.16521  0.32202  1.0000
  C   C13       1.0  0.86761  0.83650  0.44410  1.0000
  C   C14       1.0  0.13237  0.16348  0.55591  1.0000
  C   C15       1.0  0.72592  0.66319  0.38755  1.0000
  C   C16       1.0  0.27414  0.33678  0.61248  1.0000
  C   C17       1.0  0.86659  0.95420  0.37512  1.0000
  C   C18       1.0  0.13339  0.04579  0.62492  1.0000
  C   C19       1.0  0.99631  0.11615  0.43060  1.0000
  C   C20       1.0  0.00364  0.88383  0.56942  1.0000
  N   N1        1.0  0.09240  0.22194  0.96545  1.0000
  N   N2        1.0  0.90759  0.77810  0.03456  1.0000
  N   N3        1.0  0.18098  0.46903  0.93753  1.0000
  N   N4        1.0  0.81901  0.53101  0.06248  1.0000
  N   N5        1.0  0.02244  0.38650  0.84649  1.0000
  N   N6        1.0  0.97756  0.61353  0.15351  1.0000
  N   N7        1.0  0.22211  0.36960  0.00820  1.0000
  N   N8        1.0  0.77789  0.63044  0.99181  1.0000
  N   N9        1.0  0.62652  0.81086  0.75889  1.0000
  N   N10       1.0  0.37348  0.18914  0.24108  1.0000
  O   O1        1.0  0.22983  0.49761  0.30978  1.0000
  O   O2        1.0  0.77018  0.50240  0.69023  1.0000
  O   O3        1.0  0.56223  0.27247  0.05837  1.0000
  O   O4        1.0  0.43776  0.72755  0.94161  1.0000
  O   O5        1.0  0.59576  0.63822  0.28111  1.0000
  O   O6        1.0  0.40426  0.36174  0.71895  1.0000
  O   O7        1.0  0.73859  0.55344  0.44402  1.0000
  O   O8        1.0  0.26148  0.44646  0.55594  1.0000
