data_image0
_chemical_formula_structural       Cd2H36C46N8Cl2O8
_chemical_formula_sum              "Cd2 H36 C46 N8 Cl2 O8"
_cell_length_a       10.0612
_cell_length_b       10.3841
_cell_length_c       11.6359
_cell_angle_alpha    68.6963
_cell_angle_beta     72.5723
_cell_angle_gamma    75.2428

_space_group_name_H-M_alt    "P 1"
_space_group_IT_number       1

loop_
  _space_group_symop_operation_xyz
  'x, y, z'

loop_
  _atom_site_type_symbol
  _atom_site_label
  _atom_site_symmetry_multiplicity
  _atom_site_fract_x
  _atom_site_fract_y
  _atom_site_fract_z
  _atom_site_occupancy
  Cd  Cd1       1.0  0.42601  0.32542  0.57144  1.0000
  Cd  Cd2       1.0  0.57399  0.67458  0.42856  1.0000
  H   H1        1.0  0.60467  0.46157  0.28084  1.0000
  H   H2        1.0  0.39533  0.53843  0.71916  1.0000
  H   H3        1.0  0.46440  0.07181  0.40707  1.0000
  H   H4        1.0  0.53560  0.92820  0.59293  1.0000
  H   H5        1.0  0.59495  0.13005  0.15300  1.0000
  H   H6        1.0  0.40505  0.86995  0.84700  1.0000
  H   H7        1.0  0.56879  0.33566  0.96100  1.0000
  H   H8        1.0  0.43122  0.66434  0.03901  1.0000
  H   H9        1.0  0.67816  0.48204  0.74612  1.0000
  H   H10       1.0  0.32184  0.51796  0.25388  1.0000
  H   H11       1.0  0.91958  0.62475  0.91280  1.0000
  H   H12       1.0  0.08042  0.37525  0.08720  1.0000
  H   H13       1.0  0.81591  0.47432  0.12560  1.0000
  H   H14       1.0  0.18410  0.52568  0.87440  1.0000
  H   H15       1.0  0.12331  0.67904  0.62304  1.0000
  H   H16       1.0  0.87668  0.32096  0.37696  1.0000
  H   H17       1.0  0.21202  0.89232  0.59249  1.0000
  H   H18       1.0  0.78798  0.10768  0.40751  1.0000
  H   H19       1.0  0.78540  0.08899  0.72100  1.0000
  H   H20       1.0  0.21460  0.91101  0.27900  1.0000
  H   H21       1.0  0.69759  0.87645  0.74599  1.0000
  H   H22       1.0  0.30240  0.12356  0.25401  1.0000
  H   H23       1.0  0.27628  0.04185  0.64491  1.0000
  H   H24       1.0  0.72372  0.95815  0.35508  1.0000
  H   H25       1.0  0.06004  0.45652  0.58982  1.0000
  H   H26       1.0  0.93996  0.54348  0.41018  1.0000
  H   H27       1.0  0.87057  0.28628  0.62531  1.0000
  H   H28       1.0  0.12943  0.71372  0.37469  1.0000
  H   H29       1.0  0.41947  0.08903  0.01720  1.0000
  H   H30       1.0  0.58054  0.91097  0.98280  1.0000
  H   H31       1.0  0.24886  0.19171  0.01323  1.0000
  H   H32       1.0  0.75114  0.80829  0.98677  1.0000
  H   H33       1.0  0.10023  0.22157  0.89369  1.0000
  H   H34       1.0  0.89977  0.77844  0.10630  1.0000
  H   H35       1.0  0.14437  0.78078  0.10375  1.0000
  H   H36       1.0  0.85563  0.21922  0.89624  1.0000
  C   C1        1.0  0.58628  0.36132  0.28470  1.0000
  C   C2        1.0  0.41372  0.63868  0.71530  1.0000
  C   C3        1.0  0.51402  0.16148  0.34430  1.0000
  C   C4        1.0  0.48599  0.83852  0.65570  1.0000
  C   C5        1.0  0.57541  0.19074  0.21683  1.0000
  C   C6        1.0  0.42459  0.80926  0.78317  1.0000
  C   C7        1.0  0.68564  0.39643  0.05651  1.0000
  C   C8        1.0  0.31436  0.60357  0.94349  1.0000
  C   C9        1.0  0.64672  0.39787  0.95019  1.0000
  C   C10       1.0  0.35329  0.60213  0.04981  1.0000
  C   C11       1.0  0.70629  0.48067  0.83012  1.0000
  C   C12       1.0  0.29371  0.51933  0.16988  1.0000
  C   C13       1.0  0.80184  0.56474  0.81755  1.0000
  C   C14       1.0  0.19816  0.43525  0.18245  1.0000
  C   C15       1.0  0.84274  0.56149  0.92351  1.0000
  C   C16       1.0  0.15727  0.43850  0.07649  1.0000
  C   C17       1.0  0.78507  0.47640  0.04289  1.0000
  C   C18       1.0  0.21493  0.52360  0.95711  1.0000
  C   C19       1.0  0.90554  0.76502  0.68762  1.0000
  C   C20       1.0  0.09446  0.23498  0.31238  1.0000
  C   C21       1.0  0.04994  0.76823  0.64608  1.0000
  C   C22       1.0  0.95006  0.23177  0.35392  1.0000
  C   C23       1.0  0.09960  0.88877  0.62945  1.0000
  C   C24       1.0  0.90040  0.11123  0.37055  1.0000
  C   C25       1.0  0.00521  0.00422  0.65700  1.0000
  C   C26       1.0  0.99479  0.99578  0.34300  1.0000
  C   C27       1.0  0.86022  0.00007  0.69920  1.0000
  C   C28       1.0  0.13978  0.99993  0.30080  1.0000
  C   C29       1.0  0.81035  0.88029  0.71390  1.0000
  C   C30       1.0  0.18965  0.11971  0.28610  1.0000
  C   C31       1.0  0.19429  0.13283  0.63018  1.0000
  C   C32       1.0  0.80571  0.86717  0.36982  1.0000
  C   C33       1.0  0.07741  0.34461  0.60596  1.0000
  C   C34       1.0  0.92259  0.65539  0.39404  1.0000
  C   C35       1.0  0.98190  0.26104  0.62517  1.0000
  C   C36       1.0  0.01810  0.73896  0.37483  1.0000
  C   C37       1.0  0.38118  0.18617  0.82963  1.0000
  C   C38       1.0  0.61881  0.81383  0.17037  1.0000
  C   C39       1.0  0.32962  0.11681  0.97252  1.0000
  C   C40       1.0  0.67038  0.88319  0.02748  1.0000
  C   C41       1.0  0.13996  0.99975  0.99966  1.0000
  C   C42       1.0  0.86004  0.00025  0.00034  1.0000
  C   C43       1.0  0.05764  0.12412  0.94191  1.0000
  C   C44       1.0  0.94236  0.87589  0.05808  1.0000
  C   C45       1.0  0.08120  0.87672  0.05719  1.0000
  C   C46       1.0  0.91881  0.12328  0.94281  1.0000
  N   N1        1.0  0.52201  0.26801  0.38549  1.0000
  N   N2        1.0  0.47799  0.73199  0.61451  1.0000
  N   N3        1.0  0.62072  0.31798  0.18046  1.0000
  N   N4        1.0  0.37928  0.68202  0.81954  1.0000
  N   N5        1.0  0.05751  0.12648  0.63938  1.0000
  N   N6        1.0  0.94248  0.87352  0.36062  1.0000
  N   N7        1.0  0.20910  0.26336  0.60905  1.0000
  N   N8        1.0  0.79089  0.73664  0.39095  1.0000
  Cl  Cl1       1.0  0.66148  0.40908  0.54664  1.0000
  Cl  Cl2       1.0  0.33852  0.59091  0.45336  1.0000
  O   O1        1.0  0.35400  0.31972  0.78936  1.0000
  O   O2        1.0  0.64600  0.68028  0.21064  1.0000
  O   O3        1.0  0.44707  0.10984  0.75962  1.0000
  O   O4        1.0  0.55292  0.89015  0.24038  1.0000
  O   O5        1.0  0.27845  0.98844  0.00488  1.0000
  O   O6        1.0  0.72156  0.01156  0.99512  1.0000
  O   O7        1.0  0.85598  0.64692  0.69697  1.0000
  O   O8        1.0  0.14402  0.35308  0.30303  1.0000
