data_image0
_chemical_formula_structural       Co2H22C30N4O10
_chemical_formula_sum              "Co2 H22 C30 N4 O10"
_cell_length_a       8.02181
_cell_length_b       9.26479
_cell_length_c       10.0505
_cell_angle_alpha    113.619
_cell_angle_beta     102.555
_cell_angle_gamma    102.731

_space_group_name_H-M_alt    "P 1"
_space_group_IT_number       1

loop_
  _space_group_symop_operation_xyz
  'x, y, z'

loop_
  _atom_site_type_symbol
  _atom_site_label
  _atom_site_symmetry_multiplicity
  _atom_site_fract_x
  _atom_site_fract_y
  _atom_site_fract_z
  _atom_site_occupancy
  Co  Co1       1.0  0.12828  0.15079  0.46087  1.0000
  Co  Co2       1.0  0.87171  0.84920  0.53914  1.0000
  H   H1        1.0  0.33068  0.34379  0.37814  1.0000
  H   H2        1.0  0.66932  0.65619  0.62184  1.0000
  H   H3        1.0  0.47171  0.32495  0.51731  1.0000
  H   H4        1.0  0.52829  0.67502  0.48270  1.0000
  H   H5        1.0  0.15322  0.29344  0.97728  1.0000
  H   H6        1.0  0.84679  0.70656  0.02272  1.0000
  H   H7        1.0  0.96835  0.95541  0.12060  1.0000
  H   H8        1.0  0.03165  0.04459  0.87939  1.0000
  H   H9        1.0  0.75198  0.94064  0.89847  1.0000
  H   H10       1.0  0.24804  0.05938  0.10152  1.0000
  H   H11       1.0  0.67033  0.37561  0.22166  1.0000
  H   H12       1.0  0.32966  0.62439  0.77834  1.0000
  H   H13       1.0  0.88149  0.36226  0.43043  1.0000
  H   H14       1.0  0.11849  0.63772  0.56957  1.0000
  H   H15       1.0  0.30748  0.37092  0.80561  1.0000
  H   H16       1.0  0.69251  0.62908  0.19438  1.0000
  H   H17       1.0  0.51605  0.38648  0.03457  1.0000
  H   H18       1.0  0.48396  0.61354  0.96543  1.0000
  H   H19       1.0  0.57043  0.92813  0.72510  1.0000
  H   H20       1.0  0.42957  0.07187  0.27490  1.0000
  H   H21       1.0  0.35004  0.92399  0.51475  1.0000
  H   H22       1.0  0.64995  0.07601  0.48525  1.0000
  C   C1        1.0  0.88146  0.48945  0.86684  1.0000
  C   C2        1.0  0.11855  0.51055  0.13317  1.0000
  C   C3        1.0  0.96698  0.36949  0.85173  1.0000
  C   C4        1.0  0.03304  0.63051  0.14828  1.0000
  C   C5        1.0  0.08267  0.38258  0.98520  1.0000
  C   C6        1.0  0.91735  0.61742  0.01481  1.0000
  C   C7        1.0  0.74450  0.48376  0.73382  1.0000
  C   C8        1.0  0.25550  0.51624  0.26618  1.0000
  C   C9        1.0  0.95511  0.23141  0.70165  1.0000
  C   C10       1.0  0.04489  0.76859  0.29834  1.0000
  C   C11       1.0  0.89932  0.04648  0.13760  1.0000
  C   C12       1.0  0.10068  0.95353  0.86240  1.0000
  C   C13       1.0  0.77831  0.04098  0.01283  1.0000
  C   C14       1.0  0.22170  0.95904  0.98717  1.0000
  C   C15       1.0  0.69287  0.16140  0.03623  1.0000
  C   C16       1.0  0.30712  0.83861  0.96377  1.0000
  C   C17       1.0  0.73381  0.28018  0.19067  1.0000
  C   C18       1.0  0.26618  0.71982  0.80933  1.0000
  C   C19       1.0  0.85430  0.27516  0.31008  1.0000
  C   C20       1.0  0.14569  0.72483  0.68991  1.0000
  C   C21       1.0  0.36803  0.27424  0.79347  1.0000
  C   C22       1.0  0.63197  0.72577  0.20654  1.0000
  C   C23       1.0  0.48774  0.28344  0.92133  1.0000
  C   C24       1.0  0.51226  0.71657  0.07867  1.0000
  C   C25       1.0  0.56603  0.15852  0.90362  1.0000
  C   C26       1.0  0.43397  0.84149  0.09639  1.0000
  C   C27       1.0  0.51612  0.02992  0.75219  1.0000
  C   C28       1.0  0.48387  0.97008  0.24781  1.0000
  C   C29       1.0  0.39157  0.02755  0.63060  1.0000
  C   C30       1.0  0.60842  0.97245  0.36940  1.0000
  N   N1        1.0  0.93892  0.16082  0.28530  1.0000
  N   N2        1.0  0.06108  0.83918  0.71470  1.0000
  N   N3        1.0  0.31568  0.14699  0.64910  1.0000
  N   N4        1.0  0.68431  0.85301  0.35090  1.0000
  O   O1        1.0  0.70989  0.61816  0.75819  1.0000
  O   O2        1.0  0.29012  0.38184  0.24182  1.0000
  O   O3        1.0  0.66968  0.34541  0.60969  1.0000
  O   O4        1.0  0.33031  0.65458  0.39032  1.0000
  O   O5        1.0  0.02109  0.27248  0.61238  1.0000
  O   O6        1.0  0.97891  0.72751  0.38762  1.0000
  O   O7        1.0  0.89616  0.08225  0.68174  1.0000
  O   O8        1.0  0.10384  0.91775  0.31826  1.0000
  O   O9        1.0  0.33974  0.30115  0.45830  1.0000
  O   O10       1.0  0.66027  0.69885  0.54171  1.0000
