data_image0
_chemical_formula_structural       CoH12Ru6C18N6O24
_chemical_formula_sum              "Co1 H12 Ru6 C18 N6 O24"
_cell_length_a       10.9732
_cell_length_b       10.9731
_cell_length_c       10.9731
_cell_angle_alpha    109.471
_cell_angle_beta     109.471
_cell_angle_gamma    109.472

_space_group_name_H-M_alt    "P 1"
_space_group_IT_number       1

loop_
  _space_group_symop_operation_xyz
  'x, y, z'

loop_
  _atom_site_type_symbol
  _atom_site_label
  _atom_site_symmetry_multiplicity
  _atom_site_fract_x
  _atom_site_fract_y
  _atom_site_fract_z
  _atom_site_occupancy
  Co  Co1       1.0  1.00000  1.00000  1.00000  1.0000
  H   H1        1.0  0.29146  0.70879  0.00025  1.0000
  H   H2        1.0  0.70855  0.41735  0.70880  1.0000
  H   H3        1.0  0.70854  0.29121  0.99975  1.0000
  H   H4        1.0  0.29121  0.99974  0.70854  1.0000
  H   H5        1.0  0.70854  0.70879  0.41733  1.0000
  H   H6        1.0  0.29147  0.58269  0.29122  1.0000
  H   H7        1.0  0.29146  0.29121  0.58267  1.0000
  H   H8        1.0  0.70854  0.99975  0.29121  1.0000
  H   H9        1.0  0.58268  0.29146  0.29121  1.0000
  H   H10       1.0  0.99975  0.29120  0.70855  1.0000
  H   H11       1.0  0.00025  0.70878  0.29147  1.0000
  H   H12       1.0  0.41733  0.70879  0.70854  1.0000
  Ru  Ru1       1.0  0.40879  0.40879  1.00000  1.0000
  Ru  Ru2       1.0  0.40880  0.00002  0.40880  1.0000
  Ru  Ru3       1.0  0.59121  0.59121  1.00000  1.0000
  Ru  Ru4       1.0  0.59122  0.00002  0.59122  1.0000
  Ru  Ru5       1.0  1.00000  0.59120  0.59122  1.0000
  Ru  Ru6       1.0  1.00000  0.40878  0.40880  1.0000
  C   C1        1.0  0.35278  0.64731  0.00009  1.0000
  C   C2        1.0  0.64723  0.29454  0.64732  1.0000
  C   C3        1.0  0.64721  0.35269  0.99990  1.0000
  C   C4        1.0  0.35269  0.99991  0.64722  1.0000
  C   C5        1.0  0.64722  0.64731  0.29453  1.0000
  C   C6        1.0  0.35279  0.70549  0.35270  1.0000
  C   C7        1.0  0.35278  0.35269  0.70547  1.0000
  C   C8        1.0  0.64721  0.99990  0.35269  1.0000
  C   C9        1.0  0.70548  0.35278  0.35269  1.0000
  C   C10       1.0  0.99991  0.35268  0.64722  1.0000
  C   C11       1.0  0.00009  0.64730  0.35279  1.0000
  C   C12       1.0  0.29452  0.64731  0.64721  1.0000
  C   C13       1.0  0.14584  0.14584  0.00000  1.0000
  C   C14       1.0  0.14583  0.00000  0.14584  1.0000
  C   C15       1.0  0.85416  0.85416  1.00000  1.0000
  C   C16       1.0  0.85416  0.00000  0.85416  1.0000
  C   C17       1.0  1.00000  0.85416  0.85416  1.0000
  C   C18       1.0  1.00000  0.14584  0.14584  1.0000
  N   N1        1.0  0.23808  0.23808  0.00000  1.0000
  N   N2        1.0  0.23808  0.00000  0.23808  1.0000
  N   N3        1.0  0.76192  0.76192  1.00000  1.0000
  N   N4        1.0  0.76193  0.00001  0.76193  1.0000
  N   N5        1.0  0.00000  0.76192  0.76192  1.0000
  N   N6        1.0  1.00000  0.23808  0.23808  1.0000
  O   O1        1.0  0.29662  0.52484  0.00004  1.0000
  O   O2        1.0  0.52482  0.22825  0.52485  1.0000
  O   O3        1.0  0.52481  0.29658  0.99996  1.0000
  O   O4        1.0  0.29659  0.99998  0.52482  1.0000
  O   O5        1.0  0.70338  0.70342  0.22823  1.0000
  O   O6        1.0  0.29662  0.77179  0.29659  1.0000
  O   O7        1.0  0.47519  0.70342  0.00003  1.0000
  O   O8        1.0  0.47516  0.99998  0.70339  1.0000
  O   O9        1.0  0.47519  0.47515  0.77177  1.0000
  O   O10       1.0  0.70340  0.22825  0.70342  1.0000
  O   O11       1.0  0.70338  0.99996  0.47515  1.0000
  O   O12       1.0  0.52481  0.52484  0.22823  1.0000
  O   O13       1.0  0.47519  0.77179  0.47517  1.0000
  O   O14       1.0  0.70338  0.47515  0.99996  1.0000
  O   O15       1.0  0.52481  0.99996  0.29658  1.0000
  O   O16       1.0  0.29661  0.29658  0.77177  1.0000
  O   O17       1.0  0.77178  0.47518  0.47516  1.0000
  O   O18       1.0  0.99997  0.47515  0.70339  1.0000
  O   O19       1.0  0.00003  0.70340  0.47519  1.0000
  O   O20       1.0  0.77177  0.29661  0.29659  1.0000
  O   O21       1.0  0.99997  0.29658  0.52482  1.0000
  O   O22       1.0  0.22823  0.52484  0.52480  1.0000
  O   O23       1.0  0.00002  0.52483  0.29662  1.0000
  O   O24       1.0  0.22823  0.70342  0.70338  1.0000
