data_image0
_chemical_formula_structural       FeH12Ru6C18N6O24
_chemical_formula_sum              "Fe1 H12 Ru6 C18 N6 O24"
_cell_length_a       10.9595
_cell_length_b       10.9551
_cell_length_c       10.9593
_cell_angle_alpha    109.459
_cell_angle_beta     109.483
_cell_angle_gamma    109.469

_space_group_name_H-M_alt    "P 1"
_space_group_IT_number       1

loop_
  _space_group_symop_operation_xyz
  'x, y, z'

loop_
  _atom_site_type_symbol
  _atom_site_label
  _atom_site_symmetry_multiplicity
  _atom_site_fract_x
  _atom_site_fract_y
  _atom_site_fract_z
  _atom_site_occupancy
  Fe  Fe1       1.0  0.00000  1.00000  0.00000  1.0000
  H   H1        1.0  0.29112  0.70914  0.00000  1.0000
  H   H2        1.0  0.70889  0.41801  0.70889  1.0000
  H   H3        1.0  0.70888  0.29086  1.00000  1.0000
  H   H4        1.0  0.29101  1.00000  0.70901  1.0000
  H   H5        1.0  0.70904  0.70904  0.41807  1.0000
  H   H6        1.0  0.29111  0.58200  0.29111  1.0000
  H   H7        1.0  0.29096  0.29095  0.58192  1.0000
  H   H8        1.0  0.70900  1.00000  0.29099  1.0000
  H   H9        1.0  0.58192  0.29094  0.29095  1.0000
  H   H10       1.0  1.00000  0.29086  0.70890  1.0000
  H   H11       1.0  0.00000  0.70914  0.29110  1.0000
  H   H12       1.0  0.41808  0.70905  0.70905  1.0000
  Ru  Ru1       1.0  0.40852  0.40852  0.99999  1.0000
  Ru  Ru2       1.0  0.40852  0.99998  0.40852  1.0000
  Ru  Ru3       1.0  0.59148  0.59148  0.00001  1.0000
  Ru  Ru4       1.0  0.59149  0.00002  0.59149  1.0000
  Ru  Ru5       1.0  0.00001  0.59147  0.59148  1.0000
  Ru  Ru6       1.0  0.99999  0.40853  0.40852  1.0000
  C   C1        1.0  0.35254  0.64758  0.99999  1.0000
  C   C2        1.0  0.64746  0.29503  0.64746  1.0000
  C   C3        1.0  0.64746  0.35242  0.00000  1.0000
  C   C4        1.0  0.35250  0.00000  0.64751  1.0000
  C   C5        1.0  0.64754  0.64753  0.29507  1.0000
  C   C6        1.0  0.35254  0.70497  0.35254  1.0000
  C   C7        1.0  0.35246  0.35246  0.70493  1.0000
  C   C8        1.0  0.64750  1.00000  0.35249  1.0000
  C   C9        1.0  0.70493  0.35245  0.35245  1.0000
  C   C10       1.0  0.00001  0.35242  0.64748  1.0000
  C   C11       1.0  0.99999  0.64758  0.35252  1.0000
  C   C12       1.0  0.29507  0.64754  0.64755  1.0000
  C   C13       1.0  0.14744  0.14709  0.00000  1.0000
  C   C14       1.0  0.14747  0.00037  0.14748  1.0000
  C   C15       1.0  0.85256  0.85291  1.00000  1.0000
  C   C16       1.0  0.85253  0.99963  0.85253  1.0000
  C   C17       1.0  1.00000  0.85291  0.85255  1.0000
  C   C18       1.0  0.00000  0.14709  0.14745  1.0000
  N   N1        1.0  0.24050  0.23976  0.00000  1.0000
  N   N2        1.0  0.24051  0.00074  0.24052  1.0000
  N   N3        1.0  0.75950  0.76024  0.00000  1.0000
  N   N4        1.0  0.75949  0.99925  0.75949  1.0000
  N   N5        1.0  1.00000  0.76024  0.75949  1.0000
  N   N6        1.0  0.00000  0.23976  0.24050  1.0000
  O   O1        1.0  0.29646  0.52497  0.99999  1.0000
  O   O2        1.0  0.52491  0.22852  0.52490  1.0000
  O   O3        1.0  0.52492  0.29638  0.00001  1.0000
  O   O4        1.0  0.29645  0.99995  0.52490  1.0000
  O   O5        1.0  0.70357  0.70353  0.22850  1.0000
  O   O6        1.0  0.29645  0.77149  0.29645  1.0000
  O   O7        1.0  0.47509  0.70362  0.99999  1.0000
  O   O8        1.0  0.47511  0.00004  0.70356  1.0000
  O   O9        1.0  0.47507  0.47504  0.77152  1.0000
  O   O10       1.0  0.70355  0.22851  0.70355  1.0000
  O   O11       1.0  0.70355  0.00004  0.47510  1.0000
  O   O12       1.0  0.52493  0.52496  0.22848  1.0000
  O   O13       1.0  0.47509  0.77148  0.47510  1.0000
  O   O14       1.0  0.70354  0.47503  0.00001  1.0000
  O   O15       1.0  0.52489  0.99995  0.29644  1.0000
  O   O16       1.0  0.29643  0.29647  0.77150  1.0000
  O   O17       1.0  0.77152  0.47503  0.47506  1.0000
  O   O18       1.0  0.00002  0.47503  0.70355  1.0000
  O   O19       1.0  0.99999  0.70362  0.47507  1.0000
  O   O20       1.0  0.77150  0.29647  0.29642  1.0000
  O   O21       1.0  0.00001  0.29639  0.52493  1.0000
  O   O22       1.0  0.22848  0.52497  0.52494  1.0000
  O   O23       1.0  0.99998  0.52497  0.29645  1.0000
  O   O24       1.0  0.22850  0.70353  0.70357  1.0000
