data_image0
_chemical_formula_structural       P4H56Au4C44S8O4
_chemical_formula_sum              "P4 H56 Au4 C44 S8 O4"
_cell_length_a       11.6268
_cell_length_b       12.4637
_cell_length_c       12.6373
_cell_angle_alpha    119.479
_cell_angle_beta     117.339
_cell_angle_gamma    90.0749

_space_group_name_H-M_alt    "P 1"
_space_group_IT_number       1

loop_
  _space_group_symop_operation_xyz
  'x, y, z'

loop_
  _atom_site_type_symbol
  _atom_site_label
  _atom_site_symmetry_multiplicity
  _atom_site_fract_x
  _atom_site_fract_y
  _atom_site_fract_z
  _atom_site_occupancy
  P   P1        1.0  0.09383  0.29911  0.18771  1.0000
  P   P2        1.0  0.90617  0.70089  0.81229  1.0000
  P   P3        1.0  0.40578  0.11175  0.81249  1.0000
  P   P4        1.0  0.59422  0.88825  0.18751  1.0000
  H   H1        1.0  0.95135  0.12458  0.90214  1.0000
  H   H2        1.0  0.04865  0.87542  0.09786  1.0000
  H   H3        1.0  0.54851  0.22257  0.09808  1.0000
  H   H4        1.0  0.45149  0.77743  0.90192  1.0000
  H   H5        1.0  0.75009  0.13550  0.73632  1.0000
  H   H6        1.0  0.01347  0.86409  0.26383  1.0000
  H   H7        1.0  0.74989  0.39936  0.26382  1.0000
  H   H8        1.0  0.48674  0.60037  0.73607  1.0000
  H   H9        1.0  0.24991  0.86450  0.26368  1.0000
  H   H10       1.0  0.98653  0.13592  0.73617  1.0000
  H   H11       1.0  0.25011  0.60065  0.73619  1.0000
  H   H12       1.0  0.51326  0.39962  0.26393  1.0000
  H   H13       1.0  0.76846  0.25566  0.90020  1.0000
  H   H14       1.0  0.86776  0.74415  0.09992  1.0000
  H   H15       1.0  0.73144  0.35573  0.09984  1.0000
  H   H16       1.0  0.63232  0.64440  0.90009  1.0000
  H   H17       1.0  0.23154  0.74434  0.09980  1.0000
  H   H18       1.0  0.13224  0.25585  0.90008  1.0000
  H   H19       1.0  0.26856  0.64428  0.90017  1.0000
  H   H20       1.0  0.36768  0.35558  0.09990  1.0000
  H   H21       1.0  0.84116  0.42619  0.88182  1.0000
  H   H22       1.0  0.95864  0.57321  0.11696  1.0000
  H   H23       1.0  0.65897  0.54447  0.11812  1.0000
  H   H24       1.0  0.54123  0.45638  0.88312  1.0000
  H   H25       1.0  0.15884  0.57381  0.11818  1.0000
  H   H26       1.0  0.04136  0.42681  0.88305  1.0000
  H   H27       1.0  0.34102  0.45552  0.88187  1.0000
  H   H28       1.0  0.45876  0.54361  0.11687  1.0000
  H   H29       1.0  0.74767  0.30411  0.69788  1.0000
  H   H30       1.0  0.04812  0.69461  0.30111  1.0000
  H   H31       1.0  0.75242  0.60626  0.30210  1.0000
  H   H32       1.0  0.45177  0.39368  0.69893  1.0000
  H   H33       1.0  0.25233  0.69590  0.30213  1.0000
  H   H34       1.0  0.95188  0.30540  0.69889  1.0000
  H   H35       1.0  0.24758  0.39374  0.69790  1.0000
  H   H36       1.0  0.54822  0.60631  0.30107  1.0000
  H   H37       1.0  0.36463  0.47506  0.35753  1.0000
  H   H38       1.0  0.00673  0.52478  0.64182  1.0000
  H   H39       1.0  0.13529  0.11741  0.64262  1.0000
  H   H40       1.0  0.49355  0.88282  0.35840  1.0000
  H   H41       1.0  0.63536  0.52495  0.64247  1.0000
  H   H42       1.0  0.99326  0.47522  0.35817  1.0000
  H   H43       1.0  0.86471  0.88259  0.35737  1.0000
  H   H44       1.0  0.50645  0.11718  0.64161  1.0000
  H   H45       1.0  0.47283  0.69960  0.57434  1.0000
  H   H46       1.0  0.89737  0.30017  0.42490  1.0000
  H   H47       1.0  0.02707  0.12531  0.42572  1.0000
  H   H48       1.0  0.60305  0.87524  0.57559  1.0000
  H   H49       1.0  0.52717  0.30041  0.42566  1.0000
  H   H50       1.0  0.10262  0.69983  0.57509  1.0000
  H   H51       1.0  0.97294  0.87470  0.57428  1.0000
  H   H52       1.0  0.39696  0.12475  0.42441  1.0000
  H   H53       1.0  0.34144  0.81133  0.68181  1.0000
  H   H54       1.0  0.65855  0.18866  0.31820  1.0000
  H   H55       1.0  0.15842  0.12974  0.31810  1.0000
  H   H56       1.0  0.84159  0.87026  0.68190  1.0000
  Au  Au1       1.0  0.12661  0.00015  0.00053  1.0000
  Au  Au2       1.0  0.37356  0.99965  0.99964  1.0000
  Au  Au3       1.0  0.87339  0.99985  0.99946  1.0000
  Au  Au4       1.0  0.62644  0.00034  0.00036  1.0000
  C   C1        1.0  0.95459  0.21607  0.90866  1.0000
  C   C2        1.0  0.04541  0.78393  0.09134  1.0000
  C   C3        1.0  0.54534  0.30752  0.09150  1.0000
  C   C4        1.0  0.45466  0.69247  0.90850  1.0000
  C   C5        1.0  0.81459  0.23057  0.83558  1.0000
  C   C6        1.0  0.97846  0.76914  0.16437  1.0000
  C   C7        1.0  0.68539  0.39517  0.16453  1.0000
  C   C8        1.0  0.52160  0.60485  0.83555  1.0000
  C   C9        1.0  0.18541  0.76944  0.16442  1.0000
  C   C10       1.0  0.02154  0.23087  0.83563  1.0000
  C   C11       1.0  0.31461  0.60483  0.83547  1.0000
  C   C12       1.0  0.47839  0.39514  0.16444  1.0000
  C   C13       1.0  0.83410  0.32972  0.80136  1.0000
  C   C14       1.0  0.03187  0.66979  0.19813  1.0000
  C   C15       1.0  0.66596  0.52841  0.19861  1.0000
  C   C16       1.0  0.46806  0.47177  0.80191  1.0000
  C   C17       1.0  0.16590  0.67029  0.19864  1.0000
  C   C18       1.0  0.96812  0.33022  0.80188  1.0000
  C   C19       1.0  0.33403  0.47158  0.80138  1.0000
  C   C20       1.0  0.53194  0.52822  0.19809  1.0000
  C   C21       1.0  0.17248  0.46127  0.34493  1.0000
  C   C22       1.0  0.82752  0.53872  0.65508  1.0000
  C   C23       1.0  0.32739  0.11663  0.65517  1.0000
  C   C24       1.0  0.67262  0.88337  0.34483  1.0000
  C   C25       1.0  0.30749  0.52436  0.40539  1.0000
  C   C26       1.0  0.90171  0.47554  0.59422  1.0000
  C   C27       1.0  0.19238  0.11907  0.59468  1.0000
  C   C28       1.0  0.59851  0.88117  0.40591  1.0000
  C   C29       1.0  0.69251  0.47565  0.59461  1.0000
  C   C30       1.0  0.09829  0.52445  0.40577  1.0000
  C   C31       1.0  0.80762  0.88093  0.40531  1.0000
  C   C32       1.0  0.40150  0.11882  0.59410  1.0000
  C   C33       1.0  0.36777  0.65023  0.52659  1.0000
  C   C34       1.0  0.84041  0.34968  0.47301  1.0000
  C   C35       1.0  0.13208  0.12375  0.47345  1.0000
  C   C36       1.0  0.65986  0.87661  0.52726  1.0000
  C   C37       1.0  0.63223  0.34977  0.47341  1.0000
  C   C38       1.0  0.15958  0.65032  0.52699  1.0000
  C   C39       1.0  0.86792  0.87626  0.52655  1.0000
  C   C40       1.0  0.34015  0.12339  0.47273  1.0000
  C   C41       1.0  0.29405  0.71295  0.58736  1.0000
  C   C42       1.0  0.70594  0.28704  0.41265  1.0000
  C   C43       1.0  0.20576  0.12572  0.41253  1.0000
  C   C44       1.0  0.79425  0.87428  0.58746  1.0000
  S   S1        1.0  0.24328  0.21364  0.19182  1.0000
  S   S2        1.0  0.05233  0.78667  0.80916  1.0000
  S   S3        1.0  0.25614  0.02266  0.80888  1.0000
  S   S4        1.0  0.44871  0.97745  0.19111  1.0000
  S   S5        1.0  0.75672  0.78636  0.80817  1.0000
  S   S6        1.0  0.94767  0.21333  0.19084  1.0000
  S   S7        1.0  0.74386  0.97734  0.19112  1.0000
  S   S8        1.0  0.55129  0.02255  0.80888  1.0000
  O   O1        1.0  0.03110  0.32320  0.06152  1.0000
  O   O2        1.0  0.96890  0.67680  0.93848  1.0000
  O   O3        1.0  0.46894  0.26192  0.93863  1.0000
  O   O4        1.0  0.53107  0.73807  0.06137  1.0000
