data_image0
_chemical_formula_structural       Ni2H32C42S4N12O6
_chemical_formula_sum              "Ni2 H32 C42 S4 N12 O6"
_cell_length_a       7.96897
_cell_length_b       9.24823
_cell_length_c       15.3197
_cell_angle_alpha    107.385
_cell_angle_beta     93.1522
_cell_angle_gamma    101.648

_space_group_name_H-M_alt    "P 1"
_space_group_IT_number       1

loop_
  _space_group_symop_operation_xyz
  'x, y, z'

loop_
  _atom_site_type_symbol
  _atom_site_label
  _atom_site_symmetry_multiplicity
  _atom_site_fract_x
  _atom_site_fract_y
  _atom_site_fract_z
  _atom_site_occupancy
  Ni  Ni1       1.0  0.28225  0.23556  0.00578  1.0000
  Ni  Ni2       1.0  0.71775  0.76445  0.99422  1.0000
  H   H1        1.0  0.09380  0.43931  0.93231  1.0000
  H   H2        1.0  0.90620  0.56068  0.06769  1.0000
  H   H3        1.0  0.97580  0.44800  0.78083  1.0000
  H   H4        1.0  0.02420  0.55199  0.21917  1.0000
  H   H5        1.0  0.05929  0.98669  0.65807  1.0000
  H   H6        1.0  0.94070  0.01330  0.34193  1.0000
  H   H7        1.0  0.19431  0.00591  0.81275  1.0000
  H   H8        1.0  0.80569  0.99408  0.18725  1.0000
  H   H9        1.0  0.24408  0.05233  0.13900  1.0000
  H   H10       1.0  0.75592  0.94767  0.86101  1.0000
  H   H11       1.0  0.41194  0.03935  0.27929  1.0000
  H   H12       1.0  0.58806  0.96065  0.72072  1.0000
  H   H13       1.0  0.79791  0.42790  0.26229  1.0000
  H   H14       1.0  0.20209  0.57209  0.73771  1.0000
  H   H15       1.0  0.61883  0.42134  0.12303  1.0000
  H   H16       1.0  0.38117  0.57865  0.87697  1.0000
  H   H17       1.0  0.77262  0.09612  0.49684  1.0000
  H   H18       1.0  0.22738  0.90388  0.50316  1.0000
  H   H19       1.0  0.80257  0.99307  0.57541  1.0000
  H   H20       1.0  0.19743  0.00692  0.42458  1.0000
  H   H21       1.0  0.90160  0.34652  0.47562  1.0000
  H   H22       1.0  0.09840  0.65348  0.52438  1.0000
  H   H23       1.0  0.88057  0.44375  0.39393  1.0000
  H   H24       1.0  0.11943  0.55625  0.60607  1.0000
  H   H25       1.0  0.29012  0.54633  0.21285  1.0000
  H   H26       1.0  0.70988  0.45367  0.78715  1.0000
  H   H27       1.0  0.20311  0.35917  0.29928  1.0000
  H   H28       1.0  0.79689  0.64084  0.70072  1.0000
  H   H29       1.0  0.30310  0.18441  0.56870  1.0000
  H   H30       1.0  0.69691  0.81560  0.43131  1.0000
  H   H31       1.0  0.46636  0.22328  0.72061  1.0000
  H   H32       1.0  0.53365  0.77673  0.27940  1.0000
  C   C1        1.0  0.38491  0.60001  0.05964  1.0000
  C   C2        1.0  0.61509  0.39999  0.94036  1.0000
  C   C3        1.0  0.11214  0.88598  0.94552  1.0000
  C   C4        1.0  0.88787  0.11402  0.05447  1.0000
  C   C5        1.0  0.08666  0.34242  0.86970  1.0000
  C   C6        1.0  0.91333  0.65758  0.13030  1.0000
  C   C7        1.0  0.01890  0.34571  0.78496  1.0000
  C   C8        1.0  0.98109  0.65428  0.21504  1.0000
  C   C9        1.0  0.00635  0.21742  0.70643  1.0000
  C   C10       1.0  0.99364  0.78257  0.29357  1.0000
  C   C11       1.0  0.06494  0.09006  0.71657  1.0000
  C   C12       1.0  0.93506  0.90993  0.28343  1.0000
  C   C13       1.0  0.13930  0.09932  0.80301  1.0000
  C   C14       1.0  0.86070  0.90067  0.19699  1.0000
  C   C15       1.0  0.93652  0.22298  0.61483  1.0000
  C   C16       1.0  0.06348  0.77702  0.38517  1.0000
  C   C17       1.0  0.36774  0.13267  0.16876  1.0000
  C   C18       1.0  0.63226  0.86733  0.83124  1.0000
  C   C19       1.0  0.46082  0.12571  0.24627  1.0000
  C   C20       1.0  0.53918  0.87429  0.75373  1.0000
  C   C21       1.0  0.61817  0.23270  0.28269  1.0000
  C   C22       1.0  0.38183  0.76730  0.71732  1.0000
  C   C23       1.0  0.67685  0.34105  0.23774  1.0000
  C   C24       1.0  0.32314  0.65895  0.76226  1.0000
  C   C25       1.0  0.57717  0.33883  0.15975  1.0000
  C   C26       1.0  0.42283  0.66116  0.84025  1.0000
  C   C27       1.0  0.71339  0.22649  0.36843  1.0000
  C   C28       1.0  0.28662  0.77351  0.63157  1.0000
  C   C29       1.0  0.35811  0.56582  0.28029  1.0000
  C   C30       1.0  0.64190  0.43419  0.71971  1.0000
  C   C31       1.0  0.31044  0.46016  0.32789  1.0000
  C   C32       1.0  0.68957  0.53985  0.67210  1.0000
  C   C33       1.0  0.40311  0.48034  0.41257  1.0000
  C   C34       1.0  0.59689  0.51967  0.58743  1.0000
  C   C35       1.0  0.35809  0.36086  0.45910  1.0000
  C   C36       1.0  0.64191  0.63915  0.54090  1.0000
  C   C37       1.0  0.45745  0.38874  0.54950  1.0000
  C   C38       1.0  0.54255  0.61127  0.45051  1.0000
  C   C39       1.0  0.41222  0.28299  0.59796  1.0000
  C   C40       1.0  0.58779  0.71702  0.40204  1.0000
  C   C41       1.0  0.50341  0.30531  0.68281  1.0000
  C   C42       1.0  0.49660  0.69469  0.31719  1.0000
  S   S1        1.0  0.45490  0.78468  0.07567  1.0000
  S   S2        1.0  0.54510  0.21532  0.92433  1.0000
  S   S3        1.0  0.97188  0.72007  0.91306  1.0000
  S   S4        1.0  0.02813  0.27994  0.08693  1.0000
  N   N1        1.0  0.33568  0.46490  0.04662  1.0000
  N   N2        1.0  0.66432  0.53511  0.95338  1.0000
  N   N3        1.0  0.21349  0.00704  0.96913  1.0000
  N   N4        1.0  0.78651  0.99295  0.03087  1.0000
  N   N5        1.0  0.14963  0.22251  0.87871  1.0000
  N   N6        1.0  0.85037  0.77748  0.12129  1.0000
  N   N7        1.0  0.83252  0.09278  0.55800  1.0000
  N   N8        1.0  0.16748  0.90721  0.44200  1.0000
  N   N9        1.0  0.42470  0.23718  0.12583  1.0000
  N   N10       1.0  0.57530  0.76282  0.87417  1.0000
  N   N11       1.0  0.84352  0.34740  0.41397  1.0000
  N   N12       1.0  0.15648  0.65260  0.58603  1.0000
  O   O1        1.0  0.97605  0.34748  0.59537  1.0000
  O   O2        1.0  0.02395  0.65252  0.40463  1.0000
  O   O3        1.0  0.66780  0.11011  0.39503  1.0000
  O   O4        1.0  0.33220  0.88989  0.60498  1.0000
  O   O5        1.0  0.24430  0.23987  0.42232  1.0000
  O   O6        1.0  0.75570  0.76014  0.57768  1.0000
