data_image0
_chemical_formula_structural       Ag4H28C36N16O12
_chemical_formula_sum              "Ag4 H28 C36 N16 O12"
_cell_length_a       5.10641
_cell_length_b       11.0257
_cell_length_c       18.1352
_cell_angle_alpha    89.9994
_cell_angle_beta     93.8338
_cell_angle_gamma    90

_space_group_name_H-M_alt    "P 1"
_space_group_IT_number       1

loop_
  _space_group_symop_operation_xyz
  'x, y, z'

loop_
  _atom_site_type_symbol
  _atom_site_label
  _atom_site_symmetry_multiplicity
  _atom_site_fract_x
  _atom_site_fract_y
  _atom_site_fract_z
  _atom_site_occupancy
  Ag  Ag1       1.0  0.98832  0.94913  0.77067  1.0000
  Ag  Ag2       1.0  0.48831  0.55086  0.27067  1.0000
  Ag  Ag3       1.0  0.01169  0.05085  0.22934  1.0000
  Ag  Ag4       1.0  0.51168  0.44913  0.72933  1.0000
  H   H1        1.0  0.37401  0.71208  0.76320  1.0000
  H   H2        1.0  0.87401  0.78790  0.26321  1.0000
  H   H3        1.0  0.62600  0.28790  0.23679  1.0000
  H   H4        1.0  0.12599  0.21209  0.73679  1.0000
  H   H5        1.0  0.13172  0.48815  0.58728  1.0000
  H   H6        1.0  0.63176  0.01185  0.08729  1.0000
  H   H7        1.0  0.86827  0.51185  0.41271  1.0000
  H   H8        1.0  0.36825  0.98814  0.91272  1.0000
  H   H9        1.0  0.76903  0.63448  0.54923  1.0000
  H   H10       1.0  0.26906  0.86552  0.04923  1.0000
  H   H11       1.0  0.23098  0.36553  0.45076  1.0000
  H   H12       1.0  0.73095  0.13448  0.95077  1.0000
  H   H13       1.0  0.45888  0.75542  0.53530  1.0000
  H   H14       1.0  0.95890  0.74459  0.03529  1.0000
  H   H15       1.0  0.54111  0.24458  0.46470  1.0000
  H   H16       1.0  0.04110  0.25542  0.96470  1.0000
  H   H17       1.0  0.13867  0.91895  0.51310  1.0000
  H   H18       1.0  0.63869  0.58107  0.01309  1.0000
  H   H19       1.0  0.86132  0.08106  0.48691  1.0000
  H   H20       1.0  0.36129  0.41894  0.98691  1.0000
  H   H21       1.0  0.19136  0.11501  0.58773  1.0000
  H   H22       1.0  0.69134  0.38500  0.08772  1.0000
  H   H23       1.0  0.80866  0.88499  0.41228  1.0000
  H   H24       1.0  0.30864  0.61501  0.91228  1.0000
  H   H25       1.0  0.57251  0.12957  0.68090  1.0000
  H   H26       1.0  0.07248  0.37044  0.18090  1.0000
  H   H27       1.0  0.42751  0.87043  0.31910  1.0000
  H   H28       1.0  0.92750  0.62957  0.81910  1.0000
  C   C1        1.0  0.23632  0.69358  0.71571  1.0000
  C   C2        1.0  0.73633  0.80641  0.21572  1.0000
  C   C3        1.0  0.76368  0.30642  0.28428  1.0000
  C   C4        1.0  0.26367  0.19358  0.78428  1.0000
  C   C5        1.0  0.09925  0.57073  0.61832  1.0000
  C   C6        1.0  0.59926  0.92927  0.11832  1.0000
  C   C7        1.0  0.90076  0.42926  0.38168  1.0000
  C   C8        1.0  0.40074  0.07073  0.88168  1.0000
  C   C9        1.0  0.90051  0.65241  0.59767  1.0000
  C   C10       1.0  0.40054  0.84759  0.09767  1.0000
  C   C11       1.0  0.09949  0.34759  0.40233  1.0000
  C   C12       1.0  0.59948  0.15240  0.90233  1.0000
  C   C13       1.0  0.88015  0.75742  0.64044  1.0000
  C   C14       1.0  0.38016  0.74258  0.14044  1.0000
  C   C15       1.0  0.11986  0.24258  0.35956  1.0000
  C   C16       1.0  0.61985  0.25742  0.85956  1.0000
  C   C17       1.0  0.68094  0.85292  0.62342  1.0000
  C   C18       1.0  0.18093  0.64708  0.12342  1.0000
  C   C19       1.0  0.31908  0.14708  0.37658  1.0000
  C   C20       1.0  0.81906  0.35292  0.87658  1.0000
  C   C21       1.0  0.47880  0.83812  0.56812  1.0000
  C   C22       1.0  0.97880  0.66189  0.06811  1.0000
  C   C23       1.0  0.52121  0.16189  0.43188  1.0000
  C   C24       1.0  0.02119  0.33811  0.93188  1.0000
  C   C25       1.0  0.29735  0.93151  0.55554  1.0000
  C   C26       1.0  0.79736  0.56850  0.05553  1.0000
  C   C27       1.0  0.70265  0.06850  0.44447  1.0000
  C   C28       1.0  0.20263  0.43151  0.94446  1.0000
  C   C29       1.0  0.32517  0.03829  0.59629  1.0000
  C   C30       1.0  0.82516  0.46171  0.09628  1.0000
  C   C31       1.0  0.67484  0.96171  0.40372  1.0000
  C   C32       1.0  0.17483  0.53829  0.90372  1.0000
  C   C33       1.0  0.53577  0.04653  0.64924  1.0000
  C   C34       1.0  0.03575  0.45349  0.14924  1.0000
  C   C35       1.0  0.46425  0.95348  0.35076  1.0000
  C   C36       1.0  0.96424  0.54652  0.85076  1.0000
  N   N1        1.0  0.05249  0.77635  0.69928  1.0000
  N   N2        1.0  0.55249  0.72364  0.19928  1.0000
  N   N3        1.0  0.94750  0.22364  0.30071  1.0000
  N   N4        1.0  0.44750  0.27635  0.80072  1.0000
  N   N5        1.0  0.26586  0.58980  0.67813  1.0000
  N   N6        1.0  0.76587  0.91019  0.17813  1.0000
  N   N7        1.0  0.73413  0.41019  0.32187  1.0000
  N   N8        1.0  0.23413  0.08981  0.82187  1.0000
  N   N9        1.0  0.70596  0.95603  0.66367  1.0000
  N   N10       1.0  0.20595  0.54398  0.16367  1.0000
  N   N11       1.0  0.29405  0.04397  0.33632  1.0000
  N   N12       1.0  0.79404  0.45603  0.83632  1.0000
  N   N13       1.0  0.72189  0.82184  0.90311  1.0000
  N   N14       1.0  0.22189  0.67816  0.40311  1.0000
  N   N15       1.0  0.27811  0.17816  0.09689  1.0000
  N   N16       1.0  0.77811  0.32184  0.59689  1.0000
  O   O1        1.0  0.67049  0.82337  0.83262  1.0000
  O   O2        1.0  0.17052  0.67663  0.33262  1.0000
  O   O3        1.0  0.32950  0.17664  0.16738  1.0000
  O   O4        1.0  0.82949  0.32337  0.66738  1.0000
  O   O5        1.0  0.92064  0.87753  0.93105  1.0000
  O   O6        1.0  0.42060  0.62245  0.43107  1.0000
  O   O7        1.0  0.07937  0.12247  0.06895  1.0000
  O   O8        1.0  0.57937  0.37752  0.56894  1.0000
  O   O9        1.0  0.56988  0.76525  0.94309  1.0000
  O   O10       1.0  0.06989  0.73476  0.44309  1.0000
  O   O11       1.0  0.43012  0.23476  0.05692  1.0000
  O   O12       1.0  0.93012  0.26524  0.55691  1.0000
