data_image0
_chemical_formula_structural       Zn2H40C58N4O8
_chemical_formula_sum              "Zn2 H40 C58 N4 O8"
_cell_length_a       9.61059
_cell_length_b       10.4006
_cell_length_c       13.3302
_cell_angle_alpha    96.9078
_cell_angle_beta     111.124
_cell_angle_gamma    90.0105

_space_group_name_H-M_alt    "P 1"
_space_group_IT_number       1

loop_
  _space_group_symop_operation_xyz
  'x, y, z'

loop_
  _atom_site_type_symbol
  _atom_site_label
  _atom_site_symmetry_multiplicity
  _atom_site_fract_x
  _atom_site_fract_y
  _atom_site_fract_z
  _atom_site_occupancy
  Zn  Zn1       1.0  0.49199  0.22306  0.66507  1.0000
  Zn  Zn2       1.0  0.17320  0.72302  0.66523  1.0000
  H   H1        1.0  0.15165  0.38778  0.33348  1.0000
  H   H2        1.0  0.18176  0.88807  0.33356  1.0000
  H   H3        1.0  0.36069  0.77057  0.42438  1.0000
  H   H4        1.0  0.06330  0.27075  0.42423  1.0000
  H   H5        1.0  0.45160  0.74163  0.26976  1.0000
  H   H6        1.0  0.81797  0.24168  0.26938  1.0000
  H   H7        1.0  0.51713  0.66327  0.09991  1.0000
  H   H8        1.0  0.58282  0.16314  0.09995  1.0000
  H   H9        1.0  0.54702  0.54485  0.93443  1.0000
  H   H10       1.0  0.38723  0.04463  0.93453  1.0000
  H   H11       1.0  0.29143  0.21513  0.94937  1.0000
  H   H12       1.0  0.65805  0.71520  0.94906  1.0000
  H   H13       1.0  0.27062  0.18068  0.25557  1.0000
  H   H14       1.0  0.98483  0.68074  0.25557  1.0000
  H   H15       1.0  0.31546  0.12836  0.13907  1.0000
  H   H16       1.0  0.82356  0.62838  0.13905  1.0000
  H   H17       1.0  0.44210  0.23543  0.24829  1.0000
  H   H18       1.0  0.80607  0.73546  0.24822  1.0000
  H   H19       1.0  0.02656  0.25587  0.13716  1.0000
  H   H20       1.0  0.11057  0.75583  0.13718  1.0000
  H   H21       1.0  0.01740  0.37539  0.05059  1.0000
  H   H22       1.0  0.03333  0.87527  0.05053  1.0000
  H   H23       1.0  0.06392  0.21398  0.01644  1.0000
  H   H24       1.0  0.95256  0.71388  0.01647  1.0000
  H   H25       1.0  0.61950  0.01394  0.82405  1.0000
  H   H26       1.0  0.20394  0.51391  0.82414  1.0000
  H   H27       1.0  0.86696  0.91383  0.89741  1.0000
  H   H28       1.0  0.02933  0.41372  0.89709  1.0000
  H   H29       1.0  0.07648  0.98021  0.83866  1.0000
  H   H30       1.0  0.76116  0.48026  0.83797  1.0000
  H   H31       1.0  0.16556  0.12496  0.73125  1.0000
  H   H32       1.0  0.56509  0.62512  0.73043  1.0000
  H   H33       1.0  0.10847  0.28340  0.60115  1.0000
  H   H34       1.0  0.49266  0.78366  0.60047  1.0000
  H   H35       1.0  0.91920  0.42839  0.48332  1.0000
  H   H36       1.0  0.56449  0.92856  0.48274  1.0000
  H   H37       1.0  0.65418  0.50002  0.41513  1.0000
  H   H38       1.0  0.76193  0.00065  0.41520  1.0000
  H   H39       1.0  0.47065  0.41337  0.48735  1.0000
  H   H40       1.0  0.01767  0.91422  0.48797  1.0000
  C   C1        1.0  0.21720  0.46308  0.31785  1.0000
  C   C2        1.0  0.10055  0.96330  0.31785  1.0000
  C   C3        1.0  0.25295  0.58047  0.38792  1.0000
  C   C4        1.0  0.13475  0.08077  0.38783  1.0000
  C   C5        1.0  0.33710  0.67982  0.36996  1.0000
  C   C6        1.0  0.03254  0.17998  0.36982  1.0000
  C   C7        1.0  0.38692  0.66367  0.28330  1.0000
  C   C8        1.0  0.89621  0.16375  0.28306  1.0000
  C   C9        1.0  0.46958  0.56483  0.06893  1.0000
  C   C10       1.0  0.59932  0.06472  0.06891  1.0000
  C   C11       1.0  0.48841  0.49902  0.97777  1.0000
  C   C12       1.0  0.48929  0.99893  0.97778  1.0000
  C   C13       1.0  0.42599  0.37318  0.93546  1.0000
  C   C14       1.0  0.50956  0.87321  0.93536  1.0000
  C   C15       1.0  0.34156  0.31177  0.98476  1.0000
  C   C16       1.0  0.64326  0.81177  0.98457  1.0000
  C   C17       1.0  0.24485  0.32791  0.14711  1.0000
  C   C18       1.0  0.90227  0.82793  0.14705  1.0000
  C   C19       1.0  0.26695  0.44614  0.23175  1.0000
  C   C20       1.0  0.96479  0.94621  0.23171  1.0000
  C   C21       1.0  0.35173  0.54628  0.21419  1.0000
  C   C22       1.0  0.86244  0.04629  0.21406  1.0000
  C   C23       1.0  0.38782  0.50247  0.11863  1.0000
  C   C24       1.0  0.73081  0.00242  0.11852  1.0000
  C   C25       1.0  0.32385  0.37577  0.07662  1.0000
  C   C26       1.0  0.75277  0.87572  0.07652  1.0000
  C   C27       1.0  0.32331  0.21095  0.20095  1.0000
  C   C28       1.0  0.87756  0.71099  0.20091  1.0000
  C   C29       1.0  0.07815  0.29137  0.08373  1.0000
  C   C30       1.0  0.00560  0.79133  0.08371  1.0000
  C   C31       1.0  0.20165  0.59832  0.48227  1.0000
  C   C32       1.0  0.28043  0.09878  0.48216  1.0000
  C   C33       1.0  0.44886  0.30672  0.83732  1.0000
  C   C34       1.0  0.38849  0.80685  0.83726  1.0000
  C   C35       1.0  0.71212  0.03968  0.80024  1.0000
  C   C36       1.0  0.08754  0.53970  0.80017  1.0000
  C   C37       1.0  0.85235  0.98558  0.84187  1.0000
  C   C38       1.0  0.98866  0.48552  0.84155  1.0000
  C   C39       1.0  0.96711  0.02254  0.81017  1.0000
  C   C40       1.0  0.84226  0.52256  0.80963  1.0000
  C   C41       1.0  0.05326  0.16093  0.69989  1.0000
  C   C42       1.0  0.64622  0.66107  0.69921  1.0000
  C   C43       1.0  0.02150  0.24998  0.62782  1.0000
  C   C44       1.0  0.60625  0.75022  0.62723  1.0000
  C   C45       1.0  0.83423  0.38930  0.50946  1.0000
  C   C46       1.0  0.67568  0.88966  0.50914  1.0000
  C   C47       1.0  0.68913  0.42980  0.47288  1.0000
  C   C48       1.0  0.78450  0.93041  0.47292  1.0000
  C   C49       1.0  0.58528  0.38239  0.51317  1.0000
  C   C50       1.0  0.92864  0.88312  0.51354  1.0000
  C   C51       1.0  0.94156  0.11529  0.73666  1.0000
  C   C52       1.0  0.79463  0.61540  0.73617  1.0000
  C   C53       1.0  0.79614  0.16330  0.69755  1.0000
  C   C54       1.0  0.90120  0.66347  0.69730  1.0000
  C   C55       1.0  0.76237  0.25539  0.62045  1.0000
  C   C56       1.0  0.85825  0.75573  0.62032  1.0000
  C   C57       1.0  0.87476  0.29833  0.58505  1.0000
  C   C58       1.0  0.71045  0.79865  0.58468  1.0000
  N   N1        1.0  0.68506  0.12517  0.72953  1.0000
  N   N2        1.0  0.04422  0.62526  0.72948  1.0000
  N   N3        1.0  0.62187  0.29859  0.58543  1.0000
  N   N4        1.0  0.96401  0.79910  0.58563  1.0000
  O   O1        1.0  0.11729  0.51448  0.49415  1.0000
  O   O2        1.0  0.37681  0.01508  0.49401  1.0000
  O   O3        1.0  0.25157  0.70476  0.54831  1.0000
  O   O4        1.0  0.29653  0.20517  0.54825  1.0000
  O   O5        1.0  0.51369  0.37176  0.78835  1.0000
  O   O6        1.0  0.27465  0.87189  0.78846  1.0000
  O   O7        1.0  0.40505  0.18912  0.80304  1.0000
  O   O8        1.0  0.39802  0.68930  0.80279  1.0000
