data_image0
_chemical_formula_structural       Cd2P4H32C26Cl4O18
_chemical_formula_sum              "Cd2 P4 H32 C26 Cl4 O18"
_cell_length_a       5.76969
_cell_length_b       9.12512
_cell_length_c       18.7604
_cell_angle_alpha    90
_cell_angle_beta     90.7271
_cell_angle_gamma    90.0001

_space_group_name_H-M_alt    "P 1"
_space_group_IT_number       1

loop_
  _space_group_symop_operation_xyz
  'x, y, z'

loop_
  _atom_site_type_symbol
  _atom_site_label
  _atom_site_symmetry_multiplicity
  _atom_site_fract_x
  _atom_site_fract_y
  _atom_site_fract_z
  _atom_site_occupancy
  Cd  Cd1       1.0  0.78786  0.23793  0.51101  1.0000
  Cd  Cd2       1.0  0.21214  0.73793  0.48899  1.0000
  P   P1        1.0  0.29673  0.40638  0.57325  1.0000
  P   P2        1.0  0.70327  0.90638  0.42675  1.0000
  P   P3        1.0  0.27186  0.29367  0.73016  1.0000
  P   P4        1.0  0.72815  0.79367  0.26984  1.0000
  H   H1        1.0  0.77462  0.00933  0.61960  1.0000
  H   H2        1.0  0.22538  0.50933  0.38040  1.0000
  H   H3        1.0  0.93770  0.13580  0.65088  1.0000
  H   H4        1.0  0.06230  0.63580  0.34912  1.0000
  H   H5        1.0  0.09472  0.07459  0.43517  1.0000
  H   H6        1.0  0.90528  0.57459  0.56483  1.0000
  H   H7        1.0  0.25074  0.18922  0.47834  1.0000
  H   H8        1.0  0.74926  0.68922  0.52166  1.0000
  H   H9        1.0  0.58880  0.48599  0.46206  1.0000
  H   H10       1.0  0.41120  0.98599  0.53794  1.0000
  H   H11       1.0  0.82195  0.47959  0.41720  1.0000
  H   H12       1.0  0.17805  0.97959  0.58280  1.0000
  H   H13       1.0  0.19226  0.94589  0.74064  1.0000
  H   H14       1.0  0.80774  0.44588  0.25936  1.0000
  H   H15       1.0  0.25207  0.75085  0.83267  1.0000
  H   H16       1.0  0.74791  0.25084  0.16733  1.0000
  H   H17       1.0  0.59552  0.76141  0.91447  1.0000
  H   H18       1.0  0.40446  0.26140  0.08553  1.0000
  H   H19       1.0  0.87611  0.96758  0.90543  1.0000
  H   H20       1.0  0.12389  0.46758  0.09457  1.0000
  H   H21       1.0  0.81227  0.16331  0.81337  1.0000
  H   H22       1.0  0.18773  0.66331  0.18663  1.0000
  H   H23       1.0  0.92562  0.51326  0.81364  1.0000
  H   H24       1.0  0.07438  0.01327  0.18636  1.0000
  H   H25       1.0  0.63915  0.50407  0.91197  1.0000
  H   H26       1.0  0.36085  0.00407  0.08803  1.0000
  H   H27       1.0  0.70956  0.34182  0.01669  1.0000
  H   H28       1.0  0.29044  0.84183  0.98331  1.0000
  H   H29       1.0  0.34286  0.18830  0.92048  1.0000
  H   H30       1.0  0.65714  0.68830  0.07952  1.0000
  H   H31       1.0  0.05786  0.18079  0.02049  1.0000
  H   H32       1.0  0.94214  0.68079  0.97952  1.0000
  C   C1        1.0  0.35848  0.44475  0.67071  1.0000
  C   C2        1.0  0.64152  0.94475  0.32929  1.0000
  C   C3        1.0  0.50018  0.06366  0.77338  1.0000
  C   C4        1.0  0.49981  0.56366  0.22662  1.0000
  C   C5        1.0  0.34009  0.94956  0.77725  1.0000
  C   C6        1.0  0.65991  0.44956  0.22274  1.0000
  C   C7        1.0  0.37517  0.84104  0.82888  1.0000
  C   C8        1.0  0.62481  0.34104  0.17112  1.0000
  C   C9        1.0  0.56778  0.84690  0.87466  1.0000
  C   C10       1.0  0.43221  0.34690  0.12534  1.0000
  C   C11       1.0  0.72612  0.96219  0.86961  1.0000
  C   C12       1.0  0.27387  0.46219  0.13039  1.0000
  C   C13       1.0  0.69242  0.07223  0.81885  1.0000
  C   C14       1.0  0.30758  0.57223  0.18115  1.0000
  C   C15       1.0  0.14957  0.35298  0.86322  1.0000
  C   C16       1.0  0.85044  0.85298  0.13679  1.0000
  C   C17       1.0  0.95469  0.44309  0.85979  1.0000
  C   C18       1.0  0.04531  0.94310  0.14021  1.0000
  C   C19       1.0  0.79561  0.43727  0.91518  1.0000
  C   C20       1.0  0.20439  0.93728  0.08482  1.0000
  C   C21       1.0  0.83337  0.34455  0.97337  1.0000
  C   C22       1.0  0.16663  0.84455  0.02663  1.0000
  C   C23       1.0  0.18986  0.25847  0.92043  1.0000
  C   C24       1.0  0.81015  0.75846  0.07957  1.0000
  C   C25       1.0  0.03010  0.25535  0.97578  1.0000
  C   C26       1.0  0.96990  0.75535  0.02422  1.0000
  Cl  Cl1       1.0  0.65436  0.48458  0.68477  1.0000
  Cl  Cl2       1.0  0.34564  0.98458  0.31523  1.0000
  Cl  Cl3       1.0  0.18459  0.59893  0.69590  1.0000
  Cl  Cl4       1.0  0.81541  0.09893  0.30410  1.0000
  O   O1        1.0  0.90500  0.07272  0.60810  1.0000
  O   O2        1.0  0.09500  0.57272  0.39190  1.0000
  O   O3        1.0  0.11398  0.18048  0.44643  1.0000
  O   O4        1.0  0.88602  0.68048  0.55357  1.0000
  O   O5        1.0  0.68338  0.42249  0.43070  1.0000
  O   O6        1.0  0.31662  0.92249  0.56929  1.0000
  O   O7        1.0  0.42016  0.26152  0.55794  1.0000
  O   O8        1.0  0.57984  0.76152  0.44206  1.0000
  O   O9        1.0  0.40066  0.53611  0.53295  1.0000
  O   O10       1.0  0.59934  0.03610  0.46705  1.0000
  O   O11       1.0  0.03228  0.39843  0.56856  1.0000
  O   O12       1.0  0.96772  0.89842  0.43144  1.0000
  O   O13       1.0  0.47326  0.17516  0.72141  1.0000
  O   O14       1.0  0.52674  0.67516  0.27859  1.0000
  O   O15       1.0  0.31541  0.35745  0.80908  1.0000
  O   O16       1.0  0.68459  0.85746  0.19092  1.0000
  O   O17       1.0  0.03307  0.23787  0.71835  1.0000
  O   O18       1.0  0.96694  0.73787  0.28165  1.0000
