data_image0
_chemical_formula_structural       Ba2Cu2H16C20O16
_chemical_formula_sum              "Ba2 Cu2 H16 C20 O16"
_cell_length_a       8.95677
_cell_length_b       9.33708
_cell_length_c       9.33705
_cell_angle_alpha    64.8745
_cell_angle_beta     62.5619
_cell_angle_gamma    62.5619

_space_group_name_H-M_alt    "P 1"
_space_group_IT_number       1

loop_
  _space_group_symop_operation_xyz
  'x, y, z'

loop_
  _atom_site_type_symbol
  _atom_site_label
  _atom_site_symmetry_multiplicity
  _atom_site_fract_x
  _atom_site_fract_y
  _atom_site_fract_z
  _atom_site_occupancy
  Ba  Ba1       1.0  0.25000  0.03460  0.96541  1.0000
  Ba  Ba2       1.0  0.75000  0.96541  0.03459  1.0000
  Cu  Cu1       1.0  0.50000  0.00000  0.50000  1.0000
  Cu  Cu2       1.0  1.00000  0.50000  1.00000  1.0000
  H   H1        1.0  0.35469  0.55937  0.49332  1.0000
  H   H2        1.0  0.14532  0.50667  0.44063  1.0000
  H   H3        1.0  0.64532  0.44062  0.50668  1.0000
  H   H4        1.0  0.85469  0.49333  0.55937  1.0000
  H   H5        1.0  0.22194  0.57559  0.70922  1.0000
  H   H6        1.0  0.27807  0.29078  0.42441  1.0000
  H   H7        1.0  0.77806  0.42441  0.29078  1.0000
  H   H8        1.0  0.72194  0.70922  0.57558  1.0000
  H   H9        1.0  0.97473  0.81308  0.60830  1.0000
  H   H10       1.0  0.52527  0.39170  0.18692  1.0000
  H   H11       1.0  0.02527  0.18692  0.39170  1.0000
  H   H12       1.0  0.47473  0.60830  0.81308  1.0000
  H   H13       1.0  0.10872  0.79692  0.39021  1.0000
  H   H14       1.0  0.39128  0.60978  0.20308  1.0000
  H   H15       1.0  0.89128  0.20308  0.60978  1.0000
  H   H16       1.0  0.60872  0.39022  0.79692  1.0000
  C   C1        1.0  0.24676  0.81926  0.52184  1.0000
  C   C2        1.0  0.25324  0.47816  0.18074  1.0000
  C   C3        1.0  0.75324  0.18074  0.47816  1.0000
  C   C4        1.0  0.74676  0.52185  0.81926  1.0000
  C   C5        1.0  0.19077  0.88707  0.66567  1.0000
  C   C6        1.0  0.30923  0.33433  0.11293  1.0000
  C   C7        1.0  0.80923  0.11293  0.33433  1.0000
  C   C8        1.0  0.69077  0.66568  0.88707  1.0000
  C   C9        1.0  0.24986  0.63734  0.57572  1.0000
  C   C10       1.0  0.25014  0.42428  0.36266  1.0000
  C   C11       1.0  0.75014  0.36266  0.42428  1.0000
  C   C12       1.0  0.74986  0.57572  0.63733  1.0000
  C   C13       1.0  0.10513  0.77751  0.51514  1.0000
  C   C14       1.0  0.39487  0.48486  0.22249  1.0000
  C   C15       1.0  0.89487  0.22249  0.48486  1.0000
  C   C16       1.0  0.60513  0.51514  0.77751  1.0000
  C   C17       1.0  0.39245  0.85674  0.36106  1.0000
  C   C18       1.0  0.10755  0.63894  0.14327  1.0000
  C   C19       1.0  0.60755  0.14326  0.63894  1.0000
  C   C20       1.0  0.89245  0.36106  0.85673  1.0000
  O   O1        1.0  0.27666  0.96998  0.66136  1.0000
  O   O2        1.0  0.22334  0.33864  0.03002  1.0000
  O   O3        1.0  0.72334  0.03002  0.33864  1.0000
  O   O4        1.0  0.77666  0.66136  0.96998  1.0000
  O   O5        1.0  0.52598  0.87256  0.36708  1.0000
  O   O6        1.0  0.97401  0.63291  0.12744  1.0000
  O   O7        1.0  0.47402  0.12744  0.63292  1.0000
  O   O8        1.0  0.02598  0.36709  0.87256  1.0000
  O   O9        1.0  0.05832  0.86167  0.78986  1.0000
  O   O10       1.0  0.44168  0.21014  0.13833  1.0000
  O   O11       1.0  0.94168  0.13833  0.21014  1.0000
  O   O12       1.0  0.55832  0.78986  0.86167  1.0000
  O   O13       1.0  0.39199  0.86188  0.22465  1.0000
  O   O14       1.0  0.10801  0.77535  0.13812  1.0000
  O   O15       1.0  0.60801  0.13812  0.77535  1.0000
  O   O16       1.0  0.89199  0.22466  0.86188  1.0000
