data_image0
_chemical_formula_structural       Tl4H36C36O16
_chemical_formula_sum              "Tl4 H36 C36 O16"
_cell_length_a       9.6777
_cell_length_b       10.7555
_cell_length_c       10.9059
_cell_angle_alpha    109.262
_cell_angle_beta     116.366
_cell_angle_gamma    89.9909

_space_group_name_H-M_alt    "P 1"
_space_group_IT_number       1

loop_
  _space_group_symop_operation_xyz
  'x, y, z'

loop_
  _atom_site_type_symbol
  _atom_site_label
  _atom_site_symmetry_multiplicity
  _atom_site_fract_x
  _atom_site_fract_y
  _atom_site_fract_z
  _atom_site_occupancy
  Tl  Tl1       1.0  0.71827  0.03974  0.99201  1.0000
  Tl  Tl2       1.0  0.27365  0.53966  0.99191  1.0000
  Tl  Tl3       1.0  0.28173  0.96026  0.00799  1.0000
  Tl  Tl4       1.0  0.72635  0.46034  0.00809  1.0000
  H   H1        1.0  0.73475  0.53840  0.35073  1.0000
  H   H2        1.0  0.61595  0.03834  0.35081  1.0000
  H   H3        1.0  0.26525  0.46160  0.64927  1.0000
  H   H4        1.0  0.38405  0.96166  0.64919  1.0000
  H   H5        1.0  0.34035  0.65271  0.42350  1.0000
  H   H6        1.0  0.08314  0.15278  0.42366  1.0000
  H   H7        1.0  0.65964  0.34729  0.57650  1.0000
  H   H8        1.0  0.91686  0.84722  0.57634  1.0000
  H   H9        1.0  0.32149  0.24725  0.15729  1.0000
  H   H10       1.0  0.83588  0.74726  0.15753  1.0000
  H   H11       1.0  0.67852  0.75275  0.84271  1.0000
  H   H12       1.0  0.16412  0.25274  0.84247  1.0000
  H   H13       1.0  0.46201  0.85370  0.44123  1.0000
  H   H14       1.0  0.97897  0.35375  0.44126  1.0000
  H   H15       1.0  0.53799  0.14630  0.55877  1.0000
  H   H16       1.0  0.02103  0.64626  0.55874  1.0000
  H   H17       1.0  0.65446  0.93177  0.58998  1.0000
  H   H18       1.0  0.93527  0.43178  0.58995  1.0000
  H   H19       1.0  0.34554  0.06823  0.41002  1.0000
  H   H20       1.0  0.06473  0.56822  0.41005  1.0000
  H   H21       1.0  0.53233  0.82097  0.60907  1.0000
  H   H22       1.0  0.07667  0.32110  0.60916  1.0000
  H   H23       1.0  0.46767  0.17903  0.39093  1.0000
  H   H24       1.0  0.92333  0.67890  0.39084  1.0000
  H   H25       1.0  0.07091  0.23876  0.09520  1.0000
  H   H26       1.0  0.02424  0.73897  0.09530  1.0000
  H   H27       1.0  0.92909  0.76124  0.90480  1.0000
  H   H28       1.0  0.97576  0.26103  0.90470  1.0000
  H   H29       1.0  0.98263  0.28834  0.21408  1.0000
  H   H30       1.0  0.23148  0.78849  0.21420  1.0000
  H   H31       1.0  0.01737  0.71166  0.78592  1.0000
  H   H32       1.0  0.76852  0.21151  0.78580  1.0000
  H   H33       1.0  0.16718  0.23051  0.27511  1.0000
  H   H34       1.0  0.10801  0.73051  0.27512  1.0000
  H   H35       1.0  0.83282  0.76949  0.72489  1.0000
  H   H36       1.0  0.89199  0.26949  0.72488  1.0000
  C   C1        1.0  0.53549  0.38288  0.24833  1.0000
  C   C2        1.0  0.71284  0.88286  0.24849  1.0000
  C   C3        1.0  0.46451  0.61712  0.75167  1.0000
  C   C4        1.0  0.28716  0.11714  0.75151  1.0000
  C   C5        1.0  0.61737  0.51262  0.33350  1.0000
  C   C6        1.0  0.71610  0.01260  0.33359  1.0000
  C   C7        1.0  0.38263  0.48738  0.66650  1.0000
  C   C8        1.0  0.28390  0.98740  0.66641  1.0000
  C   C9        1.0  0.54726  0.61109  0.39527  1.0000
  C   C10       1.0  0.84796  0.11109  0.39535  1.0000
  C   C11       1.0  0.45273  0.38891  0.60473  1.0000
  C   C12       1.0  0.15204  0.88891  0.60465  1.0000
  C   C13       1.0  0.39581  0.57960  0.37312  1.0000
  C   C14       1.0  0.97729  0.07964  0.37326  1.0000
  C   C15       1.0  0.60419  0.42040  0.62687  1.0000
  C   C16       1.0  0.02271  0.92036  0.62674  1.0000
  C   C17       1.0  0.31525  0.44735  0.28844  1.0000
  C   C18       1.0  0.97321  0.94739  0.28864  1.0000
  C   C19       1.0  0.68475  0.55265  0.71156  1.0000
  C   C20       1.0  0.02679  0.05261  0.71136  1.0000
  C   C21       1.0  0.38320  0.34911  0.22522  1.0000
  C   C22       1.0  0.84205  0.84911  0.22543  1.0000
  C   C23       1.0  0.61681  0.65089  0.77478  1.0000
  C   C24       1.0  0.15795  0.15089  0.77457  1.0000
  C   C25       1.0  0.60880  0.27906  0.17717  1.0000
  C   C26       1.0  0.56834  0.77902  0.17731  1.0000
  C   C27       1.0  0.39120  0.72094  0.82283  1.0000
  C   C28       1.0  0.43166  0.22098  0.82269  1.0000
  C   C29       1.0  0.56541  0.84145  0.53225  1.0000
  C   C30       1.0  0.96668  0.34149  0.53228  1.0000
  C   C31       1.0  0.43459  0.15855  0.46775  1.0000
  C   C32       1.0  0.03332  0.65851  0.46772  1.0000
  C   C33       1.0  0.09379  0.28665  0.21016  1.0000
  C   C34       1.0  0.11640  0.78677  0.21028  1.0000
  C   C35       1.0  0.90621  0.71335  0.78984  1.0000
  C   C36       1.0  0.88360  0.21324  0.78972  1.0000
  O   O1        1.0  0.53743  0.15804  0.11165  1.0000
  O   O2        1.0  0.57422  0.65800  0.11185  1.0000
  O   O3        1.0  0.46257  0.84196  0.88835  1.0000
  O   O4        1.0  0.42578  0.34200  0.88816  1.0000
  O   O5        1.0  0.73826  0.31634  0.18426  1.0000
  O   O6        1.0  0.44594  0.81630  0.18434  1.0000
  O   O7        1.0  0.26175  0.68366  0.81574  1.0000
  O   O8        1.0  0.55406  0.18370  0.81566  1.0000
  O   O9        1.0  0.63676  0.73577  0.47638  1.0000
  O   O10       1.0  0.83950  0.23575  0.47640  1.0000
  O   O11       1.0  0.36324  0.26423  0.52362  1.0000
  O   O12       1.0  0.16050  0.76425  0.52360  1.0000
  O   O13       1.0  0.16731  0.42371  0.27184  1.0000
  O   O14       1.0  0.10459  0.92380  0.27211  1.0000
  O   O15       1.0  0.83269  0.57629  0.72816  1.0000
  O   O16       1.0  0.89541  0.07620  0.72789  1.0000
