data_image0
_chemical_formula_structural       Tl4H24C28N4O12
_chemical_formula_sum              "Tl4 H24 C28 N4 O12"
_cell_length_a       7.24843
_cell_length_b       9.38414
_cell_length_c       11.6962
_cell_angle_alpha    90
_cell_angle_beta     90
_cell_angle_gamma    93.8392

_space_group_name_H-M_alt    "P 1"
_space_group_IT_number       1

loop_
  _space_group_symop_operation_xyz
  'x, y, z'

loop_
  _atom_site_type_symbol
  _atom_site_label
  _atom_site_symmetry_multiplicity
  _atom_site_fract_x
  _atom_site_fract_y
  _atom_site_fract_z
  _atom_site_occupancy
  Tl  Tl1       1.0  0.00709  0.18258  0.11667  1.0000
  Tl  Tl2       1.0  0.50709  0.68258  0.38332  1.0000
  Tl  Tl3       1.0  0.99291  0.81742  0.88333  1.0000
  Tl  Tl4       1.0  0.49291  0.31742  0.61668  1.0000
  H   H1        1.0  0.59495  0.26301  0.99642  1.0000
  H   H2        1.0  0.09496  0.76302  0.50358  1.0000
  H   H3        1.0  0.40504  0.73699  0.00358  1.0000
  H   H4        1.0  0.90504  0.23698  0.49643  1.0000
  H   H5        1.0  0.95221  0.17498  0.80371  1.0000
  H   H6        1.0  0.45222  0.67499  0.69629  1.0000
  H   H7        1.0  0.04779  0.82502  0.19629  1.0000
  H   H8        1.0  0.54779  0.32501  0.30371  1.0000
  H   H9        1.0  0.03497  0.05003  0.63139  1.0000
  H   H10       1.0  0.53498  0.55003  0.86861  1.0000
  H   H11       1.0  0.96502  0.94997  0.36861  1.0000
  H   H12       1.0  0.46502  0.44997  0.13139  1.0000
  H   H13       1.0  0.88849  0.91529  0.57093  1.0000
  H   H14       1.0  0.38850  0.41530  0.92907  1.0000
  H   H15       1.0  0.11151  0.08470  0.42907  1.0000
  H   H16       1.0  0.61150  0.58470  0.07093  1.0000
  H   H17       1.0  0.31314  0.95896  0.75364  1.0000
  H   H18       1.0  0.81314  0.45896  0.74635  1.0000
  H   H19       1.0  0.68686  0.04104  0.24636  1.0000
  H   H20       1.0  0.18686  0.54104  0.25365  1.0000
  H   H21       1.0  0.55559  0.89775  0.61751  1.0000
  H   H22       1.0  0.05560  0.39775  0.88249  1.0000
  H   H23       1.0  0.44441  0.10225  0.38249  1.0000
  H   H24       1.0  0.94440  0.60225  0.11751  1.0000
  C   C1        1.0  0.81176  0.12940  0.79070  1.0000
  C   C2        1.0  0.31176  0.62940  0.70930  1.0000
  C   C3        1.0  0.18824  0.87060  0.20930  1.0000
  C   C4        1.0  0.68824  0.37060  0.29070  1.0000
  C   C5        1.0  0.67406  0.16279  0.86747  1.0000
  C   C6        1.0  0.17407  0.66280  0.63253  1.0000
  C   C7        1.0  0.32593  0.83721  0.13253  1.0000
  C   C8        1.0  0.82593  0.33720  0.36747  1.0000
  C   C9        1.0  0.48998  0.10165  0.85574  1.0000
  C   C10       1.0  0.98999  0.60165  0.64425  1.0000
  C   C11       1.0  0.51002  0.89835  0.14426  1.0000
  C   C12       1.0  0.01002  0.39835  0.35574  1.0000
  C   C13       1.0  0.34304  0.14060  0.93495  1.0000
  C   C14       1.0  0.84304  0.64060  0.56505  1.0000
  C   C15       1.0  0.65696  0.85940  0.06505  1.0000
  C   C16       1.0  0.15696  0.35940  0.43495  1.0000
  C   C17       1.0  0.77280  0.03167  0.70117  1.0000
  C   C18       1.0  0.27281  0.53167  0.79883  1.0000
  C   C19       1.0  0.22720  0.96833  0.29883  1.0000
  C   C20       1.0  0.72719  0.46832  0.20117  1.0000
  C   C21       1.0  0.45384  0.00580  0.76454  1.0000
  C   C22       1.0  0.95384  0.50581  0.73546  1.0000
  C   C23       1.0  0.54616  0.99420  0.23546  1.0000
  C   C24       1.0  0.04616  0.49419  0.26454  1.0000
  C   C25       1.0  0.58921  0.97096  0.68791  1.0000
  C   C26       1.0  0.08921  0.47096  0.81208  1.0000
  C   C27       1.0  0.41079  0.02904  0.31209  1.0000
  C   C28       1.0  0.91078  0.52904  0.18792  1.0000
  N   N1        1.0  0.91098  0.99360  0.63077  1.0000
  N   N2        1.0  0.41099  0.49361  0.86923  1.0000
  N   N3        1.0  0.08901  0.00640  0.36923  1.0000
  N   N4        1.0  0.58901  0.50639  0.13077  1.0000
  O   O1        1.0  0.71925  0.25492  0.95404  1.0000
  O   O2        1.0  0.21925  0.75493  0.54596  1.0000
  O   O3        1.0  0.28075  0.74508  0.04596  1.0000
  O   O4        1.0  0.78075  0.24507  0.45404  1.0000
  O   O5        1.0  0.17946  0.08437  0.92481  1.0000
  O   O6        1.0  0.67947  0.58437  0.57518  1.0000
  O   O7        1.0  0.82054  0.91563  0.07518  1.0000
  O   O8        1.0  0.32053  0.41563  0.42482  1.0000
  O   O9        1.0  0.38623  0.23664  0.01270  1.0000
  O   O10       1.0  0.88624  0.73664  0.48729  1.0000
  O   O11       1.0  0.61376  0.76336  0.98730  1.0000
  O   O12       1.0  0.11376  0.26336  0.51271  1.0000
