data_image0
_chemical_formula_structural       Tl4H36C36O16
_chemical_formula_sum              "Tl4 H36 C36 O16"
_cell_length_a       7.39047
_cell_length_b       9.70704
_cell_length_c       13.9353
_cell_angle_alpha    101.943
_cell_angle_beta     89.9999
_cell_angle_gamma    89.9999

_space_group_name_H-M_alt    "P 1"
_space_group_IT_number       1

loop_
  _space_group_symop_operation_xyz
  'x, y, z'

loop_
  _atom_site_type_symbol
  _atom_site_label
  _atom_site_symmetry_multiplicity
  _atom_site_fract_x
  _atom_site_fract_y
  _atom_site_fract_z
  _atom_site_occupancy
  Tl  Tl1       1.0  0.12088  0.34423  0.08498  1.0000
  Tl  Tl2       1.0  0.37912  0.84423  0.08498  1.0000
  Tl  Tl3       1.0  0.87911  0.65577  0.91502  1.0000
  Tl  Tl4       1.0  0.62088  0.15577  0.91502  1.0000
  H   H1        1.0  0.39849  0.84299  0.86315  1.0000
  H   H2        1.0  0.10151  0.34299  0.86315  1.0000
  H   H3        1.0  0.60152  0.15701  0.13685  1.0000
  H   H4        1.0  0.89849  0.65701  0.13685  1.0000
  H   H5        1.0  0.38342  0.64435  0.72084  1.0000
  H   H6        1.0  0.11658  0.14435  0.72083  1.0000
  H   H7        1.0  0.61658  0.35565  0.27916  1.0000
  H   H8        1.0  0.88342  0.85565  0.27917  1.0000
  H   H9        1.0  0.87128  0.98027  0.79482  1.0000
  H   H10       1.0  0.62872  0.48027  0.79482  1.0000
  H   H11       1.0  0.12872  0.01973  0.20518  1.0000
  H   H12       1.0  0.37128  0.51974  0.20518  1.0000
  H   H13       1.0  0.61537  0.87047  0.71901  1.0000
  H   H14       1.0  0.88463  0.37047  0.71901  1.0000
  H   H15       1.0  0.38463  0.12953  0.28099  1.0000
  H   H16       1.0  0.11537  0.62953  0.28099  1.0000
  H   H17       1.0  0.58937  0.83606  0.58801  1.0000
  H   H18       1.0  0.91063  0.33606  0.58801  1.0000
  H   H19       1.0  0.41063  0.16394  0.41199  1.0000
  H   H20       1.0  0.08936  0.66394  0.41198  1.0000
  H   H21       1.0  0.73302  0.97634  0.64740  1.0000
  H   H22       1.0  0.76698  0.47634  0.64740  1.0000
  H   H23       1.0  0.26698  0.02366  0.35260  1.0000
  H   H24       1.0  0.23302  0.52366  0.35260  1.0000
  H   H25       1.0  0.37081  0.55150  0.55513  1.0000
  H   H26       1.0  0.12919  0.05150  0.55513  1.0000
  H   H27       1.0  0.62919  0.44851  0.44487  1.0000
  H   H28       1.0  0.87081  0.94850  0.44487  1.0000
  H   H29       1.0  0.20351  0.42252  0.50308  1.0000
  H   H30       1.0  0.29649  0.92252  0.50308  1.0000
  H   H31       1.0  0.79649  0.57748  0.49692  1.0000
  H   H32       1.0  0.70352  0.07748  0.49692  1.0000
  H   H33       1.0  0.27013  0.44128  0.62924  1.0000
  H   H34       1.0  0.22987  0.94128  0.62924  1.0000
  H   H35       1.0  0.72987  0.55872  0.37075  1.0000
  H   H36       1.0  0.77013  0.05872  0.37075  1.0000
  C   C1        1.0  0.13602  0.92529  0.83796  1.0000
  C   C2        1.0  0.36399  0.42528  0.83796  1.0000
  C   C3        1.0  0.86399  0.07471  0.16204  1.0000
  C   C4        1.0  0.63601  0.57471  0.16204  1.0000
  C   C5        1.0  0.27946  0.83076  0.81621  1.0000
  C   C6        1.0  0.22054  0.33075  0.81621  1.0000
  C   C7        1.0  0.72055  0.16924  0.18379  1.0000
  C   C8        1.0  0.77946  0.66925  0.18379  1.0000
  C   C9        1.0  0.27098  0.71799  0.73551  1.0000
  C   C10       1.0  0.22902  0.21799  0.73550  1.0000
  C   C11       1.0  0.72902  0.28201  0.26449  1.0000
  C   C12       1.0  0.77098  0.78201  0.26450  1.0000
  C   C13       1.0  0.11919  0.69899  0.67464  1.0000
  C   C14       1.0  0.38080  0.19899  0.67464  1.0000
  C   C15       1.0  0.88081  0.30101  0.32536  1.0000
  C   C16       1.0  0.61919  0.80101  0.32536  1.0000
  C   C17       1.0  0.98206  0.90569  0.77702  1.0000
  C   C18       1.0  0.51794  0.40569  0.77702  1.0000
  C   C19       1.0  0.01794  0.09431  0.22298  1.0000
  C   C20       1.0  0.48206  0.59431  0.22298  1.0000
  C   C21       1.0  0.68394  0.86970  0.64877  1.0000
  C   C22       1.0  0.81606  0.36969  0.64877  1.0000
  C   C23       1.0  0.31607  0.13031  0.35123  1.0000
  C   C24       1.0  0.18393  0.63031  0.35123  1.0000
  C   C25       1.0  0.97182  0.79461  0.69622  1.0000
  C   C26       1.0  0.52818  0.29460  0.69622  1.0000
  C   C27       1.0  0.02818  0.20539  0.30379  1.0000
  C   C28       1.0  0.47182  0.70540  0.30379  1.0000
  C   C29       1.0  0.14454  0.04818  0.92371  1.0000
  C   C30       1.0  0.35545  0.54818  0.92371  1.0000
  C   C31       1.0  0.85546  0.95182  0.07629  1.0000
  C   C32       1.0  0.64454  0.45182  0.07629  1.0000
  C   C33       1.0  0.24593  0.49694  0.56937  1.0000
  C   C34       1.0  0.25407  0.99694  0.56937  1.0000
  C   C35       1.0  0.75407  0.50306  0.43063  1.0000
  C   C36       1.0  0.74593  0.00306  0.43063  1.0000
  O   O1        1.0  0.09960  0.59515  0.59315  1.0000
  O   O2        1.0  0.40040  0.09515  0.59315  1.0000
  O   O3        1.0  0.90040  0.40485  0.40685  1.0000
  O   O4        1.0  0.59960  0.90485  0.40685  1.0000
  O   O5        1.0  0.01428  0.13619  0.93418  1.0000
  O   O6        1.0  0.48571  0.63618  0.93418  1.0000
  O   O7        1.0  0.98572  0.86381  0.06582  1.0000
  O   O8        1.0  0.51428  0.36381  0.06582  1.0000
  O   O9        1.0  0.82884  0.76937  0.63259  1.0000
  O   O10       1.0  0.67116  0.26936  0.63259  1.0000
  O   O11       1.0  0.17116  0.23064  0.36741  1.0000
  O   O12       1.0  0.32884  0.73064  0.36741  1.0000
  O   O13       1.0  0.28235  0.06037  0.98024  1.0000
  O   O14       1.0  0.21765  0.56037  0.98024  1.0000
  O   O15       1.0  0.71766  0.93963  0.01975  1.0000
  O   O16       1.0  0.78235  0.43963  0.01976  1.0000
