data_image0
_chemical_formula_structural       Cu2H30C32N24O8
_chemical_formula_sum              "Cu2 H30 C32 N24 O8"
_cell_length_a       8.20763
_cell_length_b       10.8618
_cell_length_c       12.1692
_cell_angle_alpha    80.6032
_cell_angle_beta     80.1191
_cell_angle_gamma    87.366

_space_group_name_H-M_alt    "P 1"
_space_group_IT_number       1

loop_
  _space_group_symop_operation_xyz
  'x, y, z'

loop_
  _atom_site_type_symbol
  _atom_site_label
  _atom_site_symmetry_multiplicity
  _atom_site_fract_x
  _atom_site_fract_y
  _atom_site_fract_z
  _atom_site_occupancy
  Cu  Cu1       1.0  0.28499  0.52451  0.08394  1.0000
  Cu  Cu2       1.0  0.71501  0.47549  0.91607  1.0000
  H   H1        1.0  0.10212  0.31552  0.27788  1.0000
  H   H2        1.0  0.89788  0.68447  0.72212  1.0000
  H   H3        1.0  0.84366  0.19116  0.28624  1.0000
  H   H4        1.0  0.15633  0.80882  0.71376  1.0000
  H   H5        1.0  0.66843  0.25580  0.13505  1.0000
  H   H6        1.0  0.33155  0.74420  0.86495  1.0000
  H   H7        1.0  0.52801  0.16897  0.35586  1.0000
  H   H8        1.0  0.47199  0.83103  0.64413  1.0000
  H   H9        1.0  0.46418  0.09166  0.49760  1.0000
  H   H10       1.0  0.53583  0.90835  0.50240  1.0000
  H   H11       1.0  0.64989  0.17871  0.46450  1.0000
  H   H12       1.0  0.35012  0.82129  0.53549  1.0000
  H   H13       1.0  0.15939  0.35053  0.77207  1.0000
  H   H14       1.0  0.84062  0.64947  0.22792  1.0000
  H   H15       1.0  0.21675  0.51138  0.73467  1.0000
  H   H16       1.0  0.78326  0.48861  0.26533  1.0000
  H   H17       1.0  0.36852  0.39332  0.76771  1.0000
  H   H18       1.0  0.63149  0.60668  0.23229  1.0000
  H   H19       1.0  0.17051  0.94757  0.94621  1.0000
  H   H20       1.0  0.82949  0.05242  0.05379  1.0000
  H   H21       1.0  0.12595  0.07804  0.84357  1.0000
  H   H22       1.0  0.87405  0.92196  0.15644  1.0000
  H   H23       1.0  0.10915  0.09579  0.98792  1.0000
  H   H24       1.0  0.89085  0.90421  0.01208  1.0000
  H   H25       1.0  0.87806  0.02319  0.76261  1.0000
  H   H26       1.0  0.12194  0.97682  0.23739  1.0000
  H   H27       1.0  0.73451  0.00197  0.67161  1.0000
  H   H28       1.0  0.26549  0.99804  0.32839  1.0000
  H   H29       1.0  0.74472  0.88963  0.79519  1.0000
  H   H30       1.0  0.25529  0.11038  0.20480  1.0000
  C   C1        1.0  0.02329  0.33422  0.21337  1.0000
  C   C2        1.0  0.97671  0.66576  0.78663  1.0000
  C   C3        1.0  0.88114  0.26695  0.21758  1.0000
  C   C4        1.0  0.11887  0.73305  0.78242  1.0000
  C   C5        1.0  0.78404  0.30185  0.13376  1.0000
  C   C6        1.0  0.21595  0.69815  0.86624  1.0000
  C   C7        1.0  0.97290  0.45149  0.04790  1.0000
  C   C8        1.0  0.02710  0.54850  0.95210  1.0000
  C   C9        1.0  0.38005  0.37485  0.39101  1.0000
  C   C10       1.0  0.61994  0.62515  0.60899  1.0000
  C   C11       1.0  0.52440  0.17415  0.44528  1.0000
  C   C12       1.0  0.47561  0.82586  0.55471  1.0000
  C   C13       1.0  0.38447  0.29753  0.58488  1.0000
  C   C14       1.0  0.61554  0.70247  0.41511  1.0000
  C   C15       1.0  0.25761  0.41543  0.72926  1.0000
  C   C16       1.0  0.74240  0.58457  0.27074  1.0000
  C   C17       1.0  0.24482  0.50646  0.53118  1.0000
  C   C18       1.0  0.75517  0.49354  0.46883  1.0000
  C   C19       1.0  0.29092  0.48270  0.41669  1.0000
  C   C20       1.0  0.70909  0.51730  0.58331  1.0000
  C   C21       1.0  0.39108  0.19363  0.93690  1.0000
  C   C22       1.0  0.60892  0.80638  0.06310  1.0000
  C   C23       1.0  0.17832  0.04874  0.92110  1.0000
  C   C24       1.0  0.82167  0.95125  0.07890  1.0000
  C   C25       1.0  0.47063  0.02078  0.84184  1.0000
  C   C26       1.0  0.52938  0.97922  0.15816  1.0000
  C   C27       1.0  0.75602  0.98885  0.75945  1.0000
  C   C28       1.0  0.24398  0.01116  0.24054  1.0000
  C   C29       1.0  0.68907  0.16881  0.86053  1.0000
  C   C30       1.0  0.31093  0.83120  0.13947  1.0000
  C   C31       1.0  0.55179  0.23707  0.91410  1.0000
  C   C32       1.0  0.44821  0.76293  0.08590  1.0000
  N   N1        1.0  0.06805  0.42728  0.12783  1.0000
  N   N2        1.0  0.93194  0.57271  0.87217  1.0000
  N   N3        1.0  0.83187  0.39489  0.04834  1.0000
  N   N4        1.0  0.16813  0.60512  0.95165  1.0000
  N   N5        1.0  0.25932  0.54973  0.31782  1.0000
  N   N6        1.0  0.74067  0.45026  0.68218  1.0000
  N   N7        1.0  0.32777  0.48359  0.23972  1.0000
  N   N8        1.0  0.67222  0.51641  0.76029  1.0000
  N   N9        1.0  0.40393  0.37519  0.27882  1.0000
  N   N10       1.0  0.59607  0.62481  0.72118  1.0000
  N   N11       1.0  0.42928  0.28496  0.47223  1.0000
  N   N12       1.0  0.57073  0.71504  0.52777  1.0000
  N   N13       1.0  0.29678  0.40658  0.60926  1.0000
  N   N14       1.0  0.70323  0.59342  0.39074  1.0000
  N   N15       1.0  0.54436  0.34662  0.95527  1.0000
  N   N16       1.0  0.45564  0.65338  0.04473  1.0000
  N   N17       1.0  0.38797  0.36693  0.00048  1.0000
  N   N18       1.0  0.61202  0.63306  0.99953  1.0000
  N   N19       1.0  0.29029  0.27371  0.99169  1.0000
  N   N20       1.0  0.70969  0.72628  0.00831  1.0000
  N   N21       1.0  0.35026  0.08540  0.90527  1.0000
  N   N22       1.0  0.64974  0.91460  0.09473  1.0000
  N   N23       1.0  0.63407  0.06208  0.82516  1.0000
  N   N24       1.0  0.36593  0.93792  0.17485  1.0000
  O   O1        1.0  0.42048  0.21609  0.66084  1.0000
  O   O2        1.0  0.57953  0.78392  0.33916  1.0000
  O   O3        1.0  0.17077  0.59937  0.56329  1.0000
  O   O4        1.0  0.82923  0.40063  0.43671  1.0000
  O   O5        1.0  0.43675  0.92758  0.80442  1.0000
  O   O6        1.0  0.56325  0.07242  0.19558  1.0000
  O   O7        1.0  0.83703  0.19393  0.84824  1.0000
  O   O8        1.0  0.16296  0.80607  0.15176  1.0000
