data_image0
_chemical_formula_structural       Fe2H16C12S4N20O4
_chemical_formula_sum              "Fe2 H16 C12 S4 N20 O4"
_cell_length_a       5.47516
_cell_length_b       11.0033
_cell_length_c       11.6223
_cell_angle_alpha    96.796
_cell_angle_beta     90.006
_cell_angle_gamma    104.399

_space_group_name_H-M_alt    "P 1"
_space_group_IT_number       1

loop_
  _space_group_symop_operation_xyz
  'x, y, z'

loop_
  _atom_site_type_symbol
  _atom_site_label
  _atom_site_symmetry_multiplicity
  _atom_site_fract_x
  _atom_site_fract_y
  _atom_site_fract_z
  _atom_site_occupancy
  Fe  Fe1       1.0  0.50000  0.50000  0.50000  1.0000
  Fe  Fe2       1.0  1.00000  0.50000  1.00000  1.0000
  H   H1        1.0  0.67447  0.44396  0.28093  1.0000
  H   H2        1.0  0.23032  0.55602  0.21903  1.0000
  H   H3        1.0  0.32553  0.55604  0.71907  1.0000
  H   H4        1.0  0.76968  0.44398  0.78097  1.0000
  H   H5        1.0  0.90186  0.53652  0.35964  1.0000
  H   H6        1.0  0.36510  0.46338  0.14047  1.0000
  H   H7        1.0  0.09814  0.46348  0.64037  1.0000
  H   H8        1.0  0.63489  0.53662  0.85953  1.0000
  H   H9        1.0  0.34640  0.19161  0.43272  1.0000
  H   H10       1.0  0.15509  0.80837  0.06730  1.0000
  H   H11       1.0  0.65360  0.80839  0.56728  1.0000
  H   H12       1.0  0.84492  0.19162  0.93270  1.0000
  H   H13       1.0  0.92339  0.20184  0.68063  1.0000
  H   H14       1.0  0.72139  0.79820  0.81916  1.0000
  H   H15       1.0  0.07661  0.79816  0.31937  1.0000
  H   H16       1.0  0.27861  0.20180  0.18084  1.0000
  C   C1        1.0  0.49725  0.22824  0.49705  1.0000
  C   C2        1.0  0.26925  0.77174  0.00292  1.0000
  C   C3        1.0  0.50275  0.77176  0.50294  1.0000
  C   C4        1.0  0.73075  0.22826  0.99708  1.0000
  C   C5        1.0  0.92586  0.69655  0.63865  1.0000
  C   C6        1.0  0.22928  0.30349  0.86147  1.0000
  C   C7        1.0  0.07414  0.30345  0.36135  1.0000
  C   C8        1.0  0.77071  0.69651  0.13853  1.0000
  C   C9        1.0  0.79314  0.23368  0.62728  1.0000
  C   C10       1.0  0.55936  0.76635  0.87255  1.0000
  C   C11       1.0  0.20686  0.76632  0.37272  1.0000
  C   C12       1.0  0.44064  0.23364  0.12745  1.0000
  S   S1        1.0  0.11175  0.82284  0.70686  1.0000
  S   S2        1.0  0.28925  0.17731  0.79320  1.0000
  S   S3        1.0  0.88825  0.17716  0.29314  1.0000
  S   S4        1.0  0.71075  0.82269  0.20680  1.0000
  N   N1        1.0  0.77957  0.60847  0.58770  1.0000
  N   N2        1.0  0.17101  0.39157  0.91240  1.0000
  N   N3        1.0  0.22044  0.39153  0.41230  1.0000
  N   N4        1.0  0.82898  0.60843  0.08760  1.0000
  N   N5        1.0  0.58459  0.02625  0.53870  1.0000
  N   N6        1.0  0.55818  0.97379  0.96121  1.0000
  N   N7        1.0  0.41542  0.97375  0.46130  1.0000
  N   N8        1.0  0.44181  0.02621  0.03879  1.0000
  N   N9        1.0  0.61725  0.15404  0.55136  1.0000
  N   N10       1.0  0.46325  0.84598  0.94853  1.0000
  N   N11       1.0  0.38275  0.84596  0.44864  1.0000
  N   N12       1.0  0.53675  0.15402  0.05147  1.0000
  N   N13       1.0  0.59690  0.34762  0.53864  1.0000
  N   N14       1.0  0.24956  0.65240  0.96131  1.0000
  N   N15       1.0  0.40310  0.65238  0.46136  1.0000
  N   N16       1.0  0.75044  0.34760  0.03869  1.0000
  N   N17       1.0  0.78432  0.35085  0.62103  1.0000
  N   N18       1.0  0.43352  0.64918  0.87883  1.0000
  N   N19       1.0  0.21568  0.64915  0.37897  1.0000
  N   N20       1.0  0.56647  0.35082  0.12117  1.0000
  O   O1        1.0  0.71637  0.51303  0.34518  1.0000
  O   O2        1.0  0.20308  0.48687  0.15486  1.0000
  O   O3        1.0  0.28363  0.48697  0.65482  1.0000
  O   O4        1.0  0.79692  0.51313  0.84514  1.0000
