data_image0
_chemical_formula_structural       Zn2H8C12S4N20
_chemical_formula_sum              "Zn2 H8 C12 S4 N20"
_cell_length_a       7.73584
_cell_length_b       7.65598
_cell_length_c       11.8885
_cell_angle_alpha    74.1153
_cell_angle_beta     81.3854
_cell_angle_gamma    81.4657

_space_group_name_H-M_alt    "P 1"
_space_group_IT_number       1

loop_
  _space_group_symop_operation_xyz
  'x, y, z'

loop_
  _atom_site_type_symbol
  _atom_site_label
  _atom_site_symmetry_multiplicity
  _atom_site_fract_x
  _atom_site_fract_y
  _atom_site_fract_z
  _atom_site_occupancy
  Zn  Zn1       1.0  0.25581  0.72197  0.15024  1.0000
  Zn  Zn2       1.0  0.74419  0.27802  0.84976  1.0000
  H   H1        1.0  0.46122  0.22468  0.28568  1.0000
  H   H2        1.0  0.53878  0.77532  0.71432  1.0000
  H   H3        1.0  0.32555  0.68101  0.42556  1.0000
  H   H4        1.0  0.67445  0.31899  0.57445  1.0000
  H   H5        1.0  0.84616  0.31521  0.21096  1.0000
  H   H6        1.0  0.15384  0.68479  0.78904  1.0000
  H   H7        1.0  0.63298  0.77532  0.95665  1.0000
  H   H8        1.0  0.36703  0.22469  0.04336  1.0000
  C   C1        1.0  0.41483  0.09433  0.29217  1.0000
  C   C2        1.0  0.58517  0.90567  0.70783  1.0000
  C   C3        1.0  0.34635  0.81224  0.36462  1.0000
  C   C4        1.0  0.65366  0.18776  0.63539  1.0000
  C   C5        1.0  0.75298  0.42395  0.16749  1.0000
  C   C6        1.0  0.24703  0.57605  0.83251  1.0000
  C   C7        1.0  0.64089  0.66215  0.03608  1.0000
  C   C8        1.0  0.35911  0.33786  0.96392  1.0000
  C   C9        1.0  0.19267  0.96635  0.90251  1.0000
  C   C10       1.0  0.80733  0.03364  0.09749  1.0000
  C   C11       1.0  0.09115  0.40004  0.32683  1.0000
  C   C12       1.0  0.90884  0.59997  0.67316  1.0000
  S   S1        1.0  0.16503  0.10246  0.77562  1.0000
  S   S2        1.0  0.83497  0.89754  0.22439  1.0000
  S   S3        1.0  0.02198  0.23893  0.43477  1.0000
  S   S4        1.0  0.97800  0.76105  0.56521  1.0000
  N   N1        1.0  0.30959  0.87089  0.25533  1.0000
  N   N2        1.0  0.69042  0.12911  0.74467  1.0000
  N   N3        1.0  0.35259  0.04817  0.20927  1.0000
  N   N4        1.0  0.64741  0.95182  0.79073  1.0000
  N   N5        1.0  0.41363  0.94922  0.39156  1.0000
  N   N6        1.0  0.58637  0.05078  0.60844  1.0000
  N   N7        1.0  0.46961  0.92902  0.49864  1.0000
  N   N8        1.0  0.53039  0.07098  0.50136  1.0000
  N   N9        1.0  0.51708  0.60865  0.12212  1.0000
  N   N10       1.0  0.48292  0.39135  0.87788  1.0000
  N   N11       1.0  0.58744  0.46020  0.20580  1.0000
  N   N12       1.0  0.41256  0.53981  0.79420  1.0000
  N   N13       1.0  0.79169  0.54783  0.06062  1.0000
  N   N14       1.0  0.20831  0.45218  0.93939  1.0000
  N   N15       1.0  0.94291  0.56592  0.98377  1.0000
  N   N16       1.0  0.05709  0.43409  0.01624  1.0000
  N   N17       1.0  0.21247  0.86218  0.99561  1.0000
  N   N18       1.0  0.78753  0.13782  0.00439  1.0000
  N   N19       1.0  0.14275  0.51559  0.24424  1.0000
  N   N20       1.0  0.85724  0.48440  0.75576  1.0000
