data_image0
_chemical_formula_structural       Ni2H32C34S2N4O14
_chemical_formula_sum              "Ni2 H32 C34 S2 N4 O14"
_cell_length_a       8.61735
_cell_length_b       8.17081
_cell_length_c       14.2441
_cell_angle_alpha    90.0015
_cell_angle_beta     89.9958
_cell_angle_gamma    114.117

_space_group_name_H-M_alt    "P 1"
_space_group_IT_number       1

loop_
  _space_group_symop_operation_xyz
  'x, y, z'

loop_
  _atom_site_type_symbol
  _atom_site_label
  _atom_site_symmetry_multiplicity
  _atom_site_fract_x
  _atom_site_fract_y
  _atom_site_fract_z
  _atom_site_occupancy
  Ni  Ni1       1.0  0.36758  0.39816  0.01933  1.0000
  Ni  Ni2       1.0  0.63240  0.60182  0.51932  1.0000
  H   H1        1.0  0.58677  0.51161  0.18807  1.0000
  H   H2        1.0  0.41327  0.48839  0.68804  1.0000
  H   H3        1.0  0.80880  0.80582  0.23941  1.0000
  H   H4        1.0  0.19125  0.19426  0.73938  1.0000
  H   H5        1.0  0.88397  0.07465  0.13294  1.0000
  H   H6        1.0  0.11600  0.92536  0.63294  1.0000
  H   H7        1.0  0.71641  0.03973  0.98561  1.0000
  H   H8        1.0  0.28359  0.96028  0.48557  1.0000
  H   H9        1.0  0.53378  0.98397  0.86813  1.0000
  H   H10       1.0  0.46627  0.01600  0.36815  1.0000
  H   H11       1.0  0.31521  0.88067  0.74175  1.0000
  H   H12       1.0  0.68487  0.11930  0.24176  1.0000
  H   H13       1.0  0.09819  0.56118  0.74233  1.0000
  H   H14       1.0  0.90185  0.43875  0.24230  1.0000
  H   H15       1.0  0.11734  0.35431  0.86869  1.0000
  H   H16       1.0  0.88270  0.64570  0.36866  1.0000
  H   H17       1.0  0.99786  0.67000  0.01113  1.0000
  H   H18       1.0  0.00219  0.33016  0.51119  1.0000
  H   H19       1.0  0.66722  0.54704  0.76996  1.0000
  H   H20       1.0  0.33277  0.45294  0.26996  1.0000
  H   H21       1.0  0.78140  0.87317  0.73050  1.0000
  H   H22       1.0  0.21858  0.12686  0.23055  1.0000
  H   H23       1.0  0.99703  0.09393  0.83413  1.0000
  H   H24       1.0  0.00308  0.90617  0.33415  1.0000
  H   H25       1.0  0.12767  0.55768  0.11477  1.0000
  H   H26       1.0  0.87219  0.44183  0.61485  1.0000
  H   H27       1.0  0.35948  0.13099  0.08709  1.0000
  H   H28       1.0  0.64063  0.86903  0.58714  1.0000
  H   H29       1.0  0.55762  0.28564  0.07839  1.0000
  H   H30       1.0  0.44248  0.71449  0.57840  1.0000
  H   H31       1.0  0.95641  0.40793  0.07985  1.0000
  H   H32       1.0  0.04326  0.59184  0.57994  1.0000
  C   C1        1.0  0.61790  0.63232  0.14637  1.0000
  C   C2        1.0  0.38212  0.36766  0.64636  1.0000
  C   C3        1.0  0.74334  0.79669  0.17317  1.0000
  C   C4        1.0  0.25665  0.20327  0.67314  1.0000
  C   C5        1.0  0.78228  0.94556  0.11500  1.0000
  C   C6        1.0  0.21771  0.05442  0.61496  1.0000
  C   C7        1.0  0.68887  0.92681  0.03287  1.0000
  C   C8        1.0  0.31114  0.07318  0.53284  1.0000
  C   C9        1.0  0.56041  0.76054  0.01118  1.0000
  C   C10       1.0  0.43961  0.23945  0.51115  1.0000
  C   C11       1.0  0.44461  0.72176  0.93206  1.0000
  C   C12       1.0  0.55541  0.27824  0.43204  1.0000
  C   C13       1.0  0.44234  0.84462  0.86486  1.0000
  C   C14       1.0  0.55769  0.15535  0.36483  1.0000
  C   C15       1.0  0.31919  0.78648  0.79475  1.0000
  C   C16       1.0  0.68088  0.21352  0.29474  1.0000
  C   C17       1.0  0.20008  0.60866  0.79438  1.0000
  C   C18       1.0  0.79994  0.39133  0.29435  1.0000
  C   C19       1.0  0.20930  0.49242  0.86349  1.0000
  C   C20       1.0  0.79075  0.50760  0.36347  1.0000
  C   C21       1.0  0.15549  0.02636  0.98589  1.0000
  C   C22       1.0  0.84454  0.97369  0.48595  1.0000
  C   C23       1.0  0.01837  0.89511  0.92594  1.0000
  C   C24       1.0  0.98165  0.10497  0.42601  1.0000
  C   C25       1.0  0.95170  0.71270  0.94877  1.0000
  C   C26       1.0  0.04834  0.28738  0.44885  1.0000
  C   C27       1.0  0.82443  0.58992  0.89289  1.0000
  C   C28       1.0  0.17555  0.41013  0.39291  1.0000
  C   C29       1.0  0.76532  0.64583  0.81299  1.0000
  C   C30       1.0  0.23468  0.35422  0.31302  1.0000
  C   C31       1.0  0.82997  0.82781  0.79110  1.0000
  C   C32       1.0  0.17000  0.17225  0.29115  1.0000
  C   C33       1.0  0.95376  0.95161  0.84808  1.0000
  C   C34       1.0  0.04626  0.04845  0.34814  1.0000
  S   S1        1.0  0.73192  0.35697  0.92123  1.0000
  S   S2        1.0  0.26803  0.64313  0.42120  1.0000
  N   N1        1.0  0.52904  0.61357  0.06643  1.0000
  N   N2        1.0  0.47097  0.38643  0.56641  1.0000
  N   N3        1.0  0.32956  0.54692  0.93035  1.0000
  N   N4        1.0  0.67046  0.45309  0.43034  1.0000
  O   O1        1.0  0.19501  0.19343  0.96660  1.0000
  O   O2        1.0  0.80504  0.80662  0.46663  1.0000
  O   O3        1.0  0.22278  0.96889  0.04966  1.0000
  O   O4        1.0  0.77723  0.03107  0.54976  1.0000
  O   O5        1.0  0.74860  0.35036  0.02598  1.0000
  O   O6        1.0  0.25140  0.64988  0.52595  1.0000
  O   O7        1.0  0.82992  0.27262  0.87293  1.0000
  O   O8        1.0  0.16994  0.72729  0.37287  1.0000
  O   O9        1.0  0.55401  0.28977  0.89187  1.0000
  O   O10       1.0  0.44594  0.71039  0.39178  1.0000
  O   O11       1.0  0.44133  0.26348  0.10357  1.0000
  O   O12       1.0  0.55873  0.73657  0.60356  1.0000
  O   O13       1.0  0.05605  0.43029  0.12057  1.0000
  O   O14       1.0  0.94364  0.56921  0.62069  1.0000
