data_image0
_chemical_formula_structural       Rb4H16C28O12
_chemical_formula_sum              "Rb4 H16 C28 O12"
_cell_length_a       3.60152
_cell_length_b       6.99899
_cell_length_c       28.0271
_cell_angle_alpha    90.002
_cell_angle_beta     90.0011
_cell_angle_gamma    95.9222

_space_group_name_H-M_alt    "P 1"
_space_group_IT_number       1

loop_
  _space_group_symop_operation_xyz
  'x, y, z'

loop_
  _atom_site_type_symbol
  _atom_site_label
  _atom_site_symmetry_multiplicity
  _atom_site_fract_x
  _atom_site_fract_y
  _atom_site_fract_z
  _atom_site_occupancy
  Rb  Rb1       1.0  0.15890  0.25471  0.53809  1.0000
  Rb  Rb2       1.0  0.34128  0.24531  0.03811  1.0000
  Rb  Rb3       1.0  0.84087  0.74529  0.46188  1.0000
  Rb  Rb4       1.0  0.65923  0.75473  0.96192  1.0000
  H   H1        1.0  0.96134  0.72455  0.75362  1.0000
  H   H2        1.0  0.53852  0.77541  0.25364  1.0000
  H   H3        1.0  0.03841  0.27537  0.24637  1.0000
  H   H4        1.0  0.46137  0.22457  0.74638  1.0000
  H   H5        1.0  0.80031  0.03171  0.71970  1.0000
  H   H6        1.0  0.69952  0.46828  0.21971  1.0000
  H   H7        1.0  0.19942  0.96825  0.28028  1.0000
  H   H8        1.0  0.30043  0.53171  0.78031  1.0000
  H   H9        1.0  0.92120  0.42962  0.70222  1.0000
  H   H10       1.0  0.57882  0.07036  0.20225  1.0000
  H   H11       1.0  0.07850  0.57032  0.29775  1.0000
  H   H12       1.0  0.42130  0.92964  0.79776  1.0000
  H   H13       1.0  0.58553  0.05081  0.63606  1.0000
  H   H14       1.0  0.91451  0.44925  0.13608  1.0000
  H   H15       1.0  0.41430  0.94921  0.36391  1.0000
  H   H16       1.0  0.08568  0.55082  0.86395  1.0000
  C   C1        1.0  0.86244  0.72755  0.71688  1.0000
  C   C2        1.0  0.63750  0.77245  0.21690  1.0000
  C   C3        1.0  0.13742  0.27242  0.28310  1.0000
  C   C4        1.0  0.36255  0.22756  0.78312  1.0000
  C   C5        1.0  0.76522  0.90240  0.69783  1.0000
  C   C6        1.0  0.73470  0.59758  0.19786  1.0000
  C   C7        1.0  0.23460  0.09754  0.30213  1.0000
  C   C8        1.0  0.26534  0.40241  0.80217  1.0000
  C   C9        1.0  0.83822  0.56546  0.68901  1.0000
  C   C10       1.0  0.66181  0.93453  0.18903  1.0000
  C   C11       1.0  0.16148  0.43451  0.31097  1.0000
  C   C12       1.0  0.33831  0.06548  0.81098  1.0000
  C   C13       1.0  0.64246  0.91249  0.65076  1.0000
  C   C14       1.0  0.85756  0.58755  0.15079  1.0000
  C   C15       1.0  0.35729  0.08751  0.34921  1.0000
  C   C16       1.0  0.14273  0.41250  0.84924  1.0000
  C   C17       1.0  0.69979  0.56558  0.64002  1.0000
  C   C18       1.0  0.80026  0.93440  0.14004  1.0000
  C   C19       1.0  0.29982  0.43436  0.35996  1.0000
  C   C20       1.0  0.20009  0.06565  0.85999  1.0000
  C   C21       1.0  0.60623  0.75184  0.62117  1.0000
  C   C22       1.0  0.89386  0.74820  0.12120  1.0000
  C   C23       1.0  0.39352  0.24818  0.37880  1.0000
  C   C24       1.0  0.10638  0.25181  0.87883  1.0000
  C   C25       1.0  0.50298  0.78113  0.56976  1.0000
  C   C26       1.0  0.99719  0.71888  0.06978  1.0000
  C   C27       1.0  0.49676  0.21890  0.43022  1.0000
  C   C28       1.0  0.00336  0.28113  0.93026  1.0000
  O   O1        1.0  0.67047  0.41207  0.61610  1.0000
  O   O2        1.0  0.82974  0.08791  0.11613  1.0000
  O   O3        1.0  0.32921  0.58790  0.38387  1.0000
  O   O4        1.0  0.17072  0.91212  0.88389  1.0000
  O   O5        1.0  0.31022  0.65069  0.54683  1.0000
  O   O6        1.0  0.18998  0.84930  0.04686  1.0000
  O   O7        1.0  0.68957  0.34932  0.45315  1.0000
  O   O8        1.0  0.81051  0.15072  0.95318  1.0000
  O   O9        1.0  0.62432  0.94377  0.55247  1.0000
  O   O10       1.0  0.87584  0.55624  0.05248  1.0000
  O   O11       1.0  0.37554  0.05623  0.44751  1.0000
  O   O12       1.0  0.12458  0.44382  0.94754  1.0000
