data_image0
_chemical_formula_structural       K2H8C14O6
_chemical_formula_sum              "K2 H8 C14 O6"
_cell_length_a       3.35572
_cell_length_b       6.62937
_cell_length_c       14.537
_cell_angle_alpha    90.1112
_cell_angle_beta     89.8014
_cell_angle_gamma    99.3575

_space_group_name_H-M_alt    "P 1"
_space_group_IT_number       1

loop_
  _space_group_symop_operation_xyz
  'x, y, z'

loop_
  _atom_site_type_symbol
  _atom_site_label
  _atom_site_symmetry_multiplicity
  _atom_site_fract_x
  _atom_site_fract_y
  _atom_site_fract_z
  _atom_site_occupancy
  K   K1        1.0  0.53788  0.73373  0.42734  1.0000
  K   K2        1.0  0.46209  0.26627  0.57267  1.0000
  H   H1        1.0  0.66112  0.30303  0.00544  1.0000
  H   H2        1.0  0.33889  0.69698  0.99457  1.0000
  H   H3        1.0  0.75810  0.96675  0.07125  1.0000
  H   H4        1.0  0.24190  0.03326  0.92874  1.0000
  H   H5        1.0  0.76771  0.61341  0.10605  1.0000
  H   H6        1.0  0.23230  0.38660  0.89396  1.0000
  H   H7        1.0  0.95071  0.93798  0.23473  1.0000
  H   H8        1.0  0.04927  0.06202  0.76527  1.0000
  C   C1        1.0  0.74636  0.29236  0.07732  1.0000
  C   C2        1.0  0.25366  0.70764  0.92268  1.0000
  C   C3        1.0  0.80231  0.10277  0.11478  1.0000
  C   C4        1.0  0.19770  0.89723  0.88522  1.0000
  C   C5        1.0  0.80289  0.46317  0.13193  1.0000
  C   C6        1.0  0.19713  0.53683  0.86807  1.0000
  C   C7        1.0  0.91115  0.08647  0.20714  1.0000
  C   C8        1.0  0.08884  0.91352  0.79286  1.0000
  C   C9        1.0  0.92627  0.45632  0.22810  1.0000
  C   C10       1.0  0.07375  0.54368  0.77190  1.0000
  C   C11       1.0  0.96987  0.25443  0.26543  1.0000
  C   C12       1.0  0.03014  0.74557  0.73457  1.0000
  C   C13       1.0  0.05400  0.22043  0.36635  1.0000
  C   C14       1.0  0.94597  0.77956  0.63365  1.0000
  O   O1        1.0  0.99386  0.62071  0.27316  1.0000
  O   O2        1.0  0.00617  0.37929  0.72684  1.0000
  O   O3        1.0  0.99939  0.35852  0.42341  1.0000
  O   O4        1.0  0.00058  0.64148  0.57659  1.0000
  O   O5        1.0  0.16628  0.05275  0.38712  1.0000
  O   O6        1.0  0.83372  0.94723  0.61288  1.0000
