data_image0
_chemical_formula_structural       Mn4H28C44O20
_chemical_formula_sum              "Mn4 H28 C44 O20"
_cell_length_a       9.80292
_cell_length_b       10.0672
_cell_length_c       12.0216
_cell_angle_alpha    110.024
_cell_angle_beta     100.786
_cell_angle_gamma    91.8061

_space_group_name_H-M_alt    "P 1"
_space_group_IT_number       1

loop_
  _space_group_symop_operation_xyz
  'x, y, z'

loop_
  _atom_site_type_symbol
  _atom_site_label
  _atom_site_symmetry_multiplicity
  _atom_site_fract_x
  _atom_site_fract_y
  _atom_site_fract_z
  _atom_site_occupancy
  Mn  Mn1       1.0  0.63331  0.39182  0.46068  1.0000
  Mn  Mn2       1.0  0.36668  0.60819  0.53932  1.0000
  Mn  Mn3       1.0  0.54587  0.09506  0.22710  1.0000
  Mn  Mn4       1.0  0.45414  0.90495  0.77290  1.0000
  H   H1        1.0  0.33929  0.08645  0.03360  1.0000
  H   H2        1.0  0.66070  0.91354  0.96640  1.0000
  H   H3        1.0  0.26316  0.02565  0.11587  1.0000
  H   H4        1.0  0.73684  0.97437  0.88413  1.0000
  H   H5        1.0  0.60017  0.22093  0.58945  1.0000
  H   H6        1.0  0.39985  0.77906  0.41055  1.0000
  H   H7        1.0  0.68611  0.35686  0.68944  1.0000
  H   H8        1.0  0.31389  0.64314  0.31056  1.0000
  H   H9        1.0  0.31194  0.98101  0.31811  1.0000
  H   H10       1.0  0.68806  0.01899  0.68189  1.0000
  H   H11       1.0  0.87054  0.93327  0.31202  1.0000
  H   H12       1.0  0.12945  0.06674  0.68798  1.0000
  H   H13       1.0  0.08820  0.34985  0.42466  1.0000
  H   H14       1.0  0.91179  0.65015  0.57534  1.0000
  H   H15       1.0  0.23660  0.78415  0.14868  1.0000
  H   H16       1.0  0.76339  0.21586  0.85132  1.0000
  H   H17       1.0  0.08766  0.36714  0.12756  1.0000
  H   H18       1.0  0.91235  0.63286  0.87244  1.0000
  H   H19       1.0  0.95281  0.47789  0.28442  1.0000
  H   H20       1.0  0.04720  0.52210  0.71559  1.0000
  H   H21       1.0  0.94753  0.73831  0.36498  1.0000
  H   H22       1.0  0.05247  0.26169  0.63502  1.0000
  H   H23       1.0  0.25189  0.69653  0.97872  1.0000
  H   H24       1.0  0.74813  0.30347  0.02128  1.0000
  H   H25       1.0  0.44484  0.35657  0.76173  1.0000
  H   H26       1.0  0.55515  0.64342  0.23827  1.0000
  H   H27       1.0  0.26672  0.30141  0.04628  1.0000
  H   H28       1.0  0.73328  0.69860  0.95372  1.0000
  C   C1        1.0  0.34261  0.26864  0.39391  1.0000
  C   C2        1.0  0.65738  0.73137  0.60610  1.0000
  C   C3        1.0  0.21284  0.17418  0.37118  1.0000
  C   C4        1.0  0.78715  0.82583  0.62882  1.0000
  C   C5        1.0  0.21365  0.02594  0.33075  1.0000
  C   C6        1.0  0.78635  0.97406  0.66924  1.0000
  C   C7        1.0  0.09105  0.93634  0.30819  1.0000
  C   C8        1.0  0.90894  0.06366  0.69181  1.0000
  C   C9        1.0  0.96823  0.99895  0.32981  1.0000
  C   C10       1.0  0.03175  0.00105  0.67018  1.0000
  C   C11       1.0  0.96720  0.14687  0.37201  1.0000
  C   C12       1.0  0.03279  0.85314  0.62800  1.0000
  C   C13       1.0  0.08938  0.23484  0.39222  1.0000
  C   C14       1.0  0.91061  0.76516  0.60778  1.0000
  C   C15       1.0  0.83491  0.21021  0.39410  1.0000
  C   C16       1.0  0.16508  0.78979  0.60591  1.0000
  C   C17       1.0  0.08977  0.77960  0.26000  1.0000
  C   C18       1.0  0.91022  0.22040  0.74000  1.0000
  C   C19       1.0  0.17035  0.71608  0.17484  1.0000
  C   C20       1.0  0.82965  0.28392  0.82515  1.0000
  C   C21       1.0  0.16986  0.56755  0.12334  1.0000
  C   C22       1.0  0.83014  0.43246  0.87667  1.0000
  C   C23       1.0  0.09052  0.48254  0.16493  1.0000
  C   C24       1.0  0.90949  0.51746  0.83506  1.0000
  C   C25       1.0  0.01247  0.54461  0.25179  1.0000
  C   C26       1.0  0.98753  0.45539  0.74821  1.0000
  C   C27       1.0  0.00925  0.69157  0.29738  1.0000
  C   C28       1.0  0.99076  0.30843  0.70262  1.0000
  C   C29       1.0  0.24783  0.50657  0.02608  1.0000
  C   C30       1.0  0.75217  0.49344  0.97392  1.0000
  C   C31       1.0  0.28192  0.58923  0.96005  1.0000
  C   C32       1.0  0.71809  0.41078  0.03996  1.0000
  C   C33       1.0  0.35212  0.53636  0.86592  1.0000
  C   C34       1.0  0.64789  0.46363  0.13407  1.0000
  C   C35       1.0  0.39086  0.39846  0.83580  1.0000
  C   C36       1.0  0.60914  0.60154  0.16420  1.0000
  C   C37       1.0  0.36018  0.31455  0.90127  1.0000
  C   C38       1.0  0.63982  0.68545  0.09873  1.0000
  C   C39       1.0  0.28813  0.36795  0.99536  1.0000
  C   C40       1.0  0.71186  0.63205  0.00464  1.0000
  C   C41       1.0  0.40461  0.16826  0.86605  1.0000
  C   C42       1.0  0.59539  0.83174  0.13395  1.0000
  C   C43       1.0  0.38402  0.62625  0.79615  1.0000
  C   C44       1.0  0.61599  0.37374  0.20385  1.0000
  O   O1        1.0  0.33665  0.40143  0.42370  1.0000
  O   O2        1.0  0.66334  0.59857  0.57630  1.0000
  O   O3        1.0  0.45845  0.21284  0.38399  1.0000
  O   O4        1.0  0.54154  0.78715  0.61601  1.0000
  O   O5        1.0  0.33796  0.09392  0.11996  1.0000
  O   O6        1.0  0.66204  0.90609  0.88004  1.0000
  O   O7        1.0  0.61739  0.32351  0.61258  1.0000
  O   O8        1.0  0.38261  0.67648  0.38742  1.0000
  O   O9        1.0  0.83752  0.34536  0.43890  1.0000
  O   O10       1.0  0.16248  0.65464  0.56113  1.0000
  O   O11       1.0  0.72330  0.12642  0.36805  1.0000
  O   O12       1.0  0.27669  0.87359  0.63195  1.0000
  O   O13       1.0  0.35633  0.07599  0.90493  1.0000
  O   O14       1.0  0.64367  0.92401  0.09506  1.0000
  O   O15       1.0  0.48650  0.13162  0.79215  1.0000
  O   O16       1.0  0.51352  0.86838  0.20786  1.0000
  O   O17       1.0  0.41640  0.56289  0.69462  1.0000
  O   O18       1.0  0.58361  0.43709  0.30538  1.0000
  O   O19       1.0  0.37707  0.75999  0.84180  1.0000
  O   O20       1.0  0.62295  0.23999  0.15820  1.0000
