data_image0
_chemical_formula_structural       Ag8H16C28S4O20
_chemical_formula_sum              "Ag8 H16 C28 S4 O20"
_cell_length_a       8.38577
_cell_length_b       9.87184
_cell_length_c       11.0282
_cell_angle_alpha    103.872
_cell_angle_beta     90.0001
_cell_angle_gamma    89.9998

_space_group_name_H-M_alt    "P 1"
_space_group_IT_number       1

loop_
  _space_group_symop_operation_xyz
  'x, y, z'

loop_
  _atom_site_type_symbol
  _atom_site_label
  _atom_site_symmetry_multiplicity
  _atom_site_fract_x
  _atom_site_fract_y
  _atom_site_fract_z
  _atom_site_occupancy
  Ag  Ag1       1.0  0.64102  0.02821  0.44745  1.0000
  Ag  Ag2       1.0  0.14102  0.47179  0.55255  1.0000
  Ag  Ag3       1.0  0.35898  0.97179  0.55255  1.0000
  Ag  Ag4       1.0  0.85898  0.52821  0.44745  1.0000
  Ag  Ag5       1.0  0.00607  0.82328  0.34080  1.0000
  Ag  Ag6       1.0  0.50607  0.67672  0.65920  1.0000
  Ag  Ag7       1.0  0.99393  0.17672  0.65921  1.0000
  Ag  Ag8       1.0  0.49393  0.32328  0.34079  1.0000
  H   H1        1.0  0.41880  0.99053  0.06643  1.0000
  H   H2        1.0  0.91880  0.50947  0.93357  1.0000
  H   H3        1.0  0.58120  0.00947  0.93357  1.0000
  H   H4        1.0  0.08120  0.49054  0.06643  1.0000
  H   H5        1.0  0.89880  0.23440  0.10555  1.0000
  H   H6        1.0  0.39880  0.26560  0.89445  1.0000
  H   H7        1.0  0.10120  0.76560  0.89445  1.0000
  H   H8        1.0  0.60120  0.73440  0.10556  1.0000
  H   H9        1.0  0.04313  0.18548  0.90228  1.0000
  H   H10       1.0  0.54313  0.31452  0.09772  1.0000
  H   H11       1.0  0.95687  0.81452  0.09772  1.0000
  H   H12       1.0  0.45687  0.68548  0.90228  1.0000
  H   H13       1.0  0.29784  0.05221  0.87918  1.0000
  H   H14       1.0  0.79784  0.44779  0.12082  1.0000
  H   H15       1.0  0.70216  0.94779  0.12082  1.0000
  H   H16       1.0  0.20216  0.55221  0.87918  1.0000
  C   C1        1.0  0.07641  0.13866  0.19763  1.0000
  C   C2        1.0  0.57641  0.36134  0.80237  1.0000
  C   C3        1.0  0.92359  0.86134  0.80237  1.0000
  C   C4        1.0  0.42359  0.63866  0.19763  1.0000
  C   C5        1.0  0.30474  0.04436  0.07324  1.0000
  C   C6        1.0  0.80474  0.45564  0.92676  1.0000
  C   C7        1.0  0.69526  0.95564  0.92676  1.0000
  C   C8        1.0  0.19526  0.54436  0.07324  1.0000
  C   C9        1.0  0.22612  0.07320  0.18882  1.0000
  C   C10       1.0  0.72612  0.42680  0.81118  1.0000
  C   C11       1.0  0.77388  0.92679  0.81118  1.0000
  C   C12       1.0  0.27388  0.57321  0.18882  1.0000
  C   C13       1.0  0.01315  0.18103  0.09535  1.0000
  C   C14       1.0  0.51315  0.31897  0.90465  1.0000
  C   C15       1.0  0.98685  0.81897  0.90465  1.0000
  C   C16       1.0  0.48685  0.68103  0.09535  1.0000
  C   C17       1.0  0.09440  0.15334  0.98205  1.0000
  C   C18       1.0  0.59440  0.34666  0.01795  1.0000
  C   C19       1.0  0.90560  0.84665  0.01795  1.0000
  C   C20       1.0  0.40560  0.65334  0.98205  1.0000
  C   C21       1.0  0.23869  0.08085  0.96971  1.0000
  C   C22       1.0  0.73869  0.41915  0.03029  1.0000
  C   C23       1.0  0.76131  0.91915  0.03029  1.0000
  C   C24       1.0  0.26131  0.58085  0.96971  1.0000
  C   C25       1.0  0.31366  0.03643  0.29534  1.0000
  C   C26       1.0  0.81366  0.46357  0.70466  1.0000
  C   C27       1.0  0.68634  0.96357  0.70465  1.0000
  C   C28       1.0  0.18634  0.53643  0.29535  1.0000
  S   S1        1.0  0.95687  0.16632  0.33494  1.0000
  S   S2        1.0  0.45687  0.33368  0.66506  1.0000
  S   S3        1.0  0.04313  0.83368  0.66506  1.0000
  S   S4        1.0  0.54313  0.66632  0.33494  1.0000
  O   O1        1.0  0.87916  0.02785  0.32749  1.0000
  O   O2        1.0  0.37916  0.47215  0.67251  1.0000
  O   O3        1.0  0.12084  0.97215  0.67251  1.0000
  O   O4        1.0  0.62084  0.52785  0.32749  1.0000
  O   O5        1.0  0.25429  0.95374  0.35475  1.0000
  O   O6        1.0  0.75429  0.54626  0.64526  1.0000
  O   O7        1.0  0.74571  0.04626  0.64525  1.0000
  O   O8        1.0  0.24571  0.45374  0.35475  1.0000
  O   O9        1.0  0.83667  0.27102  0.32523  1.0000
  O   O10       1.0  0.33667  0.22898  0.67477  1.0000
  O   O11       1.0  0.16333  0.72898  0.67477  1.0000
  O   O12       1.0  0.66333  0.77102  0.32523  1.0000
  O   O13       1.0  0.45331  0.09031  0.31606  1.0000
  O   O14       1.0  0.95331  0.40969  0.68394  1.0000
  O   O15       1.0  0.54669  0.90970  0.68394  1.0000
  O   O16       1.0  0.04669  0.59031  0.31606  1.0000
  O   O17       1.0  0.06462  0.20623  0.44232  1.0000
  O   O18       1.0  0.56462  0.29377  0.55768  1.0000
  O   O19       1.0  0.93538  0.79377  0.55768  1.0000
  O   O20       1.0  0.43538  0.70623  0.44232  1.0000
