data_image0
_chemical_formula_structural       Mn2Mo6H28C32N12O20
_chemical_formula_sum              "Mn2 Mo6 H28 C32 N12 O20"
_cell_length_a       7.93432
_cell_length_b       11.6281
_cell_length_c       13.115
_cell_angle_alpha    63.0668
_cell_angle_beta     84.973
_cell_angle_gamma    79.4783

_space_group_name_H-M_alt    "P 1"
_space_group_IT_number       1

loop_
  _space_group_symop_operation_xyz
  'x, y, z'

loop_
  _atom_site_type_symbol
  _atom_site_label
  _atom_site_symmetry_multiplicity
  _atom_site_fract_x
  _atom_site_fract_y
  _atom_site_fract_z
  _atom_site_occupancy
  Mn  Mn1       1.0  0.90459  0.69064  0.30122  1.0000
  Mn  Mn2       1.0  0.39469  0.99255  0.70342  1.0000
  Mo  Mo1       1.0  0.18115  0.93149  0.22951  1.0000
  Mo  Mo2       1.0  0.67994  0.16726  0.77479  1.0000
  Mo  Mo3       1.0  0.41651  0.18623  0.98774  1.0000
  Mo  Mo4       1.0  0.91684  0.16988  0.02323  1.0000
  Mo  Mo5       1.0  0.54307  0.86991  0.10041  1.0000
  Mo  Mo6       1.0  0.03259  0.97154  0.91043  1.0000
  H   H1        1.0  0.39898  0.58383  0.05998  1.0000
  H   H2        1.0  0.90501  0.62285  0.94814  1.0000
  H   H3        1.0  0.15950  0.43128  0.07493  1.0000
  H   H4        1.0  0.66074  0.49291  0.92815  1.0000
  H   H5        1.0  0.85507  0.38190  0.11779  1.0000
  H   H6        1.0  0.36789  0.49058  0.88350  1.0000
  H   H7        1.0  0.57314  0.31357  0.19777  1.0000
  H   H8        1.0  0.08537  0.49947  0.80916  1.0000
  H   H9        1.0  0.42906  0.37958  0.34627  1.0000
  H   H10       1.0  0.93420  0.71660  0.66419  1.0000
  H   H11       1.0  0.56295  0.52804  0.39576  1.0000
  H   H12       1.0  0.06545  0.91697  0.61301  1.0000
  H   H13       1.0  0.27414  0.54489  0.36917  1.0000
  H   H14       1.0  0.77062  0.92728  0.61892  1.0000
  H   H15       1.0  0.42273  0.37379  0.54951  1.0000
  H   H16       1.0  0.91658  0.92684  0.44017  1.0000
  H   H17       1.0  0.25229  0.29495  0.73265  1.0000
  H   H18       1.0  0.74116  0.02581  0.26070  1.0000
  H   H19       1.0  0.94638  0.39665  0.72943  1.0000
  H   H20       1.0  0.43706  0.12349  0.26464  1.0000
  H   H21       1.0  0.62000  0.51494  0.69673  1.0000
  H   H22       1.0  0.12472  0.20368  0.29123  1.0000
  H   H23       1.0  0.37013  0.70918  0.55481  1.0000
  H   H24       1.0  0.85666  0.25963  0.41987  1.0000
  H   H25       1.0  0.27766  0.70898  0.17497  1.0000
  H   H26       1.0  0.78816  0.86651  0.83713  1.0000
  H   H27       1.0  0.50886  0.81147  0.36132  1.0000
  H   H28       1.0  0.97822  0.18731  0.61408  1.0000
  C   C1        1.0  0.27512  0.57445  0.10221  1.0000
  C   C2        1.0  0.78329  0.65971  0.90417  1.0000
  C   C3        1.0  0.15117  0.50075  0.10979  1.0000
  C   C4        1.0  0.65695  0.59748  0.89346  1.0000
  C   C5        1.0  0.01784  0.53387  0.17459  1.0000
  C   C6        1.0  0.52869  0.69998  0.82692  1.0000
  C   C7        1.0  0.85572  0.49007  0.21514  1.0000
  C   C8        1.0  0.36455  0.69869  0.78657  1.0000
  C   C9        1.0  0.78740  0.41042  0.18083  1.0000
  C   C10       1.0  0.29849  0.58275  0.82156  1.0000
  C   C11       1.0  0.63142  0.37161  0.22646  1.0000
  C   C12       1.0  0.14164  0.58813  0.77893  1.0000
  C   C13       1.0  0.55011  0.41035  0.30754  1.0000
  C   C14       1.0  0.05673  0.70879  0.70016  1.0000
  C   C15       1.0  0.62380  0.49208  0.33573  1.0000
  C   C16       1.0  0.12917  0.82017  0.67143  1.0000
  C   C17       1.0  0.20672  0.50843  0.45062  1.0000
  C   C18       1.0  0.70232  0.96929  0.53822  1.0000
  C   C19       1.0  0.28793  0.41426  0.55094  1.0000
  C   C20       1.0  0.78216  0.96929  0.43952  1.0000
  C   C21       1.0  0.19400  0.37076  0.65295  1.0000
  C   C22       1.0  0.68516  0.02453  0.33992  1.0000
  C   C23       1.0  0.02315  0.42686  0.65137  1.0000
  C   C24       1.0  0.51412  0.07928  0.34185  1.0000
  C   C25       1.0  0.94916  0.52206  0.54812  1.0000
  C   C26       1.0  0.44290  0.07559  0.44453  1.0000
  C   C27       1.0  0.77537  0.59157  0.53519  1.0000
  C   C28       1.0  0.26498  0.12954  0.45668  1.0000
  C   C29       1.0  0.63094  0.58323  0.60745  1.0000
  C   C30       1.0  0.12668  0.18783  0.37923  1.0000
  C   C31       1.0  0.50272  0.67865  0.53817  1.0000
  C   C32       1.0  0.98940  0.21624  0.44183  1.0000
  N   N1        1.0  0.21688  0.64451  0.16043  1.0000
  N   N2        1.0  0.72989  0.78955  0.84615  1.0000
  N   N3        1.0  0.05999  0.62245  0.20497  1.0000
  N   N4        1.0  0.57574  0.81679  0.79868  1.0000
  N   N5        1.0  0.77277  0.53229  0.29001  1.0000
  N   N6        1.0  0.27894  0.81645  0.71393  1.0000
  N   N7        1.0  0.03929  0.55971  0.44718  1.0000
  N   N8        1.0  0.53697  0.01974  0.54141  1.0000
  N   N9        1.0  0.73589  0.68747  0.42785  1.0000
  N   N10       1.0  0.21401  0.12361  0.56008  1.0000
  N   N11       1.0  0.57025  0.73774  0.43186  1.0000
  N   N12       1.0  0.04719  0.17608  0.54869  1.0000
  O   O1        1.0  0.39514  0.29916  0.04074  1.0000
  O   O2        1.0  0.90832  0.33606  0.97039  1.0000
  O   O3        1.0  0.22102  0.21151  0.92633  1.0000
  O   O4        1.0  0.71407  0.14048  0.07889  1.0000
  O   O5        1.0  0.38510  0.02809  0.12594  1.0000
  O   O6        1.0  0.88787  0.15202  0.88551  1.0000
  O   O7        1.0  0.03930  0.10255  0.16330  1.0000
  O   O8        1.0  0.55084  0.26477  0.84898  1.0000
  O   O9        1.0  0.24265  0.92237  0.35530  1.0000
  O   O10       1.0  0.75211  0.28552  0.65104  1.0000
  O   O11       1.0  0.07574  0.98298  0.04229  1.0000
  O   O12       1.0  0.57696  0.01945  0.96932  1.0000
  O   O13       1.0  0.02640  0.82011  0.27936  1.0000
  O   O14       1.0  0.51426  0.12301  0.72594  1.0000
  O   O15       1.0  0.54040  0.76080  0.04671  1.0000
  O   O16       1.0  0.01498  0.80967  0.96281  1.0000
  O   O17       1.0  0.35841  0.80036  0.20981  1.0000
  O   O18       1.0  0.84894  0.01726  0.79621  1.0000
  O   O19       1.0  0.72695  0.81710  0.18724  1.0000
  O   O20       1.0  0.21843  0.99833  0.82584  1.0000
