data_image0
_chemical_formula_structural       Ni2Mo6H28C32N12O20
_chemical_formula_sum              "Ni2 Mo6 H28 C32 N12 O20"
_cell_length_a       7.9322
_cell_length_b       11.5498
_cell_length_c       12.9683
_cell_angle_alpha    63.5573
_cell_angle_beta     85.3651
_cell_angle_gamma    79.5361

_space_group_name_H-M_alt    "P 1"
_space_group_IT_number       1

loop_
  _space_group_symop_operation_xyz
  'x, y, z'

loop_
  _atom_site_type_symbol
  _atom_site_label
  _atom_site_symmetry_multiplicity
  _atom_site_fract_x
  _atom_site_fract_y
  _atom_site_fract_z
  _atom_site_occupancy
  Ni  Ni1       1.0  0.99076  0.75570  0.30388  1.0000
  Ni  Ni2       1.0  0.49090  0.05955  0.69613  1.0000
  Mo  Mo1       1.0  0.27402  0.01018  0.23047  1.0000
  Mo  Mo2       1.0  0.77417  0.24073  0.76944  1.0000
  Mo  Mo3       1.0  0.51886  0.26678  0.98333  1.0000
  Mo  Mo4       1.0  0.01891  0.25036  0.01649  1.0000
  Mo  Mo5       1.0  0.63946  0.95258  0.09642  1.0000
  Mo  Mo6       1.0  0.13958  0.04904  0.90355  1.0000
  H   H1        1.0  0.36164  0.61073  0.37083  1.0000
  H   H2        1.0  0.86198  0.98199  0.62897  1.0000
  H   H3        1.0  0.51222  0.43951  0.55341  1.0000
  H   H4        1.0  0.01253  0.99372  0.44624  1.0000
  H   H5        1.0  0.34271  0.36682  0.73751  1.0000
  H   H6        1.0  0.84273  0.10495  0.26224  1.0000
  H   H7        1.0  0.03904  0.47156  0.73428  1.0000
  H   H8        1.0  0.53887  0.20593  0.26565  1.0000
  H   H9        1.0  0.71826  0.58526  0.70325  1.0000
  H   H10       1.0  0.21804  0.28800  0.29684  1.0000
  H   H11       1.0  0.45938  0.77441  0.56438  1.0000
  H   H12       1.0  0.95920  0.33844  0.43565  1.0000
  H   H13       1.0  0.66641  0.60431  0.39900  1.0000
  H   H14       1.0  0.16669  0.00327  0.60109  1.0000
  H   H15       1.0  0.53259  0.45438  0.34968  1.0000
  H   H16       1.0  0.03286  0.80398  0.65040  1.0000
  H   H17       1.0  0.67205  0.38950  0.19764  1.0000
  H   H18       1.0  0.17248  0.58708  0.80238  1.0000
  H   H19       1.0  0.95164  0.45998  0.11514  1.0000
  H   H20       1.0  0.45188  0.57505  0.88498  1.0000
  H   H21       1.0  0.25752  0.50297  0.07457  1.0000
  H   H22       1.0  0.75762  0.57758  0.92587  1.0000
  H   H23       1.0  0.49925  0.65517  0.05894  1.0000
  H   H24       1.0  0.99939  0.71429  0.94123  1.0000
  H   H25       1.0  0.59025  0.88051  0.36781  1.0000
  H   H26       1.0  0.09016  0.24824  0.63216  1.0000
  H   H27       1.0  0.37558  0.78744  0.16946  1.0000
  H   H28       1.0  0.87578  0.95703  0.83044  1.0000
  C   C1        1.0  0.29613  0.57640  0.45350  1.0000
  C   C2        1.0  0.79635  0.03021  0.54634  1.0000
  C   C3        1.0  0.37834  0.48238  0.55451  1.0000
  C   C4        1.0  0.87853  0.03737  0.44526  1.0000
  C   C5        1.0  0.28482  0.44245  0.65695  1.0000
  C   C6        1.0  0.78485  0.09976  0.34287  1.0000
  C   C7        1.0  0.11468  0.50063  0.65547  1.0000
  C   C8        1.0  0.61459  0.15617  0.34443  1.0000
  C   C9        1.0  0.04107  0.59567  0.55094  1.0000
  C   C10       1.0  0.54099  0.14651  0.44903  1.0000
  C   C11       1.0  0.86598  0.66550  0.53783  1.0000
  C   C12       1.0  0.36584  0.20309  0.46222  1.0000
  C   C13       1.0  0.72471  0.65411  0.61333  1.0000
  C   C14       1.0  0.22451  0.26708  0.38672  1.0000
  C   C15       1.0  0.59217  0.74708  0.54567  1.0000
  C   C16       1.0  0.09200  0.29243  0.45438  1.0000
  C   C17       1.0  0.72635  0.56904  0.33754  1.0000
  C   C18       1.0  0.22654  0.90654  0.66262  1.0000
  C   C19       1.0  0.65224  0.48623  0.30948  1.0000
  C   C20       1.0  0.15240  0.79570  0.69067  1.0000
  C   C21       1.0  0.73105  0.44772  0.22686  1.0000
  C   C22       1.0  0.23127  0.67459  0.77326  1.0000
  C   C23       1.0  0.88554  0.48776  0.17976  1.0000
  C   C24       1.0  0.38576  0.66749  0.82039  1.0000
  C   C25       1.0  0.95464  0.56798  0.21433  1.0000
  C   C26       1.0  0.45484  0.78224  0.78587  1.0000
  C   C27       1.0  0.11709  0.61110  0.17222  1.0000
  C   C28       1.0  0.61727  0.78332  0.82796  1.0000
  C   C29       1.0  0.25012  0.57412  0.10858  1.0000
  C   C30       1.0  0.75027  0.68276  0.89167  1.0000
  C   C31       1.0  0.37493  0.64791  0.10032  1.0000
  C   C32       1.0  0.87508  0.74834  0.89983  1.0000
  N   N1        1.0  0.13098  0.63020  0.45105  1.0000
  N   N2        1.0  0.63108  0.08128  0.54888  1.0000
  N   N3        1.0  0.82127  0.76045  0.43111  1.0000
  N   N4        1.0  0.32120  0.19143  0.56891  1.0000
  N   N5        1.0  0.65557  0.80757  0.43789  1.0000
  N   N6        1.0  0.15546  0.24528  0.56213  1.0000
  N   N7        1.0  0.87397  0.61065  0.29040  1.0000
  N   N8        1.0  0.37419  0.90099  0.70974  1.0000
  N   N9        1.0  0.15935  0.70125  0.20048  1.0000
  N   N10       1.0  0.65952  0.90177  0.79956  1.0000
  N   N11       1.0  0.31589  0.72153  0.15665  1.0000
  N   N12       1.0  0.81605  0.87828  0.84339  1.0000
  O   O1        1.0  0.45298  0.88435  0.21018  1.0000
  O   O2        1.0  0.95321  0.09464  0.78974  1.0000
  O   O3        1.0  0.11735  0.90890  0.28023  1.0000
  O   O4        1.0  0.61746  0.18916  0.71975  1.0000
  O   O5        1.0  0.14846  0.18442  0.15822  1.0000
  O   O6        1.0  0.64847  0.34269  0.84165  1.0000
  O   O7        1.0  0.17912  0.06050  0.03779  1.0000
  O   O8        1.0  0.67926  0.09827  0.96224  1.0000
  O   O9        1.0  0.50531  0.38219  0.03492  1.0000
  O   O10       1.0  0.00558  0.41733  0.96503  1.0000
  O   O11       1.0  0.32006  0.29368  0.92368  1.0000
  O   O12       1.0  0.82010  0.21769  0.07612  1.0000
  O   O13       1.0  0.62603  0.83966  0.04676  1.0000
  O   O14       1.0  0.12639  0.88643  0.95314  1.0000
  O   O15       1.0  0.49103  0.11088  0.12092  1.0000
  O   O16       1.0  0.99105  0.23198  0.87894  1.0000
  O   O17       1.0  0.82322  0.89649  0.18186  1.0000
  O   O18       1.0  0.32335  0.07834  0.81817  1.0000
  O   O19       1.0  0.34212  0.00610  0.35473  1.0000
  O   O20       1.0  0.84213  0.36087  0.64511  1.0000
