data_image0
_chemical_formula_structural       Fe2P2H6C2O14
_chemical_formula_sum              "Fe2 P2 H6 C2 O14"
_cell_length_a       5.03904
_cell_length_b       7.60084
_cell_length_c       7.60808
_cell_angle_alpha    95.8522
_cell_angle_beta     101.577
_cell_angle_gamma    106.51

_space_group_name_H-M_alt    "P 1"
_space_group_IT_number       1

loop_
  _space_group_symop_operation_xyz
  'x, y, z'

loop_
  _atom_site_type_symbol
  _atom_site_label
  _atom_site_symmetry_multiplicity
  _atom_site_fract_x
  _atom_site_fract_y
  _atom_site_fract_z
  _atom_site_occupancy
  Fe  Fe1       1.0  0.03803  0.25891  0.29971  1.0000
  Fe  Fe2       1.0  0.96197  0.74109  0.70028  1.0000
  P   P1        1.0  0.64478  0.54971  0.28449  1.0000
  P   P2        1.0  0.35521  0.45029  0.71550  1.0000
  H   H1        1.0  0.74664  0.92242  0.39369  1.0000
  H   H2        1.0  0.25337  0.07759  0.60632  1.0000
  H   H3        1.0  0.54646  0.04485  0.32487  1.0000
  H   H4        1.0  0.45354  0.95515  0.67514  1.0000
  H   H5        1.0  0.73604  0.60748  0.01405  1.0000
  H   H6        1.0  0.26395  0.39252  0.98594  1.0000
  C   C1        1.0  0.12551  0.97359  0.05295  1.0000
  C   C2        1.0  0.87449  0.02641  0.94706  1.0000
  O   O1        1.0  0.20396  0.85202  0.97160  1.0000
  O   O2        1.0  0.79606  0.14796  0.02839  1.0000
  O   O3        1.0  0.23287  0.05930  0.21588  1.0000
  O   O4        1.0  0.76713  0.94069  0.78412  1.0000
  O   O5        1.0  0.74647  0.05097  0.38205  1.0000
  O   O6        1.0  0.25354  0.94904  0.61796  1.0000
  O   O7        1.0  0.80274  0.40809  0.32576  1.0000
  O   O8        1.0  0.19727  0.59192  0.67424  1.0000
  O   O9        1.0  0.69784  0.69442  0.45570  1.0000
  O   O10       1.0  0.30216  0.30559  0.54430  1.0000
  O   O11       1.0  0.76341  0.66862  0.14393  1.0000
  O   O12       1.0  0.23657  0.33139  0.85606  1.0000
  O   O13       1.0  0.32219  0.44871  0.20288  1.0000
  O   O14       1.0  0.67780  0.55129  0.79711  1.0000
