data_image0
_chemical_formula_structural       Zn2H56C60S4N20
_chemical_formula_sum              "Zn2 H56 C60 S4 N20"
_cell_length_a       9.52467
_cell_length_b       9.60308
_cell_length_c       16.6162
_cell_angle_alpha    90.0005
_cell_angle_beta     90
_cell_angle_gamma    97.8745

_space_group_name_H-M_alt    "P 1"
_space_group_IT_number       1

loop_
  _space_group_symop_operation_xyz
  'x, y, z'

loop_
  _atom_site_type_symbol
  _atom_site_label
  _atom_site_symmetry_multiplicity
  _atom_site_fract_x
  _atom_site_fract_y
  _atom_site_fract_z
  _atom_site_occupancy
  Zn  Zn1       1.0  0.50000  0.99999  0.00000  1.0000
  Zn  Zn2       1.0  1.00000  0.50000  0.50000  1.0000
  H   H1        1.0  0.41706  0.01620  0.82058  1.0000
  H   H2        1.0  0.08294  0.48379  0.32058  1.0000
  H   H3        1.0  0.58294  0.98380  0.17942  1.0000
  H   H4        1.0  0.91706  0.51621  0.67942  1.0000
  H   H5        1.0  0.26176  0.88157  0.71657  1.0000
  H   H6        1.0  0.23825  0.61842  0.21657  1.0000
  H   H7        1.0  0.73824  0.11843  0.28344  1.0000
  H   H8        1.0  0.76175  0.38157  0.78343  1.0000
  H   H9        1.0  0.12829  0.64697  0.75413  1.0000
  H   H10       1.0  0.37171  0.85302  0.25413  1.0000
  H   H11       1.0  0.87171  0.35303  0.24587  1.0000
  H   H12       1.0  0.62829  0.14698  0.74587  1.0000
  H   H13       1.0  0.32879  0.69729  0.98661  1.0000
  H   H14       1.0  0.17120  0.80271  0.48661  1.0000
  H   H15       1.0  0.67121  0.30271  0.01339  1.0000
  H   H16       1.0  0.82879  0.19730  0.51339  1.0000
  H   H17       1.0  0.10992  0.36107  0.99392  1.0000
  H   H18       1.0  0.39008  0.13893  0.49392  1.0000
  H   H19       1.0  0.89008  0.63893  0.00609  1.0000
  H   H20       1.0  0.60993  0.86107  0.50609  1.0000
  H   H21       1.0  0.15115  0.53730  0.03027  1.0000
  H   H22       1.0  0.34885  0.96270  0.53027  1.0000
  H   H23       1.0  0.84885  0.46271  0.96974  1.0000
  H   H24       1.0  0.65115  0.03730  0.46973  1.0000
  H   H25       1.0  0.28642  0.45137  0.98789  1.0000
  H   H26       1.0  0.21358  0.04863  0.48789  1.0000
  H   H27       1.0  0.71358  0.54864  0.01211  1.0000
  H   H28       1.0  0.78642  0.95137  0.51211  1.0000
  H   H29       1.0  0.34473  0.24187  0.06234  1.0000
  H   H30       1.0  0.15527  0.25813  0.56234  1.0000
  H   H31       1.0  0.65527  0.75813  0.93766  1.0000
  H   H32       1.0  0.84473  0.74187  0.43766  1.0000
  H   H33       1.0  0.12128  0.27903  0.13469  1.0000
  H   H34       1.0  0.37872  0.22098  0.63469  1.0000
  H   H35       1.0  0.87872  0.72097  0.86531  1.0000
  H   H36       1.0  0.62128  0.77902  0.36531  1.0000
  H   H37       1.0  0.95344  0.06976  0.17730  1.0000
  H   H38       1.0  0.54655  0.43025  0.67731  1.0000
  H   H39       1.0  0.04656  0.93024  0.82269  1.0000
  H   H40       1.0  0.45345  0.56976  0.32269  1.0000
  H   H41       1.0  0.24893  0.80974  0.08272  1.0000
  H   H42       1.0  0.25107  0.69026  0.58272  1.0000
  H   H43       1.0  0.75107  0.19026  0.91728  1.0000
  H   H44       1.0  0.74893  0.30974  0.41728  1.0000
  H   H45       1.0  0.16357  0.29904  0.76176  1.0000
  H   H46       1.0  0.33643  0.20096  0.26176  1.0000
  H   H47       1.0  0.83643  0.70096  0.23824  1.0000
  H   H48       1.0  0.66357  0.79904  0.73824  1.0000
  H   H49       1.0  0.12224  0.11178  0.75212  1.0000
  H   H50       1.0  0.37776  0.38821  0.25213  1.0000
  H   H51       1.0  0.87777  0.88822  0.24787  1.0000
  H   H52       1.0  0.62223  0.61178  0.74787  1.0000
  H   H53       1.0  0.23035  0.18762  0.83251  1.0000
  H   H54       1.0  0.26965  0.31238  0.33251  1.0000
  H   H55       1.0  0.76965  0.81238  0.16749  1.0000
  H   H56       1.0  0.73034  0.68762  0.66749  1.0000
  C   C1        1.0  0.35925  0.91276  0.83348  1.0000
  C   C2        1.0  0.14075  0.58723  0.33348  1.0000
  C   C3        1.0  0.64075  0.08724  0.16652  1.0000
  C   C4        1.0  0.85925  0.41277  0.66652  1.0000
  C   C5        1.0  0.27223  0.83772  0.77629  1.0000
  C   C6        1.0  0.22778  0.66228  0.27629  1.0000
  C   C7        1.0  0.72777  0.16228  0.22371  1.0000
  C   C8        1.0  0.77222  0.33772  0.72371  1.0000
  C   C9        1.0  0.19820  0.70784  0.79706  1.0000
  C   C10       1.0  0.30181  0.79215  0.29706  1.0000
  C   C11       1.0  0.80180  0.29216  0.20295  1.0000
  C   C12       1.0  0.69819  0.20785  0.70294  1.0000
  C   C13       1.0  0.21490  0.65405  0.87448  1.0000
  C   C14       1.0  0.28511  0.84595  0.37448  1.0000
  C   C15       1.0  0.78510  0.34595  0.12552  1.0000
  C   C16       1.0  0.71490  0.15406  0.62552  1.0000
  C   C17       1.0  0.30722  0.73590  0.92701  1.0000
  C   C18       1.0  0.19278  0.76410  0.42700  1.0000
  C   C19       1.0  0.69278  0.26410  0.07299  1.0000
  C   C20       1.0  0.80722  0.23591  0.57299  1.0000
  C   C21       1.0  0.14241  0.51653  0.90129  1.0000
  C   C22       1.0  0.35760  0.98347  0.40129  1.0000
  C   C23       1.0  0.85759  0.48347  0.09871  1.0000
  C   C24       1.0  0.64241  0.01653  0.59871  1.0000
  C   C25       1.0  0.17348  0.46308  0.98305  1.0000
  C   C26       1.0  0.32652  0.03692  0.48305  1.0000
  C   C27       1.0  0.82652  0.53692  0.01695  1.0000
  C   C28       1.0  0.67348  0.96308  0.51695  1.0000
  C   C29       1.0  0.73045  0.84648  0.91666  1.0000
  C   C30       1.0  0.76956  0.65352  0.41667  1.0000
  C   C31       1.0  0.26955  0.15352  0.08333  1.0000
  C   C32       1.0  0.23044  0.34648  0.58333  1.0000
  C   C33       1.0  0.85499  0.82694  0.87714  1.0000
  C   C34       1.0  0.64501  0.67305  0.37714  1.0000
  C   C35       1.0  0.14501  0.17306  0.12286  1.0000
  C   C36       1.0  0.35499  0.32695  0.62286  1.0000
  C   C37       1.0  0.94831  0.94416  0.85309  1.0000
  C   C38       1.0  0.55169  0.55584  0.35309  1.0000
  C   C39       1.0  0.05169  0.05584  0.14691  1.0000
  C   C40       1.0  0.44831  0.44416  0.64691  1.0000
  C   C41       1.0  0.91408  0.07911  0.86816  1.0000
  C   C42       1.0  0.58592  0.42088  0.36816  1.0000
  C   C43       1.0  0.08592  0.92089  0.13184  1.0000
  C   C44       1.0  0.41408  0.57912  0.63184  1.0000
  C   C45       1.0  0.21576  0.91214  0.09339  1.0000
  C   C46       1.0  0.28424  0.58786  0.59339  1.0000
  C   C47       1.0  0.78425  0.08786  0.90661  1.0000
  C   C48       1.0  0.71576  0.41214  0.40661  1.0000
  C   C49       1.0  0.00949  0.20733  0.84570  1.0000
  C   C50       1.0  0.49051  0.29266  0.34570  1.0000
  C   C51       1.0  0.99051  0.79267  0.15430  1.0000
  C   C52       1.0  0.50949  0.70734  0.65430  1.0000
  C   C53       1.0  0.13781  0.19977  0.79470  1.0000
  C   C54       1.0  0.36219  0.30022  0.29470  1.0000
  C   C55       1.0  0.86219  0.80023  0.20530  1.0000
  C   C56       1.0  0.63781  0.69977  0.70530  1.0000
  C   C57       1.0  0.49033  0.29466  0.90451  1.0000
  C   C58       1.0  0.00966  0.20532  0.40450  1.0000
  C   C59       1.0  0.50966  0.70532  0.09550  1.0000
  C   C60       1.0  0.99034  0.79468  0.59550  1.0000
  S   S1        1.0  0.51111  0.45286  0.86915  1.0000
  S   S2        1.0  0.98889  0.04711  0.36914  1.0000
  S   S3        1.0  0.48889  0.54711  0.13086  1.0000
  S   S4        1.0  0.01112  0.95289  0.63086  1.0000
  N   N1        1.0  0.37573  0.86310  0.90800  1.0000
  N   N2        1.0  0.12427  0.63690  0.40800  1.0000
  N   N3        1.0  0.62427  0.13690  0.09200  1.0000
  N   N4        1.0  0.87573  0.36311  0.59200  1.0000
  N   N5        1.0  0.05537  0.44690  0.85099  1.0000
  N   N6        1.0  0.44463  0.05309  0.35099  1.0000
  N   N7        1.0  0.94463  0.55309  0.14902  1.0000
  N   N8        1.0  0.55537  0.94691  0.64902  1.0000
  N   N9        1.0  0.97857  0.32551  0.87384  1.0000
  N   N10       1.0  0.52144  0.17448  0.37384  1.0000
  N   N11       1.0  0.02143  0.67448  0.12616  1.0000
  N   N12       1.0  0.47857  0.82552  0.62616  1.0000
  N   N13       1.0  0.69574  0.97569  0.93111  1.0000
  N   N14       1.0  0.80426  0.52431  0.43111  1.0000
  N   N15       1.0  0.30426  0.02431  0.06889  1.0000
  N   N16       1.0  0.19574  0.47569  0.56889  1.0000
  N   N17       1.0  0.47406  0.17809  0.93076  1.0000
  N   N18       1.0  0.02593  0.32189  0.43075  1.0000
  N   N19       1.0  0.52594  0.82188  0.06925  1.0000
  N   N20       1.0  0.97406  0.67811  0.56925  1.0000
