data_image0
_chemical_formula_structural       Zn2H56C56N28
_chemical_formula_sum              "Zn2 H56 C56 N28"
_cell_length_a       8.64514
_cell_length_b       12.6394
_cell_length_c       13.0219
_cell_angle_alpha    90
_cell_angle_beta     89.9999
_cell_angle_gamma    106.401

_space_group_name_H-M_alt    "P 1"
_space_group_IT_number       1

loop_
  _space_group_symop_operation_xyz
  'x, y, z'

loop_
  _atom_site_type_symbol
  _atom_site_label
  _atom_site_symmetry_multiplicity
  _atom_site_fract_x
  _atom_site_fract_y
  _atom_site_fract_z
  _atom_site_occupancy
  Zn  Zn1       1.0  0.00000  1.00000  0.50000  1.0000
  Zn  Zn2       1.0  0.50000  1.00000  1.00000  1.0000
  H   H1        1.0  0.94605  0.22993  0.43237  1.0000
  H   H2        1.0  0.55395  0.77007  0.93238  1.0000
  H   H3        1.0  0.05395  0.77007  0.56762  1.0000
  H   H4        1.0  0.44605  0.22993  0.06763  1.0000
  H   H5        1.0  0.38958  0.44632  0.31985  1.0000
  H   H6        1.0  0.11042  0.55368  0.81985  1.0000
  H   H7        1.0  0.61042  0.55368  0.68015  1.0000
  H   H8        1.0  0.88958  0.44632  0.18015  1.0000
  H   H9        1.0  0.51349  0.28780  0.34101  1.0000
  H   H10       1.0  0.98651  0.71220  0.84101  1.0000
  H   H11       1.0  0.48651  0.71220  0.65899  1.0000
  H   H12       1.0  0.01349  0.28780  0.15899  1.0000
  H   H13       1.0  0.34341  0.11026  0.41149  1.0000
  H   H14       1.0  0.15660  0.88974  0.91149  1.0000
  H   H15       1.0  0.65660  0.88974  0.58852  1.0000
  H   H16       1.0  0.84341  0.11026  0.08851  1.0000
  H   H17       1.0  0.87007  0.49278  0.40005  1.0000
  H   H18       1.0  0.62993  0.50722  0.90005  1.0000
  H   H19       1.0  0.12993  0.50722  0.59995  1.0000
  H   H20       1.0  0.37007  0.49278  0.09995  1.0000
  H   H21       1.0  0.89935  0.38872  0.48522  1.0000
  H   H22       1.0  0.60065  0.61128  0.98522  1.0000
  H   H23       1.0  0.10065  0.61128  0.51478  1.0000
  H   H24       1.0  0.39934  0.38872  0.01478  1.0000
  H   H25       1.0  0.82399  0.35163  0.36073  1.0000
  H   H26       1.0  0.67601  0.64837  0.86073  1.0000
  H   H27       1.0  0.17601  0.64837  0.63927  1.0000
  H   H28       1.0  0.32398  0.35163  0.13927  1.0000
  H   H29       1.0  0.90285  0.03314  0.27927  1.0000
  H   H30       1.0  0.59715  0.96687  0.77927  1.0000
  H   H31       1.0  0.09715  0.96686  0.72073  1.0000
  H   H32       1.0  0.40284  0.03313  0.22073  1.0000
  H   H33       1.0  0.89185  0.94768  0.10570  1.0000
  H   H34       1.0  0.60814  0.05231  0.60570  1.0000
  H   H35       1.0  0.10814  0.05231  0.89430  1.0000
  H   H36       1.0  0.39186  0.94769  0.39430  1.0000
  H   H37       1.0  0.98200  0.77796  0.08498  1.0000
  H   H38       1.0  0.51800  0.22204  0.58498  1.0000
  H   H39       1.0  0.01800  0.22203  0.91502  1.0000
  H   H40       1.0  0.48200  0.77797  0.41502  1.0000
  H   H41       1.0  0.08968  0.79612  0.40892  1.0000
  H   H42       1.0  0.41032  0.20388  0.90892  1.0000
  H   H43       1.0  0.91032  0.20388  0.59108  1.0000
  H   H44       1.0  0.58969  0.79612  0.09108  1.0000
  H   H45       1.0  0.20923  0.57572  0.14880  1.0000
  H   H46       1.0  0.29077  0.42428  0.64881  1.0000
  H   H47       1.0  0.79076  0.42428  0.85119  1.0000
  H   H48       1.0  0.70924  0.57572  0.35119  1.0000
  H   H49       1.0  0.21199  0.70656  0.09423  1.0000
  H   H50       1.0  0.28801  0.29344  0.59423  1.0000
  H   H51       1.0  0.78801  0.29343  0.90577  1.0000
  H   H52       1.0  0.71199  0.70656  0.40577  1.0000
  H   H53       1.0  0.03302  0.59595  0.09111  1.0000
  H   H54       1.0  0.46699  0.40405  0.59111  1.0000
  H   H55       1.0  0.96698  0.40405  0.90888  1.0000
  H   H56       1.0  0.53302  0.59595  0.40889  1.0000
  C   C1        1.0  0.07269  0.24644  0.41282  1.0000
  C   C2        1.0  0.42732  0.75356  0.91282  1.0000
  C   C3        1.0  0.92731  0.75355  0.58718  1.0000
  C   C4        1.0  0.57269  0.24645  0.08718  1.0000
  C   C5        1.0  0.15798  0.35080  0.37592  1.0000
  C   C6        1.0  0.34202  0.64920  0.87592  1.0000
  C   C7        1.0  0.84202  0.64920  0.62408  1.0000
  C   C8        1.0  0.65798  0.35080  0.12408  1.0000
  C   C9        1.0  0.32038  0.36646  0.34944  1.0000
  C   C10       1.0  0.17962  0.63354  0.84945  1.0000
  C   C11       1.0  0.67962  0.63354  0.65056  1.0000
  C   C12       1.0  0.82038  0.36647  0.15056  1.0000
  C   C13       1.0  0.38835  0.27994  0.36075  1.0000
  C   C14       1.0  0.11165  0.72006  0.86076  1.0000
  C   C15       1.0  0.61165  0.72006  0.63925  1.0000
  C   C16       1.0  0.88835  0.27994  0.13925  1.0000
  C   C17       1.0  0.29358  0.17931  0.39908  1.0000
  C   C18       1.0  0.20643  0.82070  0.89908  1.0000
  C   C19       1.0  0.70643  0.82070  0.60093  1.0000
  C   C20       1.0  0.79357  0.17931  0.10093  1.0000
  C   C21       1.0  0.07729  0.43872  0.36667  1.0000
  C   C22       1.0  0.42272  0.56128  0.86667  1.0000
  C   C23       1.0  0.92271  0.56128  0.63333  1.0000
  C   C24       1.0  0.57728  0.43872  0.13333  1.0000
  C   C25       1.0  0.90792  0.41738  0.40512  1.0000
  C   C26       1.0  0.59208  0.58262  0.90513  1.0000
  C   C27       1.0  0.09208  0.58262  0.59487  1.0000
  C   C28       1.0  0.40792  0.41738  0.09487  1.0000
  C   C29       1.0  0.94127  0.95906  0.26771  1.0000
  C   C30       1.0  0.55874  0.04095  0.76771  1.0000
  C   C31       1.0  0.05874  0.04094  0.73229  1.0000
  C   C32       1.0  0.44126  0.95905  0.23229  1.0000
  C   C33       1.0  0.93551  0.91093  0.17125  1.0000
  C   C34       1.0  0.56450  0.08907  0.67126  1.0000
  C   C35       1.0  0.06449  0.08906  0.82874  1.0000
  C   C36       1.0  0.43551  0.91094  0.32875  1.0000
  C   C37       1.0  0.98591  0.81629  0.16024  1.0000
  C   C38       1.0  0.51409  0.18371  0.66024  1.0000
  C   C39       1.0  0.01409  0.18371  0.83976  1.0000
  C   C40       1.0  0.48591  0.81629  0.33976  1.0000
  C   C41       1.0  0.04017  0.77116  0.24693  1.0000
  C   C42       1.0  0.45982  0.22883  0.74693  1.0000
  C   C43       1.0  0.95982  0.22883  0.75307  1.0000
  C   C44       1.0  0.54018  0.77117  0.25307  1.0000
  C   C45       1.0  0.04370  0.82653  0.34062  1.0000
  C   C46       1.0  0.45631  0.17347  0.84062  1.0000
  C   C47       1.0  0.95630  0.17347  0.65938  1.0000
  C   C48       1.0  0.54370  0.82653  0.15938  1.0000
  C   C49       1.0  0.09392  0.67074  0.24031  1.0000
  C   C50       1.0  0.40607  0.32926  0.74031  1.0000
  C   C51       1.0  0.90607  0.32926  0.75969  1.0000
  C   C52       1.0  0.59393  0.67074  0.25969  1.0000
  C   C53       1.0  0.14001  0.63526  0.13771  1.0000
  C   C54       1.0  0.35999  0.36474  0.63771  1.0000
  C   C55       1.0  0.85999  0.36474  0.86229  1.0000
  C   C56       1.0  0.64001  0.63526  0.36229  1.0000
  N   N1        1.0  0.13810  0.16269  0.42542  1.0000
  N   N2        1.0  0.36190  0.83731  0.92542  1.0000
  N   N3        1.0  0.86190  0.83731  0.57458  1.0000
  N   N4        1.0  0.63810  0.16269  0.07459  1.0000
  N   N5        1.0  0.16020  0.53080  0.32484  1.0000
  N   N6        1.0  0.33980  0.46920  0.82484  1.0000
  N   N7        1.0  0.83980  0.46920  0.67516  1.0000
  N   N8        1.0  0.66019  0.53080  0.17516  1.0000
  N   N9        1.0  0.09752  0.61759  0.32530  1.0000
  N   N10       1.0  0.40248  0.38241  0.82530  1.0000
  N   N11       1.0  0.90248  0.38241  0.67470  1.0000
  N   N12       1.0  0.59751  0.61759  0.17470  1.0000
  N   N13       1.0  0.99529  0.91761  0.35130  1.0000
  N   N14       1.0  0.50472  0.08240  0.85130  1.0000
  N   N15       1.0  0.00471  0.08239  0.64870  1.0000
  N   N16       1.0  0.49528  0.91761  0.14870  1.0000
  N   N17       1.0  0.22910  0.97477  0.53209  1.0000
  N   N18       1.0  0.27090  0.02523  0.03210  1.0000
  N   N19       1.0  0.77090  0.02523  0.46790  1.0000
  N   N20       1.0  0.72910  0.97477  0.96791  1.0000
  N   N21       1.0  0.28025  0.91085  0.57945  1.0000
  N   N22       1.0  0.21975  0.08915  0.07945  1.0000
  N   N23       1.0  0.71975  0.08915  0.42055  1.0000
  N   N24       1.0  0.78025  0.91085  0.92055  1.0000
  N   N25       1.0  0.33503  0.84942  0.62493  1.0000
  N   N26       1.0  0.16496  0.15058  0.12493  1.0000
  N   N27       1.0  0.66496  0.15058  0.37507  1.0000
  N   N28       1.0  0.83503  0.84941  0.87507  1.0000
