data_image0
_chemical_formula_structural       Zn4H40C36N20O20
_chemical_formula_sum              "Zn4 H40 C36 N20 O20"
_cell_length_a       10.6598
_cell_length_b       11.7905
_cell_length_c       11.9139
_cell_angle_alpha    111.41
_cell_angle_beta     90.0315
_cell_angle_gamma    116.879

_space_group_name_H-M_alt    "P 1"
_space_group_IT_number       1

loop_
  _space_group_symop_operation_xyz
  'x, y, z'

loop_
  _atom_site_type_symbol
  _atom_site_label
  _atom_site_symmetry_multiplicity
  _atom_site_fract_x
  _atom_site_fract_y
  _atom_site_fract_z
  _atom_site_occupancy
  Zn  Zn1       1.0  0.75269  0.72622  0.18977  1.0000
  Zn  Zn2       1.0  0.02635  0.27377  0.31035  1.0000
  Zn  Zn3       1.0  0.24731  0.27378  0.81023  1.0000
  Zn  Zn4       1.0  0.97365  0.72623  0.68965  1.0000
  H   H1        1.0  0.20644  0.69119  0.08222  1.0000
  H   H2        1.0  0.51550  0.30895  0.41787  1.0000
  H   H3        1.0  0.79356  0.30881  0.91778  1.0000
  H   H4        1.0  0.48451  0.69105  0.58213  1.0000
  H   H5        1.0  0.40692  0.58962  0.10477  1.0000
  H   H6        1.0  0.81717  0.41049  0.39545  1.0000
  H   H7        1.0  0.59308  0.41038  0.89523  1.0000
  H   H8        1.0  0.18282  0.58951  0.60455  1.0000
  H   H9        1.0  0.74306  0.84058  0.97409  1.0000
  H   H10       1.0  0.90239  0.15927  0.52583  1.0000
  H   H11       1.0  0.25694  0.15942  0.02591  1.0000
  H   H12       1.0  0.09761  0.84074  0.47417  1.0000
  H   H13       1.0  0.41410  0.75273  0.79035  1.0000
  H   H14       1.0  0.66154  0.24718  0.70972  1.0000
  H   H15       1.0  0.58591  0.24727  0.20965  1.0000
  H   H16       1.0  0.33846  0.75282  0.29029  1.0000
  H   H17       1.0  0.59752  0.88738  0.84792  1.0000
  H   H18       1.0  0.71026  0.11255  0.65211  1.0000
  H   H19       1.0  0.40248  0.11262  0.15208  1.0000
  H   H20       1.0  0.28974  0.88745  0.34789  1.0000
  H   H21       1.0  0.34171  0.88551  0.96857  1.0000
  H   H22       1.0  0.45623  0.11449  0.53149  1.0000
  H   H23       1.0  0.65828  0.11449  0.03143  1.0000
  H   H24       1.0  0.54377  0.88551  0.46851  1.0000
  H   H25       1.0  0.42268  0.97849  0.87843  1.0000
  H   H26       1.0  0.44425  0.02142  0.62155  1.0000
  H   H27       1.0  0.57731  0.02151  0.12157  1.0000
  H   H28       1.0  0.55575  0.97859  0.37844  1.0000
  H   H29       1.0  0.84253  0.52786  0.24347  1.0000
  H   H30       1.0  0.31459  0.47220  0.25652  1.0000
  H   H31       1.0  0.15747  0.47214  0.75653  1.0000
  H   H32       1.0  0.68541  0.52780  0.74348  1.0000
  H   H33       1.0  0.78941  0.90088  0.41812  1.0000
  H   H34       1.0  0.88810  0.09916  0.08192  1.0000
  H   H35       1.0  0.21059  0.09912  0.58189  1.0000
  H   H36       1.0  0.11190  0.90084  0.91808  1.0000
  H   H37       1.0  0.91062  0.98070  0.35371  1.0000
  H   H38       1.0  0.92950  0.01958  0.14657  1.0000
  H   H39       1.0  0.08938  0.01930  0.64629  1.0000
  H   H40       1.0  0.07050  0.98041  0.85343  1.0000
  C   C1        1.0  0.08880  0.48402  0.19968  1.0000
  C   C2        1.0  0.60485  0.51606  0.30034  1.0000
  C   C3        1.0  0.91120  0.51598  0.80032  1.0000
  C   C4        1.0  0.39516  0.48394  0.69966  1.0000
  C   C5        1.0  0.04074  0.57116  0.16832  1.0000
  C   C6        1.0  0.46955  0.42875  0.33149  1.0000
  C   C7        1.0  0.95925  0.42884  0.83168  1.0000
  C   C8        1.0  0.53045  0.57125  0.66850  1.0000
  C   C9        1.0  0.10824  0.66858  0.11777  1.0000
  C   C10       1.0  0.43980  0.33147  0.38220  1.0000
  C   C11       1.0  0.89176  0.33142  0.88223  1.0000
  C   C12       1.0  0.56020  0.66853  0.61779  1.0000
  C   C13       1.0  0.02086  0.72940  0.12182  1.0000
  C   C14       1.0  0.29165  0.27088  0.37843  1.0000
  C   C15       1.0  0.97913  0.27061  0.87818  1.0000
  C   C16       1.0  0.70835  0.72913  0.62157  1.0000
  C   C17       1.0  0.03537  0.84533  0.09051  1.0000
  C   C18       1.0  0.19015  0.15480  0.40956  1.0000
  C   C19       1.0  0.96463  0.15467  0.90949  1.0000
  C   C20       1.0  0.80986  0.84520  0.59044  1.0000
  C   C21       1.0  0.46643  0.65421  0.05751  1.0000
  C   C22       1.0  0.81218  0.34587  0.44266  1.0000
  C   C23       1.0  0.53357  0.34579  0.94248  1.0000
  C   C24       1.0  0.18782  0.65413  0.55734  1.0000
  C   C25       1.0  0.63917  0.78125  0.99239  1.0000
  C   C26       1.0  0.85779  0.21861  0.50757  1.0000
  C   C27       1.0  0.36083  0.21875  0.00761  1.0000
  C   C28       1.0  0.14221  0.78139  0.49243  1.0000
  C   C29       1.0  0.49419  0.83582  0.87339  1.0000
  C   C30       1.0  0.65844  0.16410  0.62667  1.0000
  C   C31       1.0  0.50581  0.16419  0.12661  1.0000
  C   C32       1.0  0.34156  0.83589  0.37333  1.0000
  C   C33       1.0  0.44456  0.93963  0.94321  1.0000
  C   C34       1.0  0.50495  0.06030  0.55679  1.0000
  C   C35       1.0  0.55544  0.06037  0.05679  1.0000
  C   C36       1.0  0.49506  0.93970  0.44321  1.0000
  N   N1        1.0  0.91931  0.57565  0.19706  1.0000
  N   N2        1.0  0.34364  0.42435  0.30289  1.0000
  N   N3        1.0  0.08069  0.42435  0.80294  1.0000
  N   N4        1.0  0.65636  0.57565  0.69711  1.0000
  N   N5        1.0  0.90617  0.67013  0.16980  1.0000
  N   N6        1.0  0.23609  0.33001  0.33033  1.0000
  N   N7        1.0  0.09384  0.32987  0.83020  1.0000
  N   N8        1.0  0.76391  0.66999  0.66967  1.0000
  N   N9        1.0  0.61145  0.70933  0.06281  1.0000
  N   N10       1.0  0.90197  0.29061  0.43722  1.0000
  N   N11       1.0  0.38855  0.29066  0.93719  1.0000
  N   N12       1.0  0.09803  0.70939  0.56279  1.0000
  N   N13       1.0  0.40474  0.68883  0.98874  1.0000
  N   N14       1.0  0.71596  0.31121  0.51142  1.0000
  N   N15       1.0  0.59526  0.31117  0.01125  1.0000
  N   N16       1.0  0.28404  0.68879  0.48858  1.0000
  N   N17       1.0  0.51612  0.76922  0.94814  1.0000
  N   N18       1.0  0.74685  0.23064  0.55186  1.0000
  N   N19       1.0  0.48388  0.23078  0.05186  1.0000
  N   N20       1.0  0.25315  0.76936  0.44814  1.0000
  O   O1        1.0  0.00506  0.40889  0.25142  1.0000
  O   O2        1.0  0.59620  0.59139  0.24885  1.0000
  O   O3        1.0  0.99494  0.59111  0.74858  1.0000
  O   O4        1.0  0.40381  0.40861  0.75115  1.0000
  O   O5        1.0  0.20836  0.49545  0.17623  1.0000
  O   O6        1.0  0.71304  0.50480  0.32396  1.0000
  O   O7        1.0  0.79164  0.50455  0.82377  1.0000
  O   O8        1.0  0.28696  0.49520  0.67604  1.0000
  O   O9        1.0  0.14546  0.90666  0.05149  1.0000
  O   O10       1.0  0.23876  0.09342  0.44862  1.0000
  O   O11       1.0  0.85453  0.09334  0.94851  1.0000
  O   O12       1.0  0.76124  0.90659  0.55138  1.0000
  O   O13       1.0  0.93201  0.87306  0.10781  1.0000
  O   O14       1.0  0.05897  0.12683  0.39173  1.0000
  O   O15       1.0  0.06800  0.12694  0.89219  1.0000
  O   O16       1.0  0.94103  0.87316  0.60827  1.0000
  O   O17       1.0  0.80933  0.90337  0.33618  1.0000
  O   O18       1.0  0.90508  0.09655  0.16393  1.0000
  O   O19       1.0  0.19067  0.09663  0.66383  1.0000
  O   O20       1.0  0.09492  0.90345  0.83607  1.0000
