data_image0
_chemical_formula_structural       Ni2H36C30N16O8
_chemical_formula_sum              "Ni2 H36 C30 N16 O8"
_cell_length_a       8.26245
_cell_length_b       9.02501
_cell_length_c       12.4488
_cell_angle_alpha    102.017
_cell_angle_beta     103.167
_cell_angle_gamma    91.5376

_space_group_name_H-M_alt    "P 1"
_space_group_IT_number       1

loop_
  _space_group_symop_operation_xyz
  'x, y, z'

loop_
  _atom_site_type_symbol
  _atom_site_label
  _atom_site_symmetry_multiplicity
  _atom_site_fract_x
  _atom_site_fract_y
  _atom_site_fract_z
  _atom_site_occupancy
  Ni  Ni1       1.0  0.55096  0.72316  0.52567  1.0000
  Ni  Ni2       1.0  0.44904  0.27684  0.47433  1.0000
  H   H1        1.0  0.06457  0.44330  0.66015  1.0000
  H   H2        1.0  0.93543  0.55669  0.33983  1.0000
  H   H3        1.0  0.30061  0.61141  0.66336  1.0000
  H   H4        1.0  0.69939  0.38858  0.33664  1.0000
  H   H5        1.0  0.71760  0.92673  0.78994  1.0000
  H   H6        1.0  0.28240  0.07327  0.21006  1.0000
  H   H7        1.0  0.41814  0.63573  0.96971  1.0000
  H   H8        1.0  0.58186  0.36428  0.03030  1.0000
  H   H9        1.0  0.25480  0.57030  0.84636  1.0000
  H   H10       1.0  0.74520  0.42971  0.15365  1.0000
  H   H11       1.0  0.14251  0.82998  0.87932  1.0000
  H   H12       1.0  0.85750  0.17003  0.12069  1.0000
  H   H13       1.0  0.29654  0.88284  0.00878  1.0000
  H   H14       1.0  0.70346  0.11716  0.99123  1.0000
  H   H15       1.0  0.02953  0.61436  0.94578  1.0000
  H   H16       1.0  0.97047  0.38564  0.05422  1.0000
  H   H17       1.0  0.18191  0.66407  0.07489  1.0000
  H   H18       1.0  0.81809  0.33593  0.92511  1.0000
  H   H19       1.0  0.91223  0.86770  0.98905  1.0000
  H   H20       1.0  0.08777  0.13231  0.01095  1.0000
  H   H21       1.0  0.06327  0.91772  0.11841  1.0000
  H   H22       1.0  0.93673  0.08229  0.88159  1.0000
  H   H23       1.0  0.95184  0.70098  0.18352  1.0000
  H   H24       1.0  0.04816  0.29902  0.81648  1.0000
  H   H25       1.0  0.79862  0.64883  0.05353  1.0000
  H   H26       1.0  0.20138  0.35117  0.94647  1.0000
  H   H27       1.0  0.83373  0.96019  0.21942  1.0000
  H   H28       1.0  0.16627  0.03981  0.78058  1.0000
  H   H29       1.0  0.67249  0.89309  0.09393  1.0000
  H   H30       1.0  0.32751  0.10691  0.90607  1.0000
  H   H31       1.0  0.79723  0.88937  0.40001  1.0000
  H   H32       1.0  0.20277  0.11063  0.59999  1.0000
  H   H33       1.0  0.38103  0.57389  0.25595  1.0000
  H   H34       1.0  0.61897  0.42611  0.74405  1.0000
  H   H35       1.0  0.86791  0.99386  0.60502  1.0000
  H   H36       1.0  0.13209  0.00613  0.39497  1.0000
  C   C1        1.0  0.78018  0.17930  0.56455  1.0000
  C   C2        1.0  0.21982  0.82070  0.43544  1.0000
  C   C3        1.0  0.80415  0.34386  0.57760  1.0000
  C   C4        1.0  0.19585  0.65614  0.42239  1.0000
  C   C5        1.0  0.93560  0.45745  0.62307  1.0000
  C   C6        1.0  0.06441  0.54254  0.37692  1.0000
  C   C7        1.0  0.86216  0.59181  0.60616  1.0000
  C   C8        1.0  0.13785  0.40818  0.39384  1.0000
  C   C9        1.0  0.92356  0.75362  0.63015  1.0000
  C   C10       1.0  0.07644  0.24638  0.36984  1.0000
  C   C11       1.0  0.40122  0.68952  0.71857  1.0000
  C   C12       1.0  0.59878  0.31048  0.28143  1.0000
  C   C13       1.0  0.61102  0.85126  0.78579  1.0000
  C   C14       1.0  0.38898  0.14874  0.21421  1.0000
  C   C15       1.0  0.33014  0.67161  0.90118  1.0000
  C   C16       1.0  0.66987  0.32840  0.09882  1.0000
  C   C17       1.0  0.21832  0.78631  0.94900  1.0000
  C   C18       1.0  0.78168  0.21370  0.05101  1.0000
  C   C19       1.0  0.10508  0.71152  0.00727  1.0000
  C   C20       1.0  0.89492  0.28848  0.99273  1.0000
  C   C21       1.0  0.98892  0.82036  0.05657  1.0000
  C   C22       1.0  0.01108  0.17965  0.94343  1.0000
  C   C23       1.0  0.87535  0.74558  0.11432  1.0000
  C   C24       1.0  0.12465  0.25442  0.88568  1.0000
  C   C25       1.0  0.76161  0.85843  0.16247  1.0000
  C   C26       1.0  0.23839  0.14158  0.83753  1.0000
  C   C27       1.0  0.69661  0.81390  0.34184  1.0000
  C   C28       1.0  0.30338  0.18610  0.65816  1.0000
  C   C29       1.0  0.48660  0.65363  0.26564  1.0000
  C   C30       1.0  0.51340  0.34637  0.73436  1.0000
  N   N1        1.0  0.66249  0.40924  0.53730  1.0000
  N   N2        1.0  0.33751  0.59076  0.46270  1.0000
  N   N3        1.0  0.69754  0.55707  0.55426  1.0000
  N   N4        1.0  0.30246  0.44292  0.44573  1.0000
  N   N5        1.0  0.51717  0.76458  0.68665  1.0000
  N   N6        1.0  0.48283  0.23541  0.31335  1.0000
  N   N7        1.0  0.55976  0.83275  0.87630  1.0000
  N   N8        1.0  0.44023  0.16726  0.12370  1.0000
  N   N9        1.0  0.42603  0.72864  0.83137  1.0000
  N   N10       1.0  0.57397  0.27137  0.16863  1.0000
  N   N11       1.0  0.66604  0.79314  0.22882  1.0000
  N   N12       1.0  0.33395  0.20686  0.77118  1.0000
  N   N13       1.0  0.53234  0.69057  0.17839  1.0000
  N   N14       1.0  0.46766  0.30943  0.82161  1.0000
  N   N15       1.0  0.58459  0.72643  0.36812  1.0000
  N   N16       1.0  0.41541  0.27357  0.63188  1.0000
  O   O1        1.0  0.90814  0.11010  0.60977  1.0000
  O   O2        1.0  0.09186  0.88990  0.39022  1.0000
  O   O3        1.0  0.64060  0.11185  0.51414  1.0000
  O   O4        1.0  0.35939  0.88815  0.48586  1.0000
  O   O5        1.0  0.07206  0.79830  0.67584  1.0000
  O   O6        1.0  0.92794  0.20169  0.32416  1.0000
  O   O7        1.0  0.80682  0.84274  0.59890  1.0000
  O   O8        1.0  0.19319  0.15725  0.40110  1.0000
