data_image0
_chemical_formula_structural       Mn3H20C18N2O18
_chemical_formula_sum              "Mn3 H20 C18 N2 O18"
_cell_length_a       6.7725
_cell_length_b       8.31659
_cell_length_c       10.4082
_cell_angle_alpha    83.5203
_cell_angle_beta     85.2589
_cell_angle_gamma    77.6321

_space_group_name_H-M_alt    "P 1"
_space_group_IT_number       1

loop_
  _space_group_symop_operation_xyz
  'x, y, z'

loop_
  _atom_site_type_symbol
  _atom_site_label
  _atom_site_symmetry_multiplicity
  _atom_site_fract_x
  _atom_site_fract_y
  _atom_site_fract_z
  _atom_site_occupancy
  Mn  Mn1       1.0  0.00205  0.99818  0.00093  1.0000
  Mn  Mn2       1.0  0.35619  0.88409  0.68845  1.0000
  Mn  Mn3       1.0  0.62249  0.12323  0.31205  1.0000
  H   H1        1.0  0.76927  0.73428  0.98050  1.0000
  H   H2        1.0  0.23829  0.25337  0.01357  1.0000
  H   H3        1.0  0.65770  0.90302  0.91153  1.0000
  H   H4        1.0  0.35307  0.08146  0.07977  1.0000
  H   H5        1.0  0.31241  0.71286  0.91276  1.0000
  H   H6        1.0  0.67415  0.29017  0.07492  1.0000
  H   H7        1.0  0.53684  0.64142  0.85778  1.0000
  H   H8        1.0  0.45155  0.37329  0.12507  1.0000
  H   H9        1.0  0.43320  0.08850  0.83917  1.0000
  H   H10       1.0  0.56590  0.88199  0.15571  1.0000
  H   H11       1.0  0.63434  0.06289  0.73824  1.0000
  H   H12       1.0  0.35921  0.91835  0.25233  1.0000
  H   H13       1.0  0.18576  0.80446  0.50336  1.0000
  H   H14       1.0  0.82571  0.19544  0.50098  1.0000
  H   H15       1.0  0.01744  0.86475  0.62090  1.0000
  H   H16       1.0  0.98713  0.13609  0.37732  1.0000
  H   H17       1.0  0.33693  0.51636  0.48490  1.0000
  H   H18       1.0  0.68233  0.48203  0.52860  1.0000
  H   H19       1.0  0.93394  0.68547  0.80488  1.0000
  H   H20       1.0  0.06080  0.32429  0.19529  1.0000
  C   C1        1.0  0.00084  0.13592  0.72979  1.0000
  C   C2        1.0  0.99941  0.86973  0.27621  1.0000
  C   C3        1.0  0.07521  0.29576  0.70926  1.0000
  C   C4        1.0  0.92882  0.70888  0.30001  1.0000
  C   C5        1.0  0.20943  0.33030  0.60322  1.0000
  C   C6        1.0  0.80056  0.67138  0.40925  1.0000
  C   C7        1.0  0.30435  0.20564  0.51572  1.0000
  C   C8        1.0  0.69355  0.79990  0.49288  1.0000
  C   C9        1.0  0.23939  0.49258  0.57033  1.0000
  C   C10       1.0  0.77513  0.50887  0.44153  1.0000
  C   C11       1.0  0.13650  0.62016  0.64046  1.0000
  C   C12       1.0  0.87539  0.38330  0.36786  1.0000
  C   C13       1.0  0.01145  0.58576  0.74848  1.0000
  C   C14       1.0  0.98865  0.42186  0.25518  1.0000
  C   C15       1.0  0.98051  0.42554  0.78365  1.0000
  C   C16       1.0  0.01740  0.58242  0.22014  1.0000
  C   C17       1.0  0.84213  0.40086  0.90000  1.0000
  C   C18       1.0  0.14986  0.60487  0.09902  1.0000
  N   N1        1.0  0.15410  0.78691  0.60236  1.0000
  N   N2        1.0  0.85906  0.21890  0.40355  1.0000
  O   O1        1.0  0.10374  0.00561  0.79665  1.0000
  O   O2        1.0  0.90444  0.99060  0.19922  1.0000
  O   O3        1.0  0.83659  0.13471  0.68295  1.0000
  O   O4        1.0  0.15732  0.87843  0.32929  1.0000
  O   O5        1.0  0.83550  0.25148  0.94912  1.0000
  O   O6        1.0  0.16984  0.75179  0.05005  1.0000
  O   O7        1.0  0.73531  0.52679  0.94788  1.0000
  O   O8        1.0  0.24103  0.47773  0.04604  1.0000
  O   O9        1.0  0.31430  0.05108  0.55028  1.0000
  O   O10       1.0  0.72345  0.94732  0.46572  1.0000
  O   O11       1.0  0.37241  0.25472  0.40250  1.0000
  O   O12       1.0  0.57621  0.75636  0.58837  1.0000
  O   O13       1.0  0.74446  0.85555  0.98524  1.0000
  O   O14       1.0  0.26828  0.13314  0.00516  1.0000
  O   O15       1.0  0.40205  0.70376  0.83104  1.0000
  O   O16       1.0  0.57906  0.30024  0.15359  1.0000
  O   O17       1.0  0.52474  0.01015  0.78493  1.0000
  O   O18       1.0  0.47279  0.96499  0.20403  1.0000
