data_image0
_chemical_formula_structural       CuH28C28N14
_chemical_formula_sum              "Cu1 H28 C28 N14"
_cell_length_a       8.27136
_cell_length_b       9.346
_cell_length_c       9.43581
_cell_angle_alpha    104.675
_cell_angle_beta     90.4061
_cell_angle_gamma    104.574

_space_group_name_H-M_alt    "P 1"
_space_group_IT_number       1

loop_
  _space_group_symop_operation_xyz
  'x, y, z'

loop_
  _atom_site_type_symbol
  _atom_site_label
  _atom_site_symmetry_multiplicity
  _atom_site_fract_x
  _atom_site_fract_y
  _atom_site_fract_z
  _atom_site_occupancy
  Cu  Cu1       1.0  0.50000  0.50000  0.50000  1.0000
  H   H1        1.0  0.30373  0.17830  0.56868  1.0000
  H   H2        1.0  0.69626  0.82169  0.43131  1.0000
  H   H3        1.0  0.90387  0.38225  0.69106  1.0000
  H   H4        1.0  0.09613  0.61775  0.30894  1.0000
  H   H5        1.0  0.16198  0.58819  0.59904  1.0000
  H   H6        1.0  0.83802  0.41181  0.40096  1.0000
  H   H7        1.0  0.06442  0.02514  0.66716  1.0000
  H   H8        1.0  0.93557  0.97486  0.33284  1.0000
  H   H9        1.0  0.88063  0.04318  0.57913  1.0000
  H   H10       1.0  0.11936  0.95682  0.42087  1.0000
  H   H11       1.0  0.65164  0.06258  0.69842  1.0000
  H   H12       1.0  0.34836  0.93743  0.30159  1.0000
  H   H13       1.0  0.50305  0.11489  0.92513  1.0000
  H   H14       1.0  0.49695  0.88512  0.07488  1.0000
  H   H15       1.0  0.66681  0.21894  0.17032  1.0000
  H   H16       1.0  0.33319  0.78106  0.82969  1.0000
  H   H17       1.0  0.97450  0.25747  0.18429  1.0000
  H   H18       1.0  0.02550  0.74252  0.81571  1.0000
  H   H19       1.0  0.20001  0.09414  0.97832  1.0000
  H   H20       1.0  0.79999  0.90587  0.02168  1.0000
  H   H21       1.0  0.23117  0.21236  0.85738  1.0000
  H   H22       1.0  0.76883  0.78764  0.14261  1.0000
  H   H23       1.0  0.32238  0.20971  0.23686  1.0000
  H   H24       1.0  0.67762  0.79030  0.76314  1.0000
  H   H25       1.0  0.42412  0.68202  0.26793  1.0000
  H   H26       1.0  0.57588  0.31798  0.73207  1.0000
  H   H27       1.0  0.26047  0.51871  0.99229  1.0000
  H   H28       1.0  0.73953  0.48129  0.00771  1.0000
  C   C1        1.0  0.23197  0.26333  0.58827  1.0000
  C   C2        1.0  0.76803  0.73666  0.41173  1.0000
  C   C3        1.0  0.02474  0.37258  0.65249  1.0000
  C   C4        1.0  0.97526  0.62742  0.34751  1.0000
  C   C5        1.0  0.15248  0.47302  0.60728  1.0000
  C   C6        1.0  0.84752  0.52698  0.39272  1.0000
  C   C7        1.0  0.97863  0.09838  0.66950  1.0000
  C   C8        1.0  0.02137  0.90161  0.33050  1.0000
  C   C9        1.0  0.89623  0.12851  0.81205  1.0000
  C   C10       1.0  0.10377  0.87149  0.18795  1.0000
  C   C11       1.0  0.72199  0.10463  0.80562  1.0000
  C   C12       1.0  0.27801  0.89537  0.19438  1.0000
  C   C13       1.0  0.63882  0.13531  0.93343  1.0000
  C   C14       1.0  0.36118  0.86469  0.06657  1.0000
  C   C15       1.0  0.73028  0.19229  0.06982  1.0000
  C   C16       1.0  0.26973  0.80771  0.93018  1.0000
  C   C17       1.0  0.90407  0.21472  0.07720  1.0000
  C   C18       1.0  0.09593  0.78528  0.92281  1.0000
  C   C19       1.0  0.98849  0.18242  0.94973  1.0000
  C   C20       1.0  0.01151  0.81758  0.05027  1.0000
  C   C21       1.0  0.17571  0.19871  0.95982  1.0000
  C   C22       1.0  0.82428  0.80129  0.04018  1.0000
  C   C23       1.0  0.32613  0.31650  0.20972  1.0000
  C   C24       1.0  0.67387  0.68350  0.79028  1.0000
  C   C25       1.0  0.37778  0.55978  0.21974  1.0000
  C   C26       1.0  0.62223  0.44022  0.78026  1.0000
  C   C27       1.0  0.29742  0.48054  0.08386  1.0000
  C   C28       1.0  0.70258  0.51946  0.91614  1.0000
  N   N1        1.0  0.27978  0.40341  0.56772  1.0000
  N   N2        1.0  0.72022  0.59659  0.43228  1.0000
  N   N3        1.0  0.07723  0.24107  0.64020  1.0000
  N   N4        1.0  0.92277  0.75893  0.35980  1.0000
  N   N5        1.0  0.26616  0.32691  0.07939  1.0000
  N   N6        1.0  0.73384  0.67309  0.92061  1.0000
  N   N7        1.0  0.39410  0.45592  0.29627  1.0000
  N   N8        1.0  0.60590  0.54408  0.70373  1.0000
  N   N9        1.0  0.54939  0.23417  0.42967  1.0000
  N   N10       1.0  0.45061  0.76583  0.57033  1.0000
  N   N11       1.0  0.62508  0.13915  0.40666  1.0000
  N   N12       1.0  0.37492  0.86085  0.59334  1.0000
  N   N13       1.0  0.69897  0.04290  0.38079  1.0000
  N   N14       1.0  0.30104  0.95709  0.61921  1.0000
