data_image0
_chemical_formula_structural       Gd2H20C18N6O16
_chemical_formula_sum              "Gd2 H20 C18 N6 O16"
_cell_length_a       8.24431
_cell_length_b       8.31669
_cell_length_c       10.3915
_cell_angle_alpha    73.3741
_cell_angle_beta     70.9494
_cell_angle_gamma    73.1416

_space_group_name_H-M_alt    "P 1"
_space_group_IT_number       1

loop_
  _space_group_symop_operation_xyz
  'x, y, z'

loop_
  _atom_site_type_symbol
  _atom_site_label
  _atom_site_symmetry_multiplicity
  _atom_site_fract_x
  _atom_site_fract_y
  _atom_site_fract_z
  _atom_site_occupancy
  Gd  Gd1       1.0  0.25075  0.47620  0.51463  1.0000
  Gd  Gd2       1.0  0.74925  0.52380  0.48537  1.0000
  H   H1        1.0  0.32840  0.15797  0.11060  1.0000
  H   H2        1.0  0.67161  0.84204  0.88940  1.0000
  H   H3        1.0  0.40764  0.02487  0.25586  1.0000
  H   H4        1.0  0.59236  0.97512  0.74415  1.0000
  H   H5        1.0  0.03941  0.24295  0.25504  1.0000
  H   H6        1.0  0.96059  0.75706  0.74496  1.0000
  H   H7        1.0  0.06441  0.05232  0.38483  1.0000
  H   H8        1.0  0.93558  0.94768  0.61517  1.0000
  H   H9        1.0  0.15377  0.88135  0.85656  1.0000
  H   H10       1.0  0.84621  0.11864  0.14344  1.0000
  H   H11       1.0  0.08472  0.68474  0.94599  1.0000
  H   H12       1.0  0.91529  0.31525  0.05401  1.0000
  H   H13       1.0  0.46370  0.71994  0.78013  1.0000
  H   H14       1.0  0.53630  0.28007  0.21986  1.0000
  H   H15       1.0  0.41001  0.53359  0.90349  1.0000
  H   H16       1.0  0.59000  0.46641  0.09651  1.0000
  H   H17       1.0  0.32946  0.11162  0.63565  1.0000
  H   H18       1.0  0.67052  0.88838  0.36435  1.0000
  H   H19       1.0  0.26320  0.15515  0.78636  1.0000
  H   H20       1.0  0.73679  0.84485  0.21364  1.0000
  C   C1        1.0  0.29578  0.06812  0.21027  1.0000
  C   C2        1.0  0.70422  0.93188  0.78973  1.0000
  C   C3        1.0  0.13249  0.15134  0.31030  1.0000
  C   C4        1.0  0.86751  0.84867  0.68970  1.0000
  C   C5        1.0  0.17079  0.24582  0.39660  1.0000
  C   C6        1.0  0.82921  0.75418  0.60341  1.0000
  C   C7        1.0  0.19296  0.75099  0.91538  1.0000
  C   C8        1.0  0.80705  0.24901  0.08462  1.0000
  C   C9        1.0  0.35907  0.64822  0.83128  1.0000
  C   C10       1.0  0.64093  0.35179  0.16871  1.0000
  C   C11       1.0  0.32634  0.57975  0.72510  1.0000
  C   C12       1.0  0.67366  0.42025  0.27490  1.0000
  C   C13       1.0  0.24571  0.91803  0.05482  1.0000
  C   C14       1.0  0.75429  0.08195  0.94519  1.0000
  C   C15       1.0  0.22345  0.61411  0.15069  1.0000
  C   C16       1.0  0.77657  0.38589  0.84931  1.0000
  C   C17       1.0  0.26207  0.77124  0.28985  1.0000
  C   C18       1.0  0.73793  0.22876  0.71016  1.0000
  N   N1        1.0  0.23935  0.62633  0.27299  1.0000
  N   N2        1.0  0.76066  0.37367  0.72701  1.0000
  N   N3        1.0  0.21907  0.76652  0.04401  1.0000
  N   N4        1.0  0.78094  0.23348  0.95599  1.0000
  N   N5        1.0  0.26830  0.91602  0.18230  1.0000
  N   N6        1.0  0.73170  0.08398  0.81770  1.0000
  O   O1        1.0  0.32344  0.22100  0.41194  1.0000
  O   O2        1.0  0.67656  0.77899  0.58806  1.0000
  O   O3        1.0  0.04454  0.35392  0.45966  1.0000
  O   O4        1.0  0.95546  0.64608  0.54033  1.0000
  O   O5        1.0  0.45250  0.54401  0.61808  1.0000
  O   O6        1.0  0.54749  0.45599  0.38192  1.0000
  O   O7        1.0  0.17740  0.55256  0.73951  1.0000
  O   O8        1.0  0.82260  0.44744  0.26049  1.0000
  O   O9        1.0  0.24955  0.04863  0.95951  1.0000
  O   O10       1.0  0.75045  0.95138  0.04048  1.0000
  O   O11       1.0  0.21406  0.48046  0.12689  1.0000
  O   O12       1.0  0.78596  0.51954  0.87311  1.0000
  O   O13       1.0  0.27913  0.77462  0.40573  1.0000
  O   O14       1.0  0.72087  0.22539  0.59428  1.0000
  O   O15       1.0  0.27349  0.20454  0.68586  1.0000
  O   O16       1.0  0.72649  0.79545  0.31415  1.0000
