data_image0
_chemical_formula_structural       CuHg3H38C34N8Cl2O10
_chemical_formula_sum              "Cu1 Hg3 H38 C34 N8 Cl2 O10"
_cell_length_a       8.14845
_cell_length_b       10.3323
_cell_length_c       12.4505
_cell_angle_alpha    83.1516
_cell_angle_beta     81.7387
_cell_angle_gamma    85.0391

_space_group_name_H-M_alt    "P 1"
_space_group_IT_number       1

loop_
  _space_group_symop_operation_xyz
  'x, y, z'

loop_
  _atom_site_type_symbol
  _atom_site_label
  _atom_site_symmetry_multiplicity
  _atom_site_fract_x
  _atom_site_fract_y
  _atom_site_fract_z
  _atom_site_occupancy
  Cu  Cu1       1.0  0.00000  0.50000  1.00000  1.0000
  Hg  Hg1       1.0  0.77406  0.12368  0.41004  1.0000
  Hg  Hg2       1.0  0.22594  0.87632  0.58996  1.0000
  Hg  Hg3       1.0  0.50000  0.49999  0.50000  1.0000
  H   H1        1.0  0.91043  0.36082  0.50112  1.0000
  H   H2        1.0  0.08957  0.63918  0.49889  1.0000
  H   H3        1.0  0.55155  0.08216  0.64503  1.0000
  H   H4        1.0  0.44845  0.91784  0.35497  1.0000
  H   H5        1.0  0.53059  0.18549  0.81682  1.0000
  H   H6        1.0  0.46940  0.81449  0.18319  1.0000
  H   H7        1.0  0.86882  0.45485  0.67815  1.0000
  H   H8        1.0  0.13117  0.54514  0.32187  1.0000
  H   H9        1.0  0.57981  0.08336  0.20874  1.0000
  H   H10       1.0  0.42019  0.91664  0.79126  1.0000
  H   H11       1.0  0.64982  0.96029  0.04636  1.0000
  H   H12       1.0  0.35019  0.03972  0.95364  1.0000
  H   H13       1.0  0.12439  0.85123  0.11989  1.0000
  H   H14       1.0  0.87562  0.14878  0.88010  1.0000
  H   H15       1.0  0.07567  0.96581  0.28712  1.0000
  H   H16       1.0  0.92434  0.03419  0.71288  1.0000
  H   H17       1.0  0.74774  0.33230  0.12562  1.0000
  H   H18       1.0  0.25227  0.66770  0.87437  1.0000
  H   H19       1.0  0.55589  0.33109  0.30013  1.0000
  H   H20       1.0  0.44412  0.66891  0.69986  1.0000
  H   H21       1.0  0.95970  0.66217  0.18370  1.0000
  H   H22       1.0  0.04030  0.33783  0.81629  1.0000
  H   H23       1.0  0.78309  0.67332  0.36325  1.0000
  H   H24       1.0  0.21691  0.32668  0.63674  1.0000
  H   H25       1.0  0.31613  0.41067  0.18842  1.0000
  H   H26       1.0  0.68387  0.58934  0.81158  1.0000
  H   H27       1.0  0.48521  0.43978  0.08331  1.0000
  H   H28       1.0  0.51479  0.56022  0.91669  1.0000
  H   H29       1.0  0.34704  0.34716  0.95187  1.0000
  H   H30       1.0  0.65296  0.65284  0.04813  1.0000
  H   H31       1.0  0.36092  0.23651  0.07176  1.0000
  H   H32       1.0  0.63908  0.76349  0.92824  1.0000
  H   H33       1.0  0.27943  0.61540  0.12731  1.0000
  H   H34       1.0  0.72056  0.38460  0.87269  1.0000
  H   H35       1.0  0.07742  0.30063  0.13330  1.0000
  H   H36       1.0  0.92258  0.69937  0.86670  1.0000
  H   H37       1.0  0.09386  0.24547  0.01128  1.0000
  H   H38       1.0  0.90614  0.75453  0.98872  1.0000
  C   C1        1.0  0.82399  0.31807  0.56840  1.0000
  C   C2        1.0  0.17601  0.68193  0.43161  1.0000
  C   C3        1.0  0.62528  0.16452  0.64751  1.0000
  C   C4        1.0  0.37472  0.83547  0.35249  1.0000
  C   C5        1.0  0.61360  0.22160  0.74461  1.0000
  C   C6        1.0  0.38639  0.77839  0.25539  1.0000
  C   C7        1.0  0.80291  0.37050  0.66798  1.0000
  C   C8        1.0  0.19709  0.62950  0.33203  1.0000
  C   C9        1.0  0.82099  0.03391  0.26473  1.0000
  C   C10       1.0  0.17901  0.96610  0.73527  1.0000
  C   C11       1.0  0.73457  0.21156  0.55637  1.0000
  C   C12       1.0  0.26543  0.78844  0.44363  1.0000
  C   C13       1.0  0.70276  0.03309  0.19316  1.0000
  C   C14       1.0  0.29725  0.96691  0.80684  1.0000
  C   C15       1.0  0.74153  0.96393  0.10200  1.0000
  C   C16       1.0  0.25848  0.03608  0.89799  1.0000
  C   C17       1.0  0.00430  0.90328  0.14281  1.0000
  C   C18       1.0  0.99571  0.09672  0.85718  1.0000
  C   C19       1.0  0.97650  0.96814  0.23651  1.0000
  C   C20       1.0  0.02350  0.03187  0.76349  1.0000
  C   C21       1.0  0.75128  0.40542  0.18132  1.0000
  C   C22       1.0  0.24872  0.59458  0.81867  1.0000
  C   C23       1.0  0.64557  0.40565  0.27957  1.0000
  C   C24       1.0  0.35444  0.59435  0.72042  1.0000
  C   C25       1.0  0.86913  0.59039  0.21361  1.0000
  C   C26       1.0  0.13087  0.40961  0.78638  1.0000
  C   C27       1.0  0.76878  0.59598  0.31356  1.0000
  C   C28       1.0  0.23122  0.40402  0.68643  1.0000
  C   C29       1.0  0.34918  0.43625  0.10007  1.0000
  C   C30       1.0  0.65082  0.56376  0.89993  1.0000
  C   C31       1.0  0.30087  0.32994  0.03930  1.0000
  C   C32       1.0  0.69913  0.67006  0.96071  1.0000
  C   C33       1.0  0.65263  0.50201  0.34885  1.0000
  C   C34       1.0  0.34737  0.49798  0.65115  1.0000
  N   N1        1.0  0.70168  0.32203  0.75580  1.0000
  N   N2        1.0  0.29831  0.67795  0.24421  1.0000
  N   N3        1.0  0.88860  0.89793  0.07703  1.0000
  N   N4        1.0  0.11141  0.10208  0.92297  1.0000
  N   N5        1.0  0.86082  0.49713  0.14823  1.0000
  N   N6        1.0  0.13919  0.50287  0.85176  1.0000
  N   N7        1.0  0.11850  0.32297  0.05179  1.0000
  N   N8        1.0  0.88150  0.67704  0.94821  1.0000
  Cl  Cl1       1.0  0.79046  0.77668  0.62741  1.0000
  Cl  Cl2       1.0  0.20954  0.22333  0.37259  1.0000
  O   O1        1.0  0.72828  0.68467  0.56506  1.0000
  O   O2        1.0  0.27172  0.31534  0.43494  1.0000
  O   O3        1.0  0.92185  0.70906  0.68732  1.0000
  O   O4        1.0  0.07816  0.29095  0.31268  1.0000
  O   O5        1.0  0.86020  0.88484  0.55324  1.0000
  O   O6        1.0  0.13980  0.11517  0.44676  1.0000
  O   O7        1.0  0.65462  0.82685  0.70502  1.0000
  O   O8        1.0  0.34539  0.17316  0.29499  1.0000
  O   O9        1.0  0.26772  0.56020  0.06701  1.0000
  O   O10       1.0  0.73228  0.43980  0.93299  1.0000
