data_image0
_chemical_formula_structural       Ag4H36C24N12Cl4O16
_chemical_formula_sum              "Ag4 H36 C24 N12 Cl4 O16"
_cell_length_a       8.33798
_cell_length_b       9.97171
_cell_length_c       12.4253
_cell_angle_alpha    90
_cell_angle_beta     90.0001
_cell_angle_gamma    98.4155

_space_group_name_H-M_alt    "P 1"
_space_group_IT_number       1

loop_
  _space_group_symop_operation_xyz
  'x, y, z'

loop_
  _atom_site_type_symbol
  _atom_site_label
  _atom_site_symmetry_multiplicity
  _atom_site_fract_x
  _atom_site_fract_y
  _atom_site_fract_z
  _atom_site_occupancy
  Ag  Ag1       1.0  0.77369  0.78297  0.89983  1.0000
  Ag  Ag2       1.0  0.27369  0.28297  0.60017  1.0000
  Ag  Ag3       1.0  0.22632  0.21703  0.10017  1.0000
  Ag  Ag4       1.0  0.72631  0.71703  0.39983  1.0000
  H   H1        1.0  0.75470  0.17061  0.77650  1.0000
  H   H2        1.0  0.25470  0.67061  0.72350  1.0000
  H   H3        1.0  0.24530  0.82939  0.22350  1.0000
  H   H4        1.0  0.74530  0.32939  0.27650  1.0000
  H   H5        1.0  0.58161  0.04641  0.79384  1.0000
  H   H6        1.0  0.08161  0.54642  0.70616  1.0000
  H   H7        1.0  0.41839  0.95358  0.20616  1.0000
  H   H8        1.0  0.91839  0.45358  0.29384  1.0000
  H   H9        1.0  0.67682  0.99746  0.98057  1.0000
  H   H10       1.0  0.17682  0.49746  0.51943  1.0000
  H   H11       1.0  0.32319  0.00253  0.01943  1.0000
  H   H12       1.0  0.82319  0.50254  0.48057  1.0000
  H   H13       1.0  0.62843  0.16307  0.96063  1.0000
  H   H14       1.0  0.12843  0.66307  0.53937  1.0000
  H   H15       1.0  0.37158  0.83693  0.03937  1.0000
  H   H16       1.0  0.87158  0.33694  0.46063  1.0000
  H   H17       1.0  0.82356  0.84267  0.64540  1.0000
  H   H18       1.0  0.32356  0.34267  0.85460  1.0000
  H   H19       1.0  0.17644  0.15733  0.35460  1.0000
  H   H20       1.0  0.67644  0.65733  0.14540  1.0000
  H   H21       1.0  0.62053  0.86506  0.67464  1.0000
  H   H22       1.0  0.12053  0.36506  0.82536  1.0000
  H   H23       1.0  0.37947  0.13494  0.32536  1.0000
  H   H24       1.0  0.87947  0.63494  0.17464  1.0000
  H   H25       1.0  0.66234  0.09830  0.60451  1.0000
  H   H26       1.0  0.16234  0.59830  0.89549  1.0000
  H   H27       1.0  0.33766  0.90170  0.39549  1.0000
  H   H28       1.0  0.83766  0.40170  0.10451  1.0000
  H   H29       1.0  0.71404  0.98398  0.50611  1.0000
  H   H30       1.0  0.21404  0.48398  0.99389  1.0000
  H   H31       1.0  0.28596  0.01602  0.49389  1.0000
  H   H32       1.0  0.78596  0.51602  0.00611  1.0000
  H   H33       1.0  0.91938  0.99707  0.77951  1.0000
  H   H34       1.0  0.41938  0.49707  0.72049  1.0000
  H   H35       1.0  0.08062  0.00293  0.22049  1.0000
  H   H36       1.0  0.58062  0.50293  0.27951  1.0000
  C   C1        1.0  0.70918  0.07398  0.81609  1.0000
  C   C2        1.0  0.20919  0.57398  0.68391  1.0000
  C   C3        1.0  0.29082  0.92602  0.18391  1.0000
  C   C4        1.0  0.79082  0.42602  0.31609  1.0000
  C   C5        1.0  0.71444  0.09417  0.93809  1.0000
  C   C6        1.0  0.21444  0.59417  0.56191  1.0000
  C   C7        1.0  0.28556  0.90583  0.06191  1.0000
  C   C8        1.0  0.78557  0.40583  0.43809  1.0000
  C   C9        1.0  0.87240  0.15118  0.97864  1.0000
  C   C10       1.0  0.37241  0.65118  0.52136  1.0000
  C   C11       1.0  0.12759  0.84881  0.02136  1.0000
  C   C12       1.0  0.62760  0.34882  0.47864  1.0000
  C   C13       1.0  0.74602  0.91648  0.67077  1.0000
  C   C14       1.0  0.24602  0.41648  0.82923  1.0000
  C   C15       1.0  0.25398  0.08352  0.32923  1.0000
  C   C16       1.0  0.75398  0.58352  0.17076  1.0000
  C   C17       1.0  0.74997  0.02952  0.58484  1.0000
  C   C18       1.0  0.24997  0.52952  0.91517  1.0000
  C   C19       1.0  0.25003  0.97048  0.41517  1.0000
  C   C20       1.0  0.75003  0.47048  0.08483  1.0000
  C   C21       1.0  0.90803  0.10949  0.57390  1.0000
  C   C22       1.0  0.40803  0.60949  0.92610  1.0000
  C   C23       1.0  0.09197  0.89052  0.42610  1.0000
  C   C24       1.0  0.59197  0.39051  0.07390  1.0000
  N   N1        1.0  0.79669  0.96383  0.77954  1.0000
  N   N2        1.0  0.29669  0.46383  0.72046  1.0000
  N   N3        1.0  0.20331  0.03617  0.22046  1.0000
  N   N4        1.0  0.70331  0.53617  0.27954  1.0000
  N   N5        1.0  0.00004  0.19788  0.00955  1.0000
  N   N6        1.0  0.50004  0.69789  0.49044  1.0000
  N   N7        1.0  0.99997  0.80211  0.99045  1.0000
  N   N8        1.0  0.49996  0.30212  0.50955  1.0000
  N   N9        1.0  0.03562  0.17426  0.56850  1.0000
  N   N10       1.0  0.53562  0.67426  0.93150  1.0000
  N   N11       1.0  0.96438  0.82575  0.43150  1.0000
  N   N12       1.0  0.46438  0.32574  0.06850  1.0000
  Cl  Cl1       1.0  0.74752  0.46844  0.75603  1.0000
  Cl  Cl2       1.0  0.24752  0.96844  0.74397  1.0000
  Cl  Cl3       1.0  0.25249  0.53156  0.24397  1.0000
  Cl  Cl4       1.0  0.75248  0.03157  0.25603  1.0000
  O   O1        1.0  0.83604  0.38408  0.68854  1.0000
  O   O2        1.0  0.33604  0.88408  0.81146  1.0000
  O   O3        1.0  0.16395  0.61592  0.31146  1.0000
  O   O4        1.0  0.66395  0.11592  0.18854  1.0000
  O   O5        1.0  0.86323  0.54828  0.82951  1.0000
  O   O6        1.0  0.36322  0.04828  0.67050  1.0000
  O   O7        1.0  0.13678  0.45171  0.17050  1.0000
  O   O8        1.0  0.63678  0.95172  0.32951  1.0000
  O   O9        1.0  0.67005  0.56097  0.68857  1.0000
  O   O10       1.0  0.17004  0.06096  0.81143  1.0000
  O   O11       1.0  0.32996  0.43904  0.31144  1.0000
  O   O12       1.0  0.82994  0.93904  0.18857  1.0000
  O   O13       1.0  0.62448  0.38315  0.81894  1.0000
  O   O14       1.0  0.12447  0.88315  0.68105  1.0000
  O   O15       1.0  0.37552  0.61684  0.18106  1.0000
  O   O16       1.0  0.87552  0.11685  0.31894  1.0000
