data_image0
_chemical_formula_structural       Ag8H50C60S4N10O16
_chemical_formula_sum              "Ag8 H50 C60 S4 N10 O16"
_cell_length_a       10.2331
_cell_length_b       11.8404
_cell_length_c       13.8578
_cell_angle_alpha    83.7937
_cell_angle_beta     80.8387
_cell_angle_gamma    87.4027

_space_group_name_H-M_alt    "P 1"
_space_group_IT_number       1

loop_
  _space_group_symop_operation_xyz
  'x, y, z'

loop_
  _atom_site_type_symbol
  _atom_site_label
  _atom_site_symmetry_multiplicity
  _atom_site_fract_x
  _atom_site_fract_y
  _atom_site_fract_z
  _atom_site_occupancy
  Ag  Ag1       1.0  0.46945  0.83217  0.27165  1.0000
  Ag  Ag2       1.0  0.53054  0.16782  0.72836  1.0000
  Ag  Ag3       1.0  0.44347  0.85861  0.50217  1.0000
  Ag  Ag4       1.0  0.55653  0.14139  0.49783  1.0000
  Ag  Ag5       1.0  0.76607  0.01613  0.36701  1.0000
  Ag  Ag6       1.0  0.23393  0.98387  0.63300  1.0000
  Ag  Ag7       1.0  0.77150  0.92653  0.15637  1.0000
  Ag  Ag8       1.0  0.22851  0.07348  0.84363  1.0000
  H   H1        1.0  0.47190  0.56809  0.26714  1.0000
  H   H2        1.0  0.52810  0.43190  0.73286  1.0000
  H   H3        1.0  0.34565  0.40856  0.22281  1.0000
  H   H4        1.0  0.65435  0.59143  0.77721  1.0000
  H   H5        1.0  0.14170  0.45991  0.14389  1.0000
  H   H6        1.0  0.85830  0.54007  0.85613  1.0000
  H   H7        1.0  0.07442  0.66456  0.11386  1.0000
  H   H8        1.0  0.92558  0.33543  0.88614  1.0000
  H   H9        1.0  0.28741  0.89914  0.16809  1.0000
  H   H10       1.0  0.71261  0.10084  0.83189  1.0000
  H   H11       1.0  0.00587  0.83884  0.13975  1.0000
  H   H12       1.0  0.99413  0.16115  0.86024  1.0000
  H   H13       1.0  0.25325  0.06884  0.15163  1.0000
  H   H14       1.0  0.74677  0.93115  0.84837  1.0000
  H   H15       1.0  0.19724  0.27216  0.11950  1.0000
  H   H16       1.0  0.80277  0.72781  0.88051  1.0000
  H   H17       1.0  0.96700  0.33120  0.08240  1.0000
  H   H18       1.0  0.03302  0.66880  0.91761  1.0000
  H   H19       1.0  0.80239  0.17950  0.09148  1.0000
  H   H20       1.0  0.19762  0.82051  0.90852  1.0000
  H   H21       1.0  0.40443  0.61356  0.50006  1.0000
  H   H22       1.0  0.59557  0.38642  0.49994  1.0000
  H   H23       1.0  0.23398  0.47893  0.47882  1.0000
  H   H24       1.0  0.76600  0.52108  0.52118  1.0000
  H   H25       1.0  0.02830  0.56079  0.41028  1.0000
  H   H26       1.0  0.97169  0.43924  0.58972  1.0000
  H   H27       1.0  0.00432  0.76669  0.37209  1.0000
  H   H28       1.0  0.99567  0.23332  0.62790  1.0000
  H   H29       1.0  0.26386  0.97272  0.41399  1.0000
  H   H30       1.0  0.73614  0.02728  0.58601  1.0000
  H   H31       1.0  0.97757  0.93395  0.38159  1.0000
  H   H32       1.0  0.02244  0.06606  0.61839  1.0000
  H   H33       1.0  0.23205  0.15545  0.40142  1.0000
  H   H34       1.0  0.76795  0.84459  0.59857  1.0000
  H   H35       1.0  0.18064  0.36010  0.37003  1.0000
  H   H36       1.0  0.81932  0.63993  0.62996  1.0000
  H   H37       1.0  0.95787  0.42351  0.32102  1.0000
  H   H38       1.0  0.04210  0.57650  0.67898  1.0000
  H   H39       1.0  0.79503  0.27379  0.31431  1.0000
  H   H40       1.0  0.20493  0.72623  0.68569  1.0000
  H   H41       1.0  0.75053  0.66819  0.15578  1.0000
  H   H42       1.0  0.24947  0.33180  0.84422  1.0000
  H   H43       1.0  0.66246  0.52964  0.05764  1.0000
  H   H44       1.0  0.33754  0.47037  0.94236  1.0000
  H   H45       1.0  0.50706  0.60514  0.93971  1.0000
  H   H46       1.0  0.49296  0.39486  0.06028  1.0000
  H   H47       1.0  0.44699  0.81053  0.92512  1.0000
  H   H48       1.0  0.55303  0.18946  0.07488  1.0000
  H   H49       1.0  0.59070  0.01391  0.07697  1.0000
  H   H50       1.0  0.40930  0.98606  0.92303  1.0000
  C   C1        1.0  0.38380  0.58478  0.23194  1.0000
  C   C2        1.0  0.61621  0.41521  0.76806  1.0000
  C   C3        1.0  0.31301  0.49680  0.20751  1.0000
  C   C4        1.0  0.68700  0.50319  0.79250  1.0000
  C   C5        1.0  0.20025  0.52590  0.16400  1.0000
  C   C6        1.0  0.79977  0.47409  0.83600  1.0000
  C   C7        1.0  0.16239  0.63964  0.14712  1.0000
  C   C8        1.0  0.83762  0.36034  0.85288  1.0000
  C   C9        1.0  0.23887  0.72375  0.17348  1.0000
  C   C10       1.0  0.76113  0.27625  0.82651  1.0000
  C   C11       1.0  0.20730  0.84485  0.15949  1.0000
  C   C12       1.0  0.79270  0.15514  0.84051  1.0000
  C   C13       1.0  0.08940  0.89216  0.14280  1.0000
  C   C14       1.0  0.91059  0.10783  0.85722  1.0000
  C   C15       1.0  0.06069  0.01392  0.13084  1.0000
  C   C16       1.0  0.93931  0.98607  0.86917  1.0000
  C   C17       1.0  0.15576  0.09511  0.13357  1.0000
  C   C18       1.0  0.84425  0.90488  0.86644  1.0000
  C   C19       1.0  0.12344  0.20971  0.11653  1.0000
  C   C20       1.0  0.87657  0.79028  0.88348  1.0000
  C   C21       1.0  0.99666  0.24219  0.09689  1.0000
  C   C22       1.0  0.00336  0.75780  0.90312  1.0000
  C   C23       1.0  0.90487  0.15823  0.10009  1.0000
  C   C24       1.0  0.09514  0.84177  0.89991  1.0000
  C   C25       1.0  0.31293  0.64443  0.47402  1.0000
  C   C26       1.0  0.68707  0.35556  0.52598  1.0000
  C   C27       1.0  0.21888  0.56974  0.45910  1.0000
  C   C28       1.0  0.78110  0.43027  0.54090  1.0000
  C   C29       1.0  0.10606  0.61503  0.42251  1.0000
  C   C30       1.0  0.89391  0.38500  0.57750  1.0000
  C   C31       1.0  0.09102  0.73181  0.40265  1.0000
  C   C32       1.0  0.90897  0.26821  0.59736  1.0000
  C   C33       1.0  0.18731  0.80325  0.42229  1.0000
  C   C34       1.0  0.81267  0.19676  0.57772  1.0000
  C   C35       1.0  0.17575  0.92657  0.40767  1.0000
  C   C36       1.0  0.82424  0.07344  0.59234  1.0000
  C   C37       1.0  0.06396  0.98272  0.38769  1.0000
  C   C38       1.0  0.93604  0.01729  0.61232  1.0000
  C   C39       1.0  0.04217  0.10468  0.37267  1.0000
  C   C40       1.0  0.95783  0.89533  0.62733  1.0000
  C   C41       1.0  0.13676  0.18380  0.38071  1.0000
  C   C42       1.0  0.86324  0.81622  0.61929  1.0000
  C   C43       1.0  0.10762  0.29901  0.36249  1.0000
  C   C44       1.0  0.89236  0.70100  0.63750  1.0000
  C   C45       1.0  0.98482  0.33401  0.33619  1.0000
  C   C46       1.0  0.01515  0.66600  0.66380  1.0000
  C   C47       1.0  0.89367  0.25155  0.33216  1.0000
  C   C48       1.0  0.10631  0.74845  0.66783  1.0000
  C   C49       1.0  0.68471  0.69528  0.10251  1.0000
  C   C50       1.0  0.31530  0.30472  0.89750  1.0000
  C   C51       1.0  0.63378  0.61946  0.04899  1.0000
  C   C52       1.0  0.36623  0.38055  0.95102  1.0000
  C   C53       1.0  0.54682  0.66127  0.98448  1.0000
  C   C54       1.0  0.45319  0.33873  0.01553  1.0000
  C   C55       1.0  0.51289  0.77634  0.97623  1.0000
  C   C56       1.0  0.48712  0.22365  0.02377  1.0000
  C   C57       1.0  0.56831  0.84892  0.03160  1.0000
  C   C58       1.0  0.43171  0.15107  0.96839  1.0000
  C   C59       1.0  0.54059  0.97049  0.02799  1.0000
  C   C60       1.0  0.45942  0.02949  0.97200  1.0000
  S   S1        1.0  0.48602  0.10420  0.27703  1.0000
  S   S2        1.0  0.51398  0.89579  0.72297  1.0000
  S   S3        1.0  0.72451  0.74542  0.36710  1.0000
  S   S4        1.0  0.27549  0.25458  0.63291  1.0000
  N   N1        1.0  0.34917  0.69496  0.21482  1.0000
  N   N2        1.0  0.65083  0.30503  0.78519  1.0000
  N   N3        1.0  0.93486  0.04683  0.11752  1.0000
  N   N4        1.0  0.06514  0.95317  0.88247  1.0000
  N   N5        1.0  0.29792  0.75815  0.45712  1.0000
  N   N6        1.0  0.70208  0.24185  0.54286  1.0000
  N   N7        1.0  0.92041  0.13993  0.35065  1.0000
  N   N8        1.0  0.07959  0.86008  0.64934  1.0000
  N   N9        1.0  0.65399  0.80714  0.09352  1.0000
  N   N10       1.0  0.34603  0.19286  0.90649  1.0000
  O   O1        1.0  0.41592  0.01719  0.23346  1.0000
  O   O2        1.0  0.58408  0.98281  0.76654  1.0000
  O   O3        1.0  0.46673  0.06792  0.38704  1.0000
  O   O4        1.0  0.53328  0.93207  0.61296  1.0000
  O   O5        1.0  0.63090  0.09975  0.23554  1.0000
  O   O6        1.0  0.36910  0.90025  0.76446  1.0000
  O   O7        1.0  0.42868  0.21804  0.25608  1.0000
  O   O8        1.0  0.57132  0.78196  0.74392  1.0000
  O   O9        1.0  0.66649  0.85622  0.40777  1.0000
  O   O10       1.0  0.33352  0.14378  0.59224  1.0000
  O   O11       1.0  0.82993  0.77686  0.28139  1.0000
  O   O12       1.0  0.17006  0.22313  0.71860  1.0000
  O   O13       1.0  0.61221  0.68996  0.33497  1.0000
  O   O14       1.0  0.38779  0.31004  0.66502  1.0000
  O   O15       1.0  0.78017  0.67309  0.44381  1.0000
  O   O16       1.0  0.21983  0.32691  0.55619  1.0000
