data_image0
_chemical_formula_structural       Cd4H44C36N4O16
_chemical_formula_sum              "Cd4 H44 C36 N4 O16"
_cell_length_a       9.64971
_cell_length_b       10.0142
_cell_length_c       12.8446
_cell_angle_alpha    71.6711
_cell_angle_beta     73.5818
_cell_angle_gamma    74.8537

_space_group_name_H-M_alt    "P 1"
_space_group_IT_number       1

loop_
  _space_group_symop_operation_xyz
  'x, y, z'

loop_
  _atom_site_type_symbol
  _atom_site_label
  _atom_site_symmetry_multiplicity
  _atom_site_fract_x
  _atom_site_fract_y
  _atom_site_fract_z
  _atom_site_occupancy
  Cd  Cd1       1.0  0.00000  0.00000  1.00000  1.0000
  Cd  Cd2       1.0  0.75322  0.72802  0.23051  1.0000
  Cd  Cd3       1.0  0.24678  0.27198  0.76949  1.0000
  Cd  Cd4       1.0  0.50000  0.50000  0.50000  1.0000
  H   H1        1.0  0.91518  0.33217  0.86209  1.0000
  H   H2        1.0  0.08482  0.66783  0.13791  1.0000
  H   H3        1.0  0.69207  0.51668  0.82756  1.0000
  H   H4        1.0  0.30793  0.48332  0.17245  1.0000
  H   H5        1.0  0.44213  0.44467  0.90760  1.0000
  H   H6        1.0  0.55786  0.55533  0.09240  1.0000
  H   H7        1.0  0.43170  0.19060  0.01410  1.0000
  H   H8        1.0  0.56829  0.80940  0.98590  1.0000
  H   H9        1.0  0.66497  0.01821  0.04080  1.0000
  H   H10       1.0  0.33502  0.98178  0.95921  1.0000
  H   H11       1.0  0.98162  0.79750  0.84287  1.0000
  H   H12       1.0  0.01839  0.20250  0.15713  1.0000
  H   H13       1.0  0.84003  0.70879  0.84621  1.0000
  H   H14       1.0  0.15998  0.29121  0.15379  1.0000
  H   H15       1.0  0.00546  0.60530  0.88363  1.0000
  H   H16       1.0  0.99454  0.39470  0.11637  1.0000
  H   H17       1.0  0.83749  0.97297  0.46156  1.0000
  H   H18       1.0  0.16252  0.02703  0.53844  1.0000
  H   H19       1.0  0.83208  0.13993  0.35571  1.0000
  H   H20       1.0  0.16793  0.86007  0.64429  1.0000
  H   H21       1.0  0.00214  0.02173  0.36570  1.0000
  H   H22       1.0  0.99787  0.97827  0.63430  1.0000
  H   H23       1.0  0.24225  0.74376  0.38960  1.0000
  H   H24       1.0  0.75775  0.25624  0.61040  1.0000
  H   H25       1.0  0.22977  0.85424  0.25056  1.0000
  H   H26       1.0  0.77023  0.14576  0.74943  1.0000
  H   H27       1.0  0.24774  0.93146  0.35064  1.0000
  H   H28       1.0  0.75226  0.06854  0.64936  1.0000
  H   H29       1.0  0.11626  0.35256  0.37316  1.0000
  H   H30       1.0  0.88375  0.64745  0.62684  1.0000
  H   H31       1.0  0.98878  0.23830  0.45846  1.0000
  H   H32       1.0  0.01122  0.76170  0.54154  1.0000
  H   H33       1.0  0.02806  0.36052  0.51423  1.0000
  H   H34       1.0  0.97194  0.63948  0.48577  1.0000
  H   H35       1.0  0.35779  0.24442  0.51509  1.0000
  H   H36       1.0  0.64221  0.75558  0.48491  1.0000
  H   H37       1.0  0.36878  0.07505  0.40558  1.0000
  H   H38       1.0  0.63122  0.92495  0.59442  1.0000
  H   H39       1.0  0.53819  0.09317  0.21685  1.0000
  H   H40       1.0  0.46182  0.90683  0.78315  1.0000
  H   H41       1.0  0.69813  0.28211  0.14488  1.0000
  H   H42       1.0  0.30187  0.71789  0.85512  1.0000
  H   H43       1.0  0.67886  0.44064  0.26598  1.0000
  H   H44       1.0  0.32114  0.55936  0.73402  1.0000
  C   C1        1.0  0.80616  0.30500  0.89498  1.0000
  C   C2        1.0  0.19384  0.69499  0.10502  1.0000
  C   C3        1.0  0.68088  0.40765  0.87593  1.0000
  C   C4        1.0  0.31912  0.59235  0.12407  1.0000
  C   C5        1.0  0.54328  0.36828  0.91975  1.0000
  C   C6        1.0  0.45671  0.63172  0.08026  1.0000
  C   C7        1.0  0.53630  0.22668  0.97957  1.0000
  C   C8        1.0  0.46370  0.77332  0.02043  1.0000
  C   C9        1.0  0.66607  0.12972  0.99453  1.0000
  C   C10       1.0  0.33392  0.87028  0.00548  1.0000
  C   C11       1.0  0.85912  0.70627  0.00815  1.0000
  C   C12       1.0  0.14089  0.29373  0.99185  1.0000
  C   C13       1.0  0.92673  0.70610  0.88729  1.0000
  C   C14       1.0  0.07327  0.29390  0.11271  1.0000
  C   C15       1.0  0.86469  0.95719  0.29165  1.0000
  C   C16       1.0  0.13532  0.04281  0.70835  1.0000
  C   C17       1.0  0.88452  0.02632  0.37495  1.0000
  C   C18       1.0  0.11548  0.97368  0.62505  1.0000
  C   C19       1.0  0.44582  0.80415  0.28219  1.0000
  C   C20       1.0  0.55418  0.19585  0.71780  1.0000
  C   C21       1.0  0.28094  0.83311  0.32180  1.0000
  C   C22       1.0  0.71906  0.16689  0.67820  1.0000
  C   C23       1.0  0.88608  0.45625  0.39615  1.0000
  C   C24       1.0  0.11393  0.54375  0.60385  1.0000
  C   C25       1.0  0.01372  0.34584  0.43702  1.0000
  C   C26       1.0  0.98629  0.65416  0.56298  1.0000
  C   C27       1.0  0.43242  0.24925  0.43308  1.0000
  C   C28       1.0  0.56758  0.75076  0.56692  1.0000
  C   C29       1.0  0.43798  0.15584  0.37085  1.0000
  C   C30       1.0  0.56203  0.84416  0.62915  1.0000
  C   C31       1.0  0.53289  0.16665  0.26545  1.0000
  C   C32       1.0  0.46712  0.83335  0.73455  1.0000
  C   C33       1.0  0.62067  0.27073  0.22590  1.0000
  C   C34       1.0  0.37933  0.72927  0.77410  1.0000
  C   C35       1.0  0.61092  0.35918  0.29331  1.0000
  C   C36       1.0  0.38908  0.64082  0.70669  1.0000
  N   N1        1.0  0.79871  0.16839  0.95393  1.0000
  N   N2        1.0  0.20128  0.83161  0.04608  1.0000
  N   N3        1.0  0.51810  0.34881  0.39474  1.0000
  N   N4        1.0  0.48190  0.65119  0.60525  1.0000
  O   O1        1.0  0.87187  0.80860  0.04549  1.0000
  O   O2        1.0  0.12814  0.19140  0.95451  1.0000
  O   O3        1.0  0.79049  0.60952  0.07290  1.0000
  O   O4        1.0  0.20951  0.39048  0.92710  1.0000
  O   O5        1.0  0.91483  0.01003  0.18844  1.0000
  O   O6        1.0  0.08517  0.98997  0.81156  1.0000
  O   O7        1.0  0.79748  0.85154  0.33253  1.0000
  O   O8        1.0  0.20252  0.14847  0.66747  1.0000
  O   O9        1.0  0.50951  0.89362  0.20216  1.0000
  O   O10       1.0  0.49049  0.10638  0.79784  1.0000
  O   O11       1.0  0.52172  0.68556  0.33156  1.0000
  O   O12       1.0  0.47828  0.31444  0.66844  1.0000
  O   O13       1.0  0.91429  0.53383  0.29507  1.0000
  O   O14       1.0  0.08571  0.46617  0.70493  1.0000
  O   O15       1.0  0.76169  0.46415  0.46404  1.0000
  O   O16       1.0  0.23832  0.53585  0.53596  1.0000
