data_image0
_chemical_formula_structural       Cd2H34C36N10O10
_chemical_formula_sum              "Cd2 H34 C36 N10 O10"
_cell_length_a       8.54163
_cell_length_b       11.154
_cell_length_c       11.1539
_cell_angle_alpha    100.83
_cell_angle_beta     99.2278
_cell_angle_gamma    99.2289

_space_group_name_H-M_alt    "P 1"
_space_group_IT_number       1

loop_
  _space_group_symop_operation_xyz
  'x, y, z'

loop_
  _atom_site_type_symbol
  _atom_site_label
  _atom_site_symmetry_multiplicity
  _atom_site_fract_x
  _atom_site_fract_y
  _atom_site_fract_z
  _atom_site_occupancy
  Cd  Cd1       1.0  0.18777  0.05057  0.43793  1.0000
  Cd  Cd2       1.0  0.68777  0.43792  0.05058  1.0000
  H   H1        1.0  0.63505  0.20144  0.73739  1.0000
  H   H2        1.0  0.13504  0.73739  0.20144  1.0000
  H   H3        1.0  0.47495  0.09370  0.63078  1.0000
  H   H4        1.0  0.97495  0.63077  0.09370  1.0000
  H   H5        1.0  0.91559  0.84746  0.42794  1.0000
  H   H6        1.0  0.41560  0.42795  0.84747  1.0000
  H   H7        1.0  0.97039  0.83633  0.29807  1.0000
  H   H8        1.0  0.47038  0.29808  0.83632  1.0000
  H   H9        1.0  0.42443  0.69717  0.34042  1.0000
  H   H10       1.0  0.92442  0.34043  0.69718  1.0000
  H   H11       1.0  0.59848  0.81617  0.39532  1.0000
  H   H12       1.0  0.09848  0.39533  0.81617  1.0000
  H   H13       1.0  0.40488  0.76230  0.12742  1.0000
  H   H14       1.0  0.90489  0.12744  0.76230  1.0000
  H   H15       1.0  0.60470  0.84645  0.18147  1.0000
  H   H16       1.0  0.10470  0.18148  0.84647  1.0000
  H   H17       1.0  0.49636  0.48952  0.37482  1.0000
  H   H18       1.0  0.99637  0.37483  0.48953  1.0000
  H   H19       1.0  0.34626  0.42729  0.21342  1.0000
  H   H20       1.0  0.84627  0.21342  0.42731  1.0000
  H   H21       1.0  0.12917  0.35502  0.02774  1.0000
  H   H22       1.0  0.62918  0.02774  0.35503  1.0000
  H   H23       1.0  0.92893  0.15527  0.00522  1.0000
  H   H24       1.0  0.42894  0.00522  0.15527  1.0000
  H   H25       1.0  0.96362  0.03619  0.17511  1.0000
  H   H26       1.0  0.46364  0.17511  0.03620  1.0000
  H   H27       1.0  0.70149  0.62237  0.40295  1.0000
  H   H28       1.0  0.20148  0.40297  0.62239  1.0000
  H   H29       1.0  0.81742  0.55362  0.77272  1.0000
  H   H30       1.0  0.31743  0.77273  0.55361  1.0000
  H   H31       1.0  0.01465  0.75682  0.83103  1.0000
  H   H32       1.0  0.51468  0.83106  0.75681  1.0000
  H   H33       1.0  0.04126  0.88574  0.66965  1.0000
  H   H34       1.0  0.54129  0.66968  0.88574  1.0000
  C   C1        1.0  0.37420  0.87624  0.35494  1.0000
  C   C2        1.0  0.87420  0.35495  0.87624  1.0000
  C   C3        1.0  0.48559  0.78658  0.32568  1.0000
  C   C4        1.0  0.98560  0.32568  0.78658  1.0000
  C   C5        1.0  0.51792  0.76792  0.19364  1.0000
  C   C6        1.0  0.01793  0.19365  0.76792  1.0000
  C   C7        1.0  0.57881  0.64955  0.15161  1.0000
  C   C8        1.0  0.07880  0.15162  0.64955  1.0000
  C   C9        1.0  0.52884  0.26291  0.58710  1.0000
  C   C10       1.0  0.02883  0.58711  0.26292  1.0000
  C   C11       1.0  0.62381  0.45230  0.54505  1.0000
  C   C12       1.0  0.12381  0.54505  0.45230  1.0000
  C   C13       1.0  0.50493  0.42448  0.43573  1.0000
  C   C14       1.0  0.00491  0.43574  0.42449  1.0000
  C   C15       1.0  0.39804  0.31009  0.40907  1.0000
  C   C16       1.0  0.89807  0.40905  0.31008  1.0000
  C   C17       1.0  0.26830  0.27110  0.29551  1.0000
  C   C18       1.0  0.76830  0.29552  0.27110  1.0000
  C   C19       1.0  0.25878  0.34181  0.20424  1.0000
  C   C20       1.0  0.75880  0.20425  0.34183  1.0000
  C   C21       1.0  0.13710  0.29999  0.09859  1.0000
  C   C22       1.0  0.63713  0.09858  0.29998  1.0000
  C   C23       1.0  0.02774  0.18885  0.08551  1.0000
  C   C24       1.0  0.52774  0.08551  0.18887  1.0000
  C   C25       1.0  0.04569  0.12345  0.17993  1.0000
  C   C26       1.0  0.54571  0.17992  0.12345  1.0000
  C   C27       1.0  0.76604  0.64973  0.49971  1.0000
  C   C28       1.0  0.26604  0.49973  0.64974  1.0000
  C   C29       1.0  0.74108  0.57217  0.58329  1.0000
  C   C30       1.0  0.24108  0.58330  0.57218  1.0000
  C   C31       1.0  0.83209  0.61143  0.70505  1.0000
  C   C32       1.0  0.33210  0.70506  0.61142  1.0000
  C   C33       1.0  0.94136  0.72446  0.73740  1.0000
  C   C34       1.0  0.44138  0.73742  0.72445  1.0000
  C   C35       1.0  0.95737  0.79612  0.64854  1.0000
  C   C36       1.0  0.45738  0.64856  0.79613  1.0000
  N   N1        1.0  0.53945  0.18207  0.66297  1.0000
  N   N2        1.0  0.03945  0.66296  0.18207  1.0000
  N   N3        1.0  0.40854  0.23002  0.48478  1.0000
  N   N4        1.0  0.90854  0.48478  0.23004  1.0000
  N   N5        1.0  0.63672  0.37194  0.61995  1.0000
  N   N6        1.0  0.13672  0.61995  0.37194  1.0000
  N   N7        1.0  0.16243  0.16346  0.28216  1.0000
  N   N8        1.0  0.66243  0.28216  0.16346  1.0000
  N   N9        1.0  0.87095  0.75910  0.53128  1.0000
  N   N10       1.0  0.37097  0.53130  0.75911  1.0000
  O   O1        1.0  0.39103  0.93449  0.46805  1.0000
  O   O2        1.0  0.89103  0.46805  0.93451  1.0000
  O   O3        1.0  0.26523  0.88889  0.26812  1.0000
  O   O4        1.0  0.76523  0.26813  0.88890  1.0000
  O   O5        1.0  0.65719  0.64507  0.06271  1.0000
  O   O6        1.0  0.15719  0.06273  0.64509  1.0000
  O   O7        1.0  0.54765  0.55783  0.20258  1.0000
  O   O8        1.0  0.04766  0.20260  0.55784  1.0000
  O   O9        1.0  0.94500  0.89737  0.36378  1.0000
  O   O10       1.0  0.44500  0.36379  0.89737  1.0000
