data_image0
_chemical_formula_structural       MnH8C12N10
_chemical_formula_sum              "Mn1 H8 C12 N10"
_cell_length_a       6.18285
_cell_length_b       7.22039
_cell_length_c       8.9375
_cell_angle_alpha    72.5815
_cell_angle_beta     71.751
_cell_angle_gamma    89.452

_space_group_name_H-M_alt    "P 1"
_space_group_IT_number       1

loop_
  _space_group_symop_operation_xyz
  'x, y, z'

loop_
  _atom_site_type_symbol
  _atom_site_label
  _atom_site_symmetry_multiplicity
  _atom_site_fract_x
  _atom_site_fract_y
  _atom_site_fract_z
  _atom_site_occupancy
  Mn  Mn1       1.0  0.49511  0.00937  0.98477  1.0000
  H   H1        1.0  0.75415  0.32386  0.38056  1.0000
  H   H2        1.0  0.25212  0.66262  0.62813  1.0000
  H   H3        1.0  0.36645  0.32712  0.34186  1.0000
  H   H4        1.0  0.64375  0.65867  0.65969  1.0000
  H   H5        1.0  0.02064  0.17189  0.60371  1.0000
  H   H6        1.0  0.98381  0.82305  0.39862  1.0000
  H   H7        1.0  0.10057  0.03413  0.86887  1.0000
  H   H8        1.0  0.89210  0.97199  0.13589  1.0000
  C   C1        1.0  0.59853  0.26058  0.48466  1.0000
  C   C2        1.0  0.40527  0.72891  0.52274  1.0000
  C   C3        1.0  0.38413  0.26208  0.46353  1.0000
  C   C4        1.0  0.62262  0.72781  0.53966  1.0000
  C   C5        1.0  0.19695  0.17783  0.60448  1.0000
  C   C6        1.0  0.80675  0.81700  0.39919  1.0000
  C   C7        1.0  0.23825  0.10135  0.75397  1.0000
  C   C8        1.0  0.75834  0.89887  0.25196  1.0000
  C   C9        1.0  0.80539  0.38601  0.89013  1.0000
  C   C10       1.0  0.19158  0.62308  0.10370  1.0000
  C   C11       1.0  0.80659  0.70027  0.88196  1.0000
  C   C12       1.0  0.19028  0.30990  0.11019  1.0000
  N   N1        1.0  0.45141  0.10687  0.76620  1.0000
  N   N2        1.0  0.54580  0.89203  0.24414  1.0000
  N   N3        1.0  0.63322  0.18543  0.63048  1.0000
  N   N4        1.0  0.36761  0.80867  0.37833  1.0000
  N   N5        1.0  0.71859  0.22637  0.93006  1.0000
  N   N6        1.0  0.27491  0.78492  0.05645  1.0000
  N   N7        1.0  0.91399  0.55810  0.83937  1.0000
  N   N8        1.0  0.08820  0.44811  0.16302  1.0000
  N   N9        1.0  0.71984  0.83649  0.91216  1.0000
  N   N10       1.0  0.27303  0.17660  0.07150  1.0000
