data_image0
_chemical_formula_structural       Cu4H40C48N12Cl4O4
_chemical_formula_sum              "Cu4 H40 C48 N12 Cl4 O4"
_cell_length_a       7.33229
_cell_length_b       12.0089
_cell_length_c       15.3312
_cell_angle_alpha    90.0012
_cell_angle_beta     89.9992
_cell_angle_gamma    105.325

_space_group_name_H-M_alt    "P 1"
_space_group_IT_number       1

loop_
  _space_group_symop_operation_xyz
  'x, y, z'

loop_
  _atom_site_type_symbol
  _atom_site_label
  _atom_site_symmetry_multiplicity
  _atom_site_fract_x
  _atom_site_fract_y
  _atom_site_fract_z
  _atom_site_occupancy
  Cu  Cu1       1.0  0.58416  0.45031  0.33834  1.0000
  Cu  Cu2       1.0  0.08418  0.45032  0.16167  1.0000
  Cu  Cu3       1.0  0.41583  0.54969  0.66167  1.0000
  Cu  Cu4       1.0  0.91583  0.54968  0.83833  1.0000
  H   H1        1.0  0.38224  0.23559  0.22795  1.0000
  H   H2        1.0  0.88225  0.23561  0.27205  1.0000
  H   H3        1.0  0.61775  0.76441  0.77205  1.0000
  H   H4        1.0  0.11777  0.76439  0.72794  1.0000
  H   H5        1.0  0.35380  0.02221  0.24121  1.0000
  H   H6        1.0  0.85378  0.02223  0.25880  1.0000
  H   H7        1.0  0.64622  0.97778  0.75879  1.0000
  H   H8        1.0  0.14623  0.97777  0.74120  1.0000
  H   H9        1.0  0.50667  0.95361  0.37099  1.0000
  H   H10       1.0  0.00666  0.95362  0.12902  1.0000
  H   H11       1.0  0.49333  0.04639  0.62902  1.0000
  H   H12       1.0  0.99334  0.04638  0.87097  1.0000
  H   H13       1.0  0.67037  0.09736  0.48227  1.0000
  H   H14       1.0  0.17035  0.09736  0.01774  1.0000
  H   H15       1.0  0.32962  0.90264  0.51774  1.0000
  H   H16       1.0  0.82961  0.90265  0.98225  1.0000
  H   H17       1.0  0.76056  0.30614  0.52550  1.0000
  H   H18       1.0  0.26057  0.30614  0.97451  1.0000
  H   H19       1.0  0.23942  0.69386  0.47451  1.0000
  H   H20       1.0  0.73941  0.69386  0.02548  1.0000
  H   H21       1.0  0.82361  0.49438  0.57179  1.0000
  H   H22       1.0  0.32360  0.49438  0.92822  1.0000
  H   H23       1.0  0.17639  0.50561  0.42822  1.0000
  H   H24       1.0  0.67640  0.50562  0.07178  1.0000
  H   H25       1.0  0.91581  0.68043  0.61808  1.0000
  H   H26       1.0  0.41576  0.68042  0.88191  1.0000
  H   H27       1.0  0.08420  0.31957  0.38193  1.0000
  H   H28       1.0  0.58421  0.31957  0.11808  1.0000
  H   H29       1.0  0.94960  0.89176  0.60323  1.0000
  H   H30       1.0  0.44955  0.89175  0.89676  1.0000
  H   H31       1.0  0.05041  0.10824  0.39678  1.0000
  H   H32       1.0  0.55042  0.10824  0.10322  1.0000
  H   H33       1.0  0.83606  0.96633  0.46694  1.0000
  H   H34       1.0  0.33605  0.96633  0.03306  1.0000
  H   H35       1.0  0.16393  0.03366  0.53308  1.0000
  H   H36       1.0  0.66395  0.03367  0.96692  1.0000
  H   H37       1.0  0.68237  0.82935  0.34949  1.0000
  H   H38       1.0  0.18238  0.82936  0.15053  1.0000
  H   H39       1.0  0.31762  0.17065  0.65054  1.0000
  H   H40       1.0  0.81764  0.17065  0.84947  1.0000
  C   C1        1.0  0.44264  0.19937  0.28257  1.0000
  C   C2        1.0  0.94264  0.19938  0.21744  1.0000
  C   C3        1.0  0.55736  0.80063  0.71744  1.0000
  C   C4        1.0  0.05736  0.80062  0.78256  1.0000
  C   C5        1.0  0.42864  0.08242  0.29045  1.0000
  C   C6        1.0  0.92862  0.08244  0.20956  1.0000
  C   C7        1.0  0.57138  0.91757  0.70956  1.0000
  C   C8        1.0  0.07138  0.91756  0.79044  1.0000
  C   C9        1.0  0.51303  0.04476  0.36295  1.0000
  C   C10       1.0  0.01301  0.04476  0.13706  1.0000
  C   C11       1.0  0.48698  0.95524  0.63706  1.0000
  C   C12       1.0  0.98698  0.95524  0.86293  1.0000
  C   C13       1.0  0.60421  0.12367  0.42506  1.0000
  C   C14       1.0  0.10420  0.12367  0.07495  1.0000
  C   C15       1.0  0.39578  0.87633  0.57495  1.0000
  C   C16       1.0  0.89579  0.87634  0.92504  1.0000
  C   C17       1.0  0.60848  0.24060  0.41328  1.0000
  C   C18       1.0  0.10848  0.24060  0.08672  1.0000
  C   C19       1.0  0.39152  0.75940  0.58673  1.0000
  C   C20       1.0  0.89151  0.75940  0.91327  1.0000
  C   C21       1.0  0.76469  0.51633  0.51007  1.0000
  C   C22       1.0  0.26469  0.51633  0.98993  1.0000
  C   C23       1.0  0.23531  0.48366  0.48993  1.0000
  C   C24       1.0  0.73531  0.48367  0.01007  1.0000
  C   C25       1.0  0.77930  0.63584  0.49410  1.0000
  C   C26       1.0  0.27930  0.63584  0.00589  1.0000
  C   C27       1.0  0.22071  0.36416  0.50590  1.0000
  C   C28       1.0  0.72071  0.36417  0.99410  1.0000
  C   C29       1.0  0.86692  0.71550  0.55946  1.0000
  C   C30       1.0  0.36689  0.71549  0.94053  1.0000
  C   C31       1.0  0.13310  0.28451  0.44055  1.0000
  C   C32       1.0  0.63310  0.28452  0.05945  1.0000
  C   C33       1.0  0.88728  0.83277  0.55080  1.0000
  C   C34       1.0  0.38726  0.83277  0.94919  1.0000
  C   C35       1.0  0.11272  0.16723  0.44920  1.0000
  C   C36       1.0  0.61273  0.16723  0.05080  1.0000
  C   C37       1.0  0.82027  0.87405  0.47452  1.0000
  C   C38       1.0  0.32026  0.87405  0.02547  1.0000
  C   C39       1.0  0.17972  0.12595  0.52549  1.0000
  C   C40       1.0  0.67973  0.12595  0.97451  1.0000
  C   C41       1.0  0.73458  0.79900  0.40916  1.0000
  C   C42       1.0  0.23460  0.79901  0.09084  1.0000
  C   C43       1.0  0.26541  0.20100  0.59086  1.0000
  C   C44       1.0  0.76541  0.20099  0.90915  1.0000
  C   C45       1.0  0.70657  0.67732  0.41674  1.0000
  C   C46       1.0  0.20659  0.67732  0.08326  1.0000
  C   C47       1.0  0.29343  0.32269  0.58327  1.0000
  C   C48       1.0  0.79342  0.32269  0.91673  1.0000
  N   N1        1.0  0.53222  0.27735  0.34199  1.0000
  N   N2        1.0  0.03222  0.27736  0.15801  1.0000
  N   N3        1.0  0.46779  0.72265  0.65802  1.0000
  N   N4        1.0  0.96778  0.72263  0.84198  1.0000
  N   N5        1.0  0.68743  0.32350  0.47306  1.0000
  N   N6        1.0  0.18743  0.32350  0.02695  1.0000
  N   N7        1.0  0.31257  0.67650  0.52695  1.0000
  N   N8        1.0  0.81256  0.67649  0.97305  1.0000
  N   N9        1.0  0.68876  0.43472  0.45488  1.0000
  N   N10       1.0  0.18877  0.43473  0.04512  1.0000
  N   N11       1.0  0.31124  0.56528  0.54512  1.0000
  N   N12       1.0  0.81124  0.56528  0.95487  1.0000
  Cl  Cl1       1.0  0.45048  0.46092  0.20777  1.0000
  Cl  Cl2       1.0  0.95048  0.46093  0.29224  1.0000
  Cl  Cl3       1.0  0.54954  0.53908  0.79223  1.0000
  Cl  Cl4       1.0  0.04953  0.53907  0.70776  1.0000
  O   O1        1.0  0.61379  0.61284  0.35447  1.0000
  O   O2        1.0  0.11383  0.61285  0.14555  1.0000
  O   O3        1.0  0.38621  0.38716  0.64554  1.0000
  O   O4        1.0  0.88620  0.38715  0.85445  1.0000
