data_image0
_chemical_formula_structural       Cu2H8C36N4O8F20
_chemical_formula_sum              "Cu2 H8 C36 N4 O8 F20"
_cell_length_a       4.77367
_cell_length_b       12.8588
_cell_length_c       15.3924
_cell_angle_alpha    90.816
_cell_angle_beta     90.8423
_cell_angle_gamma    87.5898

_space_group_name_H-M_alt    "P 1"
_space_group_IT_number       1

loop_
  _space_group_symop_operation_xyz
  'x, y, z'

loop_
  _atom_site_type_symbol
  _atom_site_label
  _atom_site_symmetry_multiplicity
  _atom_site_fract_x
  _atom_site_fract_y
  _atom_site_fract_z
  _atom_site_occupancy
  Cu  Cu1       1.0  0.76391  0.24958  0.48042  1.0000
  Cu  Cu2       1.0  0.23609  0.75043  0.51958  1.0000
  H   H1        1.0  0.21581  0.13985  0.58205  1.0000
  H   H2        1.0  0.78418  0.86015  0.41796  1.0000
  H   H3        1.0  0.63215  0.04905  0.39541  1.0000
  H   H4        1.0  0.36784  0.95095  0.60459  1.0000
  H   H5        1.0  0.87790  0.45637  0.40000  1.0000
  H   H6        1.0  0.12212  0.54363  0.59999  1.0000
  H   H7        1.0  0.30310  0.35914  0.58029  1.0000
  H   H8        1.0  0.69691  0.64085  0.41970  1.0000
  C   C1        1.0  0.20732  0.25262  0.35660  1.0000
  C   C2        1.0  0.79269  0.74738  0.64340  1.0000
  C   C3        1.0  0.75567  0.25334  0.66141  1.0000
  C   C4        1.0  0.24430  0.74665  0.33859  1.0000
  C   C5        1.0  0.32105  0.27865  0.26889  1.0000
  C   C6        1.0  0.67894  0.72135  0.73111  1.0000
  C   C7        1.0  0.51708  0.21126  0.22742  1.0000
  C   C8        1.0  0.48294  0.78875  0.77258  1.0000
  C   C9        1.0  0.64004  0.23583  0.14935  1.0000
  C   C10       1.0  0.35997  0.76418  0.85065  1.0000
  C   C11       1.0  0.56627  0.33008  0.10964  1.0000
  C   C12       1.0  0.43372  0.66993  0.89036  1.0000
  C   C13       1.0  0.36823  0.39839  0.14792  1.0000
  C   C14       1.0  0.63175  0.60161  0.85207  1.0000
  C   C15       1.0  0.24998  0.37230  0.22664  1.0000
  C   C16       1.0  0.74999  0.62770  0.77336  1.0000
  C   C17       1.0  0.63089  0.22938  0.74829  1.0000
  C   C18       1.0  0.36910  0.77062  0.25171  1.0000
  C   C19       1.0  0.67362  0.13188  0.78559  1.0000
  C   C20       1.0  0.32638  0.86812  0.21441  1.0000
  C   C21       1.0  0.55285  0.10773  0.86430  1.0000
  C   C22       1.0  0.44714  0.89227  0.13570  1.0000
  C   C23       1.0  0.38117  0.18311  0.90588  1.0000
  C   C24       1.0  0.61883  0.81689  0.09412  1.0000
  C   C25       1.0  0.33497  0.28148  0.86968  1.0000
  C   C26       1.0  0.66505  0.71851  0.13033  1.0000
  C   C27       1.0  0.46201  0.30365  0.79162  1.0000
  C   C28       1.0  0.53799  0.69634  0.20839  1.0000
  C   C29       1.0  0.11751  0.07728  0.54601  1.0000
  C   C30       1.0  0.88249  0.92272  0.45399  1.0000
  C   C31       1.0  0.79687  0.02627  0.44178  1.0000
  C   C32       1.0  0.20313  0.97373  0.55822  1.0000
  C   C33       1.0  0.71128  0.47621  0.44554  1.0000
  C   C34       1.0  0.28874  0.52378  0.55446  1.0000
  C   C35       1.0  0.39358  0.42170  0.54448  1.0000
  C   C36       1.0  0.60644  0.57830  0.45551  1.0000
  N   N1        1.0  0.91529  0.10252  0.48772  1.0000
  N   N2        1.0  0.08471  0.89748  0.51228  1.0000
  N   N3        1.0  0.60609  0.39823  0.49023  1.0000
  N   N4        1.0  0.39392  0.60177  0.50977  1.0000
  O   O1        1.0  0.95089  0.28318  0.37012  1.0000
  O   O2        1.0  0.04913  0.71683  0.62989  1.0000
  O   O3        1.0  0.60637  0.22024  0.59660  1.0000
  O   O4        1.0  0.39364  0.77975  0.40341  1.0000
  O   O5        1.0  0.36381  0.20477  0.41002  1.0000
  O   O6        1.0  0.63621  0.79523  0.58998  1.0000
  O   O7        1.0  0.97630  0.30030  0.65710  1.0000
  O   O8        1.0  0.02369  0.69970  0.34290  1.0000
  F   F1        1.0  0.59235  0.11765  0.26128  1.0000
  F   F2        1.0  0.40768  0.88236  0.73872  1.0000
  F   F3        1.0  0.82848  0.16926  0.11181  1.0000
  F   F4        1.0  0.17156  0.83076  0.88819  1.0000
  F   F5        1.0  0.68547  0.35454  0.03457  1.0000
  F   F6        1.0  0.31454  0.64546  0.96544  1.0000
  F   F7        1.0  0.06848  0.44366  0.26256  1.0000
  F   F8        1.0  0.93148  0.55634  0.73743  1.0000
  F   F9        1.0  0.83727  0.05788  0.74462  1.0000
  F   F10       1.0  0.16273  0.94212  0.25538  1.0000
  F   F11       1.0  0.60066  0.01373  0.90028  1.0000
  F   F12       1.0  0.39934  0.98626  0.09972  1.0000
  F   F13       1.0  0.26199  0.16150  0.98194  1.0000
  F   F14       1.0  0.73800  0.83849  0.01807  1.0000
  F   F15       1.0  0.16997  0.35341  0.91074  1.0000
  F   F16       1.0  0.83006  0.64659  0.08927  1.0000
  F   F17       1.0  0.41785  0.39912  0.75716  1.0000
  F   F18       1.0  0.58213  0.60087  0.24284  1.0000
  F   F19       1.0  0.29390  0.48843  0.10895  1.0000
  F   F20       1.0  0.70604  0.51156  0.89104  1.0000
