data_image0
_chemical_formula_structural       Mn2H28C36N4O8
_chemical_formula_sum              "Mn2 H28 C36 N4 O8"
_cell_length_a       8.72141
_cell_length_b       9.54658
_cell_length_c       10.2831
_cell_angle_alpha    75.6469
_cell_angle_beta     73.2455
_cell_angle_gamma    89.491

_space_group_name_H-M_alt    "P 1"
_space_group_IT_number       1

loop_
  _space_group_symop_operation_xyz
  'x, y, z'

loop_
  _atom_site_type_symbol
  _atom_site_label
  _atom_site_symmetry_multiplicity
  _atom_site_fract_x
  _atom_site_fract_y
  _atom_site_fract_z
  _atom_site_occupancy
  Mn  Mn1       1.0  0.45710  0.86204  0.86161  1.0000
  Mn  Mn2       1.0  0.54289  0.13796  0.13839  1.0000
  H   H1        1.0  0.30938  0.46986  0.69068  1.0000
  H   H2        1.0  0.69063  0.53014  0.30932  1.0000
  H   H3        1.0  0.24767  0.37463  0.50490  1.0000
  H   H4        1.0  0.75232  0.62538  0.49510  1.0000
  H   H5        1.0  0.28422  0.53878  0.26654  1.0000
  H   H6        1.0  0.71578  0.46122  0.73346  1.0000
  H   H7        1.0  0.43476  0.89189  0.40351  1.0000
  H   H8        1.0  0.56525  0.10811  0.59649  1.0000
  H   H9        1.0  0.26808  0.98596  0.63590  1.0000
  H   H10       1.0  0.73192  0.01404  0.36410  1.0000
  H   H11       1.0  0.04699  0.14844  0.60734  1.0000
  H   H12       1.0  0.95301  0.85156  0.39266  1.0000
  H   H13       1.0  0.92621  0.27846  0.79404  1.0000
  H   H14       1.0  0.07380  0.72154  0.20596  1.0000
  H   H15       1.0  0.03136  0.23693  0.00275  1.0000
  H   H16       1.0  0.96864  0.76306  0.99725  1.0000
  H   H17       1.0  0.24854  0.06569  0.01805  1.0000
  H   H18       1.0  0.75145  0.93431  0.98195  1.0000
  H   H19       1.0  0.58599  0.57921  0.03361  1.0000
  H   H20       1.0  0.41401  0.42079  0.96639  1.0000
  H   H21       1.0  0.82770  0.43825  0.00768  1.0000
  H   H22       1.0  0.17230  0.56175  0.99232  1.0000
  H   H23       1.0  0.07066  0.53225  0.79474  1.0000
  H   H24       1.0  0.92934  0.46774  0.20525  1.0000
  H   H25       1.0  0.05207  0.75886  0.61818  1.0000
  H   H26       1.0  0.94793  0.24114  0.38182  1.0000
  H   H27       1.0  0.79344  0.88559  0.66007  1.0000
  H   H28       1.0  0.20656  0.11440  0.33993  1.0000
  C   C1        1.0  0.41361  0.74641  0.66714  1.0000
  C   C2        1.0  0.58640  0.25359  0.33286  1.0000
  C   C3        1.0  0.37545  0.68669  0.55782  1.0000
  C   C4        1.0  0.62456  0.31331  0.44218  1.0000
  C   C5        1.0  0.32048  0.54134  0.58717  1.0000
  C   C6        1.0  0.67952  0.45867  0.41283  1.0000
  C   C7        1.0  0.28691  0.48829  0.48295  1.0000
  C   C8        1.0  0.71309  0.51171  0.51705  1.0000
  C   C9        1.0  0.30761  0.57955  0.34937  1.0000
  C   C10       1.0  0.69239  0.42046  0.65063  1.0000
  C   C11       1.0  0.35937  0.72596  0.31975  1.0000
  C   C12       1.0  0.64063  0.27404  0.68025  1.0000
  C   C13       1.0  0.37632  0.82543  0.17801  1.0000
  C   C14       1.0  0.62368  0.17459  0.82200  1.0000
  C   C15       1.0  0.39349  0.77880  0.42453  1.0000
  C   C16       1.0  0.60651  0.22121  0.57547  1.0000
  C   C17       1.0  0.20930  0.04061  0.71651  1.0000
  C   C18       1.0  0.79070  0.95940  0.28349  1.0000
  C   C19       1.0  0.08811  0.13320  0.70014  1.0000
  C   C20       1.0  0.91189  0.86680  0.29986  1.0000
  C   C21       1.0  0.02199  0.20610  0.80314  1.0000
  C   C22       1.0  0.97802  0.79390  0.19686  1.0000
  C   C23       1.0  0.08010  0.18344  0.91906  1.0000
  C   C24       1.0  0.91990  0.81656  0.08095  1.0000
  C   C25       1.0  0.20048  0.08801  0.92858  1.0000
  C   C26       1.0  0.79952  0.91199  0.07142  1.0000
  C   C27       1.0  0.69120  0.61469  0.94228  1.0000
  C   C28       1.0  0.30880  0.38531  0.05772  1.0000
  C   C29       1.0  0.82835  0.53677  0.92709  1.0000
  C   C30       1.0  0.17165  0.46323  0.07291  1.0000
  C   C31       1.0  0.96039  0.58857  0.80965  1.0000
  C   C32       1.0  0.03961  0.41143  0.19036  1.0000
  C   C33       1.0  0.95047  0.71566  0.71088  1.0000
  C   C34       1.0  0.04953  0.28433  0.28912  1.0000
  C   C35       1.0  0.80863  0.78618  0.73351  1.0000
  C   C36       1.0  0.19137  0.21382  0.26649  1.0000
  N   N1        1.0  0.26417  0.01686  0.82947  1.0000
  N   N2        1.0  0.73583  0.98314  0.17053  1.0000
  N   N3        1.0  0.68093  0.73697  0.84726  1.0000
  N   N4        1.0  0.31907  0.26303  0.15275  1.0000
  O   O1        1.0  0.34486  0.68637  0.79722  1.0000
  O   O2        1.0  0.65515  0.31362  0.20278  1.0000
  O   O3        1.0  0.51012  0.85876  0.62835  1.0000
  O   O4        1.0  0.48989  0.14125  0.37165  1.0000
  O   O5        1.0  0.38605  0.96168  0.16416  1.0000
  O   O6        1.0  0.61395  0.03831  0.83584  1.0000
  O   O7        1.0  0.37531  0.76793  0.07828  1.0000
  O   O8        1.0  0.62468  0.23206  0.92172  1.0000
