data_image0
_chemical_formula_structural       Cs2P2H48C26O4
_chemical_formula_sum              "Cs2 P2 H48 C26 O4"
_cell_length_a       5.84129
_cell_length_b       9.27585
_cell_length_c       14.3998
_cell_angle_alpha    82.8344
_cell_angle_beta     82.6621
_cell_angle_gamma    77.5819

_space_group_name_H-M_alt    "P 1"
_space_group_IT_number       1

loop_
  _space_group_symop_operation_xyz
  'x, y, z'

loop_
  _atom_site_type_symbol
  _atom_site_label
  _atom_site_symmetry_multiplicity
  _atom_site_fract_x
  _atom_site_fract_y
  _atom_site_fract_z
  _atom_site_occupancy
  Cs  Cs1       1.0  0.18698  0.16980  0.03313  1.0000
  Cs  Cs2       1.0  0.81298  0.83020  0.96687  1.0000
  P   P1        1.0  0.46059  0.87149  0.20022  1.0000
  P   P2        1.0  0.53941  0.12851  0.79978  1.0000
  H   H1        1.0  0.44496  0.30229  0.36383  1.0000
  H   H2        1.0  0.55505  0.69771  0.63617  1.0000
  H   H3        1.0  0.34925  0.13239  0.36768  1.0000
  H   H4        1.0  0.65076  0.86760  0.63232  1.0000
  H   H5        1.0  0.39486  0.23858  0.25833  1.0000
  H   H6        1.0  0.60515  0.76142  0.74167  1.0000
  H   H7        1.0  0.80239  0.18576  0.44579  1.0000
  H   H8        1.0  0.19763  0.81424  0.55420  1.0000
  H   H9        1.0  0.99822  0.02566  0.40630  1.0000
  H   H10       1.0  0.00179  0.97434  0.59369  1.0000
  H   H11       1.0  0.71088  0.01294  0.45977  1.0000
  H   H12       1.0  0.28914  0.98705  0.54022  1.0000
  H   H13       1.0  0.67290  0.48961  0.40390  1.0000
  H   H14       1.0  0.32713  0.51039  0.59611  1.0000
  H   H15       1.0  0.47896  0.59004  0.32152  1.0000
  H   H16       1.0  0.52105  0.40996  0.67849  1.0000
  H   H17       1.0  0.45798  0.64697  0.43612  1.0000
  H   H18       1.0  0.54204  0.35304  0.56388  1.0000
  H   H19       1.0  0.03480  0.52514  0.28959  1.0000
  H   H20       1.0  0.96521  0.47486  0.71041  1.0000
  H   H21       1.0  0.05887  0.70426  0.23473  1.0000
  H   H22       1.0  0.94114  0.29574  0.76527  1.0000
  H   H23       1.0  0.83907  0.61598  0.20530  1.0000
  H   H24       1.0  0.16094  0.38402  0.79470  1.0000
  H   H25       1.0  0.99251  0.59954  0.44932  1.0000
  H   H26       1.0  0.00750  0.40047  0.55068  1.0000
  H   H27       1.0  0.78582  0.75928  0.48369  1.0000
  H   H28       1.0  0.21419  0.24073  0.51631  1.0000
  H   H29       1.0  0.03440  0.77858  0.40132  1.0000
  H   H30       1.0  0.96560  0.22143  0.59868  1.0000
  H   H31       1.0  0.94636  0.93455  0.25451  1.0000
  H   H32       1.0  0.05366  0.06546  0.74549  1.0000
  H   H33       1.0  0.49141  0.89523  0.37038  1.0000
  H   H34       1.0  0.50861  0.10478  0.62962  1.0000
  H   H35       1.0  0.13374  0.56708  0.09551  1.0000
  H   H36       1.0  0.86620  0.43294  0.90450  1.0000
  H   H37       1.0  0.48914  0.37088  0.11932  1.0000
  H   H38       1.0  0.51082  0.62913  0.88068  1.0000
  H   H39       1.0  0.31375  0.69112  0.03450  1.0000
  H   H40       1.0  0.68623  0.30888  0.96551  1.0000
  H   H41       1.0  0.52662  0.53905  0.15985  1.0000
  H   H42       1.0  0.47334  0.46094  0.84017  1.0000
  H   H43       1.0  0.05504  0.16845  0.24744  1.0000
  H   H44       1.0  0.94497  0.83155  0.75255  1.0000
  H   H45       1.0  0.80617  0.26196  0.18760  1.0000
  H   H46       1.0  0.19383  0.73805  0.81240  1.0000
  H   H47       1.0  0.86098  0.32515  0.29268  1.0000
  H   H48       1.0  0.13903  0.67485  0.70732  1.0000
  C   C1        1.0  0.65012  0.99882  0.17007  1.0000
  C   C2        1.0  0.34988  0.00118  0.82992  1.0000
  C   C3        1.0  0.75414  0.97940  0.26441  1.0000
  C   C4        1.0  0.24587  0.02059  0.73558  1.0000
  C   C5        1.0  0.61666  0.85721  0.31016  1.0000
  C   C6        1.0  0.38335  0.14279  0.68984  1.0000
  C   C7        1.0  0.72157  0.12223  0.31535  1.0000
  C   C8        1.0  0.27844  0.87776  0.68465  1.0000
  C   C9        1.0  0.46314  0.20291  0.32689  1.0000
  C   C10       1.0  0.53688  0.79708  0.67311  1.0000
  C   C11       1.0  0.86951  0.22611  0.25685  1.0000
  C   C12       1.0  0.13050  0.77390  0.74315  1.0000
  C   C13       1.0  0.81292  0.08379  0.41240  1.0000
  C   C14       1.0  0.18710  0.91621  0.58760  1.0000
  C   C15       1.0  0.75901  0.70189  0.34279  1.0000
  C   C16       1.0  0.24101  0.29812  0.65721  1.0000
  C   C17       1.0  0.58237  0.60122  0.37800  1.0000
  C   C18       1.0  0.41764  0.39878  0.62200  1.0000
  C   C19       1.0  0.93261  0.63321  0.26324  1.0000
  C   C20       1.0  0.06740  0.36678  0.73676  1.0000
  C   C21       1.0  0.90043  0.71115  0.42403  1.0000
  C   C22       1.0  0.09958  0.28885  0.57597  1.0000
  C   C23       1.0  0.29737  0.57369  0.04992  1.0000
  C   C24       1.0  0.70259  0.42632  0.95009  1.0000
  C   C25       1.0  0.50812  0.48657  0.09771  1.0000
  C   C26       1.0  0.49183  0.51343  0.90230  1.0000
  O   O1        1.0  0.69865  0.08198  0.09556  1.0000
  O   O2        1.0  0.30132  0.91802  0.90445  1.0000
  O   O3        1.0  0.27763  0.51417  0.96415  1.0000
  O   O4        1.0  0.72232  0.48584  0.03586  1.0000
