data_image0
_chemical_formula_structural       Na4H44C24N8O24
_chemical_formula_sum              "Na4 H44 C24 N8 O24"
_cell_length_a       6.18161
_cell_length_b       10.6849
_cell_length_c       13.9785
_cell_angle_alpha    89.9994
_cell_angle_beta     94.6609
_cell_angle_gamma    89.9997

_space_group_name_H-M_alt    "P 1"
_space_group_IT_number       1

loop_
  _space_group_symop_operation_xyz
  'x, y, z'

loop_
  _atom_site_type_symbol
  _atom_site_label
  _atom_site_symmetry_multiplicity
  _atom_site_fract_x
  _atom_site_fract_y
  _atom_site_fract_z
  _atom_site_occupancy
  Na  Na1       1.0  0.95929  0.73190  0.01551  1.0000
  Na  Na2       1.0  0.54072  0.23190  0.98449  1.0000
  Na  Na3       1.0  0.04072  0.26810  0.98449  1.0000
  Na  Na4       1.0  0.45928  0.76810  0.01551  1.0000
  H   H1        1.0  0.22823  0.75853  0.19320  1.0000
  H   H2        1.0  0.27177  0.25854  0.80679  1.0000
  H   H3        1.0  0.77178  0.24147  0.80680  1.0000
  H   H4        1.0  0.72824  0.74146  0.19320  1.0000
  H   H5        1.0  0.17174  0.89706  0.15924  1.0000
  H   H6        1.0  0.32826  0.39707  0.84075  1.0000
  H   H7        1.0  0.82827  0.10294  0.84075  1.0000
  H   H8        1.0  0.67175  0.60293  0.15924  1.0000
  H   H9        1.0  0.28602  0.57249  0.92181  1.0000
  H   H10       1.0  0.21399  0.07249  0.07819  1.0000
  H   H11       1.0  0.71399  0.42751  0.07819  1.0000
  H   H12       1.0  0.78601  0.92751  0.92181  1.0000
  H   H13       1.0  0.25684  0.50588  0.01994  1.0000
  H   H14       1.0  0.24317  0.00588  0.98006  1.0000
  H   H15       1.0  0.74317  0.49412  0.98006  1.0000
  H   H16       1.0  0.75683  0.99412  0.01994  1.0000
  H   H17       1.0  0.02336  0.78904  0.58075  1.0000
  H   H18       1.0  0.47663  0.28903  0.41925  1.0000
  H   H19       1.0  0.97661  0.21095  0.41925  1.0000
  H   H20       1.0  0.52338  0.71097  0.58075  1.0000
  H   H21       1.0  0.90628  0.22099  0.65755  1.0000
  H   H22       1.0  0.59372  0.72098  0.34244  1.0000
  H   H23       1.0  0.09372  0.77901  0.34245  1.0000
  H   H24       1.0  0.40629  0.27902  0.65755  1.0000
  H   H25       1.0  0.26755  0.77775  0.73667  1.0000
  H   H26       1.0  0.23246  0.27775  0.26333  1.0000
  H   H27       1.0  0.73244  0.22225  0.26333  1.0000
  H   H28       1.0  0.76755  0.72225  0.73668  1.0000
  H   H29       1.0  0.41074  0.91381  0.77365  1.0000
  H   H30       1.0  0.08926  0.41380  0.22634  1.0000
  H   H31       1.0  0.58925  0.08619  0.22634  1.0000
  H   H32       1.0  0.91075  0.58619  0.77366  1.0000
  H   H33       1.0  0.30742  0.94046  0.60841  1.0000
  H   H34       1.0  0.19256  0.44046  0.39159  1.0000
  H   H35       1.0  0.69256  0.05953  0.39159  1.0000
  H   H36       1.0  0.80745  0.55954  0.60841  1.0000
  H   H37       1.0  0.64756  0.09834  0.55358  1.0000
  H   H38       1.0  0.85242  0.59833  0.44643  1.0000
  H   H39       1.0  0.35241  0.90165  0.44643  1.0000
  H   H40       1.0  0.14760  0.40167  0.55357  1.0000
  H   H41       1.0  0.63615  0.05380  0.67450  1.0000
  H   H42       1.0  0.86385  0.55378  0.32551  1.0000
  H   H43       1.0  0.36384  0.94620  0.32551  1.0000
  H   H44       1.0  0.13615  0.44622  0.67448  1.0000
  C   C1        1.0  0.10320  0.89563  0.83123  1.0000
  C   C2        1.0  0.39680  0.39562  0.16877  1.0000
  C   C3        1.0  0.89679  0.10438  0.16877  1.0000
  C   C4        1.0  0.60320  0.60437  0.83123  1.0000
  C   C5        1.0  0.24853  0.87877  0.74905  1.0000
  C   C6        1.0  0.25148  0.37877  0.25095  1.0000
  C   C7        1.0  0.75146  0.12122  0.25095  1.0000
  C   C8        1.0  0.74853  0.62123  0.74905  1.0000
  C   C9        1.0  0.17041  0.94355  0.65434  1.0000
  C   C10       1.0  0.32958  0.44354  0.34566  1.0000
  C   C11       1.0  0.82957  0.05645  0.34566  1.0000
  C   C12       1.0  0.67042  0.55646  0.65435  1.0000
  C   C13       1.0  0.12818  0.08096  0.67104  1.0000
  C   C14       1.0  0.37184  0.58094  0.32897  1.0000
  C   C15       1.0  0.87183  0.91905  0.32896  1.0000
  C   C16       1.0  0.62818  0.41906  0.67104  1.0000
  C   C17       1.0  0.74256  0.05503  0.61483  1.0000
  C   C18       1.0  0.75744  0.55502  0.38518  1.0000
  C   C19       1.0  0.25743  0.94497  0.38518  1.0000
  C   C20       1.0  0.24258  0.44498  0.61482  1.0000
  C   C21       1.0  0.78641  0.92174  0.58804  1.0000
  C   C22       1.0  0.71357  0.42174  0.41196  1.0000
  C   C23       1.0  0.21358  0.07826  0.41196  1.0000
  C   C24       1.0  0.28645  0.57826  0.58804  1.0000
  N   N1        1.0  0.98866  0.87863  0.60335  1.0000
  N   N2        1.0  0.51134  0.37862  0.39666  1.0000
  N   N3        1.0  0.01133  0.12137  0.39665  1.0000
  N   N4        1.0  0.48867  0.62138  0.60335  1.0000
  N   N5        1.0  0.93545  0.12860  0.64130  1.0000
  N   N6        1.0  0.56453  0.62859  0.35870  1.0000
  N   N7        1.0  0.06453  0.87139  0.35870  1.0000
  N   N8        1.0  0.43547  0.37141  0.64130  1.0000
  O   O1        1.0  0.18051  0.85900  0.91340  1.0000
  O   O2        1.0  0.31951  0.35900  0.08660  1.0000
  O   O3        1.0  0.81950  0.14101  0.08660  1.0000
  O   O4        1.0  0.68050  0.64100  0.91340  1.0000
  O   O5        1.0  0.91570  0.94460  0.81364  1.0000
  O   O6        1.0  0.58430  0.44460  0.18636  1.0000
  O   O7        1.0  0.08429  0.05540  0.18636  1.0000
  O   O8        1.0  0.41571  0.55540  0.81364  1.0000
  O   O9        1.0  0.28119  0.14590  0.71005  1.0000
  O   O10       1.0  0.21878  0.64591  0.28994  1.0000
  O   O11       1.0  0.71879  0.85409  0.28994  1.0000
  O   O12       1.0  0.78121  0.35410  0.71007  1.0000
  O   O13       1.0  0.63225  0.85663  0.55062  1.0000
  O   O14       1.0  0.86776  0.35661  0.44939  1.0000
  O   O15       1.0  0.36773  0.14337  0.44939  1.0000
  O   O16       1.0  0.13225  0.64339  0.55060  1.0000
  O   O17       1.0  0.21718  0.81438  0.13681  1.0000
  O   O18       1.0  0.28282  0.31439  0.86319  1.0000
  O   O19       1.0  0.78283  0.18562  0.86319  1.0000
  O   O20       1.0  0.71718  0.68561  0.13681  1.0000
  O   O21       1.0  0.22528  0.58466  0.98495  1.0000
  O   O22       1.0  0.27473  0.08466  0.01505  1.0000
  O   O23       1.0  0.77473  0.41534  0.01505  1.0000
  O   O24       1.0  0.72528  0.91534  0.98495  1.0000
