data_image0
_chemical_formula_structural       Zn2H36C44N24O12
_chemical_formula_sum              "Zn2 H36 C44 N24 O12"
_cell_length_a       9.40582
_cell_length_b       10.9981
_cell_length_c       11.4795
_cell_angle_alpha    90
_cell_angle_beta     95.2649
_cell_angle_gamma    89.9999

_space_group_name_H-M_alt    "P 1"
_space_group_IT_number       1

loop_
  _space_group_symop_operation_xyz
  'x, y, z'

loop_
  _atom_site_type_symbol
  _atom_site_label
  _atom_site_symmetry_multiplicity
  _atom_site_fract_x
  _atom_site_fract_y
  _atom_site_fract_z
  _atom_site_occupancy
  Zn  Zn1       1.0  1.00000  0.00000  1.00000  1.0000
  Zn  Zn2       1.0  0.50000  0.50000  0.50000  1.0000
  H   H1        1.0  0.78959  0.23769  0.97834  1.0000
  H   H2        1.0  0.71041  0.73769  0.52166  1.0000
  H   H3        1.0  0.21041  0.76231  0.02166  1.0000
  H   H4        1.0  0.28959  0.26231  0.47834  1.0000
  H   H5        1.0  0.19353  0.20805  0.16937  1.0000
  H   H6        1.0  0.30647  0.70805  0.33063  1.0000
  H   H7        1.0  0.80647  0.79195  0.83063  1.0000
  H   H8        1.0  0.69353  0.29195  0.66937  1.0000
  H   H9        1.0  0.06975  0.42966  0.22494  1.0000
  H   H10       1.0  0.43025  0.92966  0.27506  1.0000
  H   H11       1.0  0.93025  0.57034  0.77506  1.0000
  H   H12       1.0  0.56975  0.07034  0.72494  1.0000
  H   H13       1.0  0.83721  0.50447  0.27933  1.0000
  H   H14       1.0  0.66279  0.00447  0.22067  1.0000
  H   H15       1.0  0.16279  0.49553  0.72067  1.0000
  H   H16       1.0  0.33721  0.99553  0.77933  1.0000
  H   H17       1.0  0.66795  0.67931  0.25677  1.0000
  H   H18       1.0  0.83205  0.17931  0.24323  1.0000
  H   H19       1.0  0.33205  0.32069  0.74323  1.0000
  H   H20       1.0  0.16795  0.82069  0.75677  1.0000
  H   H21       1.0  0.54850  0.73116  0.06039  1.0000
  H   H22       1.0  0.95150  0.23116  0.43961  1.0000
  H   H23       1.0  0.45150  0.26884  0.93961  1.0000
  H   H24       1.0  0.04850  0.76884  0.56039  1.0000
  H   H25       1.0  0.46087  0.76485  0.88133  1.0000
  H   H26       1.0  0.03913  0.26485  0.61867  1.0000
  H   H27       1.0  0.53913  0.23515  0.11867  1.0000
  H   H28       1.0  0.96087  0.73515  0.38133  1.0000
  H   H29       1.0  0.39378  0.72537  0.64400  1.0000
  H   H30       1.0  0.10622  0.22537  0.85600  1.0000
  H   H31       1.0  0.60622  0.27463  0.35600  1.0000
  H   H32       1.0  0.89378  0.77463  0.14400  1.0000
  H   H33       1.0  0.67375  0.44868  0.77563  1.0000
  H   H34       1.0  0.82625  0.94868  0.72438  1.0000
  H   H35       1.0  0.32625  0.55132  0.22437  1.0000
  H   H36       1.0  0.17375  0.05132  0.27563  1.0000
  C   C1        1.0  0.88505  0.25779  0.03532  1.0000
  C   C2        1.0  0.61495  0.75779  0.46468  1.0000
  C   C3        1.0  0.11495  0.74221  0.96468  1.0000
  C   C4        1.0  0.38505  0.24221  0.53532  1.0000
  C   C5        1.0  0.08993  0.24614  0.14039  1.0000
  C   C6        1.0  0.41007  0.74614  0.35961  1.0000
  C   C7        1.0  0.91007  0.75386  0.85961  1.0000
  C   C8        1.0  0.58993  0.25386  0.64039  1.0000
  C   C9        1.0  0.03228  0.35620  0.16663  1.0000
  C   C10       1.0  0.46772  0.85620  0.33337  1.0000
  C   C11       1.0  0.96772  0.64379  0.83338  1.0000
  C   C12       1.0  0.53228  0.14379  0.66662  1.0000
  C   C13       1.0  0.80590  0.46246  0.09322  1.0000
  C   C14       1.0  0.69410  0.96245  0.40678  1.0000
  C   C15       1.0  0.19410  0.53754  0.90678  1.0000
  C   C16       1.0  0.30590  0.03754  0.59322  1.0000
  C   C17       1.0  0.78479  0.52869  0.19395  1.0000
  C   C18       1.0  0.71521  0.02869  0.30605  1.0000
  C   C19       1.0  0.21521  0.47131  0.80605  1.0000
  C   C20       1.0  0.28479  0.97131  0.69395  1.0000
  C   C21       1.0  0.68939  0.62568  0.18073  1.0000
  C   C22       1.0  0.81061  0.12567  0.31927  1.0000
  C   C23       1.0  0.31061  0.37433  0.81927  1.0000
  C   C24       1.0  0.18939  0.87433  0.68073  1.0000
  C   C25       1.0  0.62087  0.65403  0.07115  1.0000
  C   C26       1.0  0.87913  0.15403  0.42885  1.0000
  C   C27       1.0  0.37913  0.34597  0.92885  1.0000
  C   C28       1.0  0.12087  0.84597  0.57115  1.0000
  C   C29       1.0  0.64943  0.57912  0.97793  1.0000
  C   C30       1.0  0.85057  0.07911  0.52207  1.0000
  C   C31       1.0  0.35057  0.42088  0.02207  1.0000
  C   C32       1.0  0.14943  0.92088  0.47793  1.0000
  C   C33       1.0  0.49232  0.69304  0.82425  1.0000
  C   C34       1.0  0.00768  0.19304  0.67575  1.0000
  C   C35       1.0  0.50768  0.30696  0.17575  1.0000
  C   C36       1.0  0.99232  0.80696  0.32425  1.0000
  C   C37       1.0  0.46168  0.67354  0.70686  1.0000
  C   C38       1.0  0.03832  0.17354  0.79314  1.0000
  C   C39       1.0  0.53832  0.32646  0.29314  1.0000
  C   C40       1.0  0.96168  0.82646  0.20686  1.0000
  C   C41       1.0  0.60501  0.52733  0.76897  1.0000
  C   C42       1.0  0.89499  0.02733  0.73103  1.0000
  C   C43       1.0  0.39499  0.47267  0.23103  1.0000
  C   C44       1.0  0.10501  0.97267  0.26897  1.0000
  N   N1        1.0  0.99640  0.18512  0.06009  1.0000
  N   N2        1.0  0.50360  0.68512  0.43991  1.0000
  N   N3        1.0  0.00360  0.81488  0.93991  1.0000
  N   N4        1.0  0.49640  0.31488  0.56009  1.0000
  N   N5        1.0  0.90258  0.36294  0.09856  1.0000
  N   N6        1.0  0.59742  0.86294  0.40144  1.0000
  N   N7        1.0  0.09742  0.63706  0.90144  1.0000
  N   N8        1.0  0.40258  0.13706  0.59856  1.0000
  N   N9        1.0  0.73946  0.48489  0.98788  1.0000
  N   N10       1.0  0.76054  0.98489  0.51212  1.0000
  N   N11       1.0  0.26054  0.51511  0.01212  1.0000
  N   N12       1.0  0.23946  0.01511  0.48788  1.0000
  N   N13       1.0  0.58423  0.59929  0.86315  1.0000
  N   N14       1.0  0.91577  0.09929  0.63685  1.0000
  N   N15       1.0  0.41577  0.40071  0.13685  1.0000
  N   N16       1.0  0.08423  0.90071  0.36315  1.0000
  N   N17       1.0  0.53221  0.57030  0.67350  1.0000
  N   N18       1.0  0.96778  0.07030  0.82650  1.0000
  N   N19       1.0  0.46779  0.42970  0.32650  1.0000
  N   N20       1.0  0.03222  0.92970  0.17350  1.0000
  N   N21       1.0  0.33551  0.98542  0.05296  1.0000
  N   N22       1.0  0.16449  0.48542  0.44704  1.0000
  N   N23       1.0  0.66449  0.01458  0.94704  1.0000
  N   N24       1.0  0.83551  0.51458  0.55296  1.0000
  O   O1        1.0  0.23568  0.01143  0.97271  1.0000
  O   O2        1.0  0.26432  0.51143  0.52729  1.0000
  O   O3        1.0  0.76432  0.98857  0.02729  1.0000
  O   O4        1.0  0.73567  0.48857  0.47271  1.0000
  O   O5        1.0  0.36031  0.05521  0.13965  1.0000
  O   O6        1.0  0.13969  0.55521  0.36036  1.0000
  O   O7        1.0  0.63969  0.94479  0.86036  1.0000
  O   O8        1.0  0.86031  0.44479  0.63965  1.0000
  O   O9        1.0  0.40738  0.88952  0.04370  1.0000
  O   O10       1.0  0.09263  0.38952  0.45630  1.0000
  O   O11       1.0  0.59263  0.11048  0.95630  1.0000
  O   O12       1.0  0.90737  0.61048  0.54370  1.0000
