data_image0
_chemical_formula_structural       Cd2H36C44N24O12
_chemical_formula_sum              "Cd2 H36 C44 N24 O12"
_cell_length_a       9.39615
_cell_length_b       11.1965
_cell_length_c       11.7321
_cell_angle_alpha    89.9999
_cell_angle_beta     95.1414
_cell_angle_gamma    89.9999

_space_group_name_H-M_alt    "P 1"
_space_group_IT_number       1

loop_
  _space_group_symop_operation_xyz
  'x, y, z'

loop_
  _atom_site_type_symbol
  _atom_site_label
  _atom_site_symmetry_multiplicity
  _atom_site_fract_x
  _atom_site_fract_y
  _atom_site_fract_z
  _atom_site_occupancy
  Cd  Cd1       1.0  0.00000  0.50000  1.00000  1.0000
  Cd  Cd2       1.0  0.50000  1.00000  0.50000  1.0000
  H   H1        1.0  0.17939  0.54250  0.28491  1.0000
  H   H2        1.0  0.32062  0.04250  0.21509  1.0000
  H   H3        1.0  0.82062  0.45750  0.71509  1.0000
  H   H4        1.0  0.67939  0.95750  0.78491  1.0000
  H   H5        1.0  0.90206  0.26835  0.15778  1.0000
  H   H6        1.0  0.59794  0.76836  0.34222  1.0000
  H   H7        1.0  0.09794  0.73164  0.84222  1.0000
  H   H8        1.0  0.40206  0.23164  0.65778  1.0000
  H   H9        1.0  0.96477  0.23324  0.39110  1.0000
  H   H10       1.0  0.53523  0.73324  0.10890  1.0000
  H   H11       1.0  0.03523  0.76676  0.60890  1.0000
  H   H12       1.0  0.46477  0.26676  0.89110  1.0000
  H   H13       1.0  0.04595  0.27128  0.56653  1.0000
  H   H14       1.0  0.45405  0.77128  0.93347  1.0000
  H   H15       1.0  0.95405  0.72872  0.43347  1.0000
  H   H16       1.0  0.54595  0.22872  0.06653  1.0000
  H   H17       1.0  0.16366  0.32379  0.75898  1.0000
  H   H18       1.0  0.33633  0.82379  0.74102  1.0000
  H   H19       1.0  0.83633  0.67621  0.24102  1.0000
  H   H20       1.0  0.66366  0.17621  0.25898  1.0000
  H   H21       1.0  0.33567  0.49327  0.77993  1.0000
  H   H22       1.0  0.16433  0.99327  0.72007  1.0000
  H   H23       1.0  0.66433  0.50673  0.22007  1.0000
  H   H24       1.0  0.83567  0.00673  0.27993  1.0000
  H   H25       1.0  0.56471  0.56943  0.73671  1.0000
  H   H26       1.0  0.93529  0.06943  0.76329  1.0000
  H   H27       1.0  0.43529  0.43057  0.26329  1.0000
  H   H28       1.0  0.06471  0.93057  0.23671  1.0000
  H   H29       1.0  0.69144  0.78519  0.68112  1.0000
  H   H30       1.0  0.80856  0.28519  0.81888  1.0000
  H   H31       1.0  0.30856  0.21481  0.31888  1.0000
  H   H32       1.0  0.19144  0.71481  0.18112  1.0000
  H   H33       1.0  0.30452  0.74465  0.47275  1.0000
  H   H34       1.0  0.19548  0.24466  0.02724  1.0000
  H   H35       1.0  0.69548  0.25534  0.52724  1.0000
  H   H36       1.0  0.80452  0.75535  0.97276  1.0000
  C   C1        1.0  0.11058  0.46513  0.27925  1.0000
  C   C2        1.0  0.38942  0.96513  0.22075  1.0000
  C   C3        1.0  0.88942  0.53487  0.72075  1.0000
  C   C4        1.0  0.61058  0.03487  0.77925  1.0000
  C   C5        1.0  0.96850  0.32058  0.21925  1.0000
  C   C6        1.0  0.53151  0.82058  0.28075  1.0000
  C   C7        1.0  0.03151  0.67942  0.78075  1.0000
  C   C8        1.0  0.46850  0.17942  0.71925  1.0000
  C   C9        1.0  0.99700  0.30314  0.33466  1.0000
  C   C10       1.0  0.50300  0.80314  0.16534  1.0000
  C   C11       1.0  0.00300  0.69686  0.66534  1.0000
  C   C12       1.0  0.49700  0.19686  0.83466  1.0000
  C   C13       1.0  0.15185  0.41714  0.48468  1.0000
  C   C14       1.0  0.34815  0.91714  0.01532  1.0000
  C   C15       1.0  0.84815  0.58286  0.51532  1.0000
  C   C16       1.0  0.65185  0.08286  0.98468  1.0000
  C   C17       1.0  0.11998  0.34592  0.57674  1.0000
  C   C18       1.0  0.38002  0.84592  0.92326  1.0000
  C   C19       1.0  0.88002  0.65408  0.42326  1.0000
  C   C20       1.0  0.61998  0.15408  0.07674  1.0000
  C   C21       1.0  0.18741  0.37465  0.68396  1.0000
  C   C22       1.0  0.31258  0.87465  0.81604  1.0000
  C   C23       1.0  0.81258  0.62535  0.31605  1.0000
  C   C24       1.0  0.68741  0.12535  0.18396  1.0000
  C   C25       1.0  0.28459  0.46871  0.69622  1.0000
  C   C26       1.0  0.21540  0.96871  0.80378  1.0000
  C   C27       1.0  0.71540  0.53129  0.30378  1.0000
  C   C28       1.0  0.78459  0.03129  0.19622  1.0000
  C   C29       1.0  0.30882  0.53152  0.59704  1.0000
  C   C30       1.0  0.19118  0.03152  0.90296  1.0000
  C   C31       1.0  0.69118  0.46848  0.40296  1.0000
  C   C32       1.0  0.80882  0.96848  0.09704  1.0000
  C   C33       1.0  0.53116  0.63849  0.67494  1.0000
  C   C34       1.0  0.96884  0.13849  0.82506  1.0000
  C   C35       1.0  0.46884  0.36151  0.32506  1.0000
  C   C36       1.0  0.03116  0.86151  0.17494  1.0000
  C   C37       1.0  0.59094  0.74540  0.64793  1.0000
  C   C38       1.0  0.90906  0.24540  0.85207  1.0000
  C   C39       1.0  0.40906  0.25460  0.35207  1.0000
  C   C40       1.0  0.09094  0.75460  0.14793  1.0000
  C   C41       1.0  0.39489  0.72828  0.53482  1.0000
  C   C42       1.0  0.10511  0.22829  0.96518  1.0000
  C   C43       1.0  0.60512  0.27171  0.46518  1.0000
  C   C44       1.0  0.89489  0.77171  0.03482  1.0000
  N   N1        1.0  0.03969  0.42141  0.18590  1.0000
  N   N2        1.0  0.46031  0.92142  0.31410  1.0000
  N   N3        1.0  0.96031  0.57858  0.81410  1.0000
  N   N4        1.0  0.53969  0.07858  0.68590  1.0000
  N   N5        1.0  0.08794  0.39607  0.37229  1.0000
  N   N6        1.0  0.41206  0.89606  0.12771  1.0000
  N   N7        1.0  0.91206  0.60394  0.62771  1.0000
  N   N8        1.0  0.58794  0.10394  0.87229  1.0000
  N   N9        1.0  0.24393  0.50837  0.49372  1.0000
  N   N10       1.0  0.25607  0.00837  0.00628  1.0000
  N   N11       1.0  0.75607  0.49163  0.50628  1.0000
  N   N12       1.0  0.74393  0.99163  0.99372  1.0000
  N   N13       1.0  0.40693  0.62827  0.60195  1.0000
  N   N14       1.0  0.09307  0.12827  0.89804  1.0000
  N   N15       1.0  0.59307  0.37173  0.39804  1.0000
  N   N16       1.0  0.90693  0.87173  0.10196  1.0000
  N   N17       1.0  0.50454  0.80072  0.56151  1.0000
  N   N18       1.0  0.99546  0.30072  0.93849  1.0000
  N   N19       1.0  0.49546  0.19928  0.43849  1.0000
  N   N20       1.0  0.00454  0.69928  0.06151  1.0000
  N   N21       1.0  0.33943  0.47708  0.04846  1.0000
  N   N22       1.0  0.16057  0.97708  0.45154  1.0000
  N   N23       1.0  0.66057  0.52292  0.95154  1.0000
  N   N24       1.0  0.83943  0.02292  0.54846  1.0000
  O   O1        1.0  0.24647  0.49431  0.96261  1.0000
  O   O2        1.0  0.25353  0.99431  0.53739  1.0000
  O   O3        1.0  0.75353  0.50569  0.03739  1.0000
  O   O4        1.0  0.74647  0.00569  0.46261  1.0000
  O   O5        1.0  0.41973  0.38686  0.04820  1.0000
  O   O6        1.0  0.08027  0.88686  0.45180  1.0000
  O   O7        1.0  0.58027  0.61314  0.95180  1.0000
  O   O8        1.0  0.91973  0.11314  0.54820  1.0000
  O   O9        1.0  0.34849  0.54942  0.13111  1.0000
  O   O10       1.0  0.15151  0.04942  0.36889  1.0000
  O   O11       1.0  0.65151  0.45058  0.86889  1.0000
  O   O12       1.0  0.84849  0.95058  0.63111  1.0000
