data_image0
_chemical_formula_structural       Mn4H8C24N8O16
_chemical_formula_sum              "Mn4 H8 C24 N8 O16"
_cell_length_a       5.30587
_cell_length_b       10.3189
_cell_length_c       12.0818
_cell_angle_alpha    106.859
_cell_angle_beta     89.999
_cell_angle_gamma    90.0003

_space_group_name_H-M_alt    "P 1"
_space_group_IT_number       1

loop_
  _space_group_symop_operation_xyz
  'x, y, z'

loop_
  _atom_site_type_symbol
  _atom_site_label
  _atom_site_symmetry_multiplicity
  _atom_site_fract_x
  _atom_site_fract_y
  _atom_site_fract_z
  _atom_site_occupancy
  Mn  Mn1       1.0  0.78246  0.76472  0.23480  1.0000
  Mn  Mn2       1.0  0.71749  0.76471  0.73480  1.0000
  Mn  Mn3       1.0  0.21755  0.23528  0.76521  1.0000
  Mn  Mn4       1.0  0.28249  0.23529  0.26520  1.0000
  H   H1        1.0  0.17939  0.77321  0.45043  1.0000
  H   H2        1.0  0.32057  0.77320  0.95043  1.0000
  H   H3        1.0  0.82063  0.22681  0.54957  1.0000
  H   H4        1.0  0.67944  0.22678  0.04957  1.0000
  H   H5        1.0  0.88416  0.60269  0.95187  1.0000
  H   H6        1.0  0.61585  0.60271  0.45187  1.0000
  H   H7        1.0  0.11586  0.39730  0.04813  1.0000
  H   H8        1.0  0.38413  0.39730  0.54812  1.0000
  C   C1        1.0  0.81232  0.02271  0.43335  1.0000
  C   C2        1.0  0.68771  0.02268  0.93335  1.0000
  C   C3        1.0  0.18769  0.97731  0.56666  1.0000
  C   C4        1.0  0.31230  0.97730  0.06665  1.0000
  C   C5        1.0  0.09649  0.87376  0.47345  1.0000
  C   C6        1.0  0.40350  0.87377  0.97346  1.0000
  C   C7        1.0  0.90352  0.12625  0.52655  1.0000
  C   C8        1.0  0.59651  0.12623  0.02655  1.0000
  C   C9        1.0  0.60779  0.04472  0.35440  1.0000
  C   C10       1.0  0.89224  0.04466  0.85438  1.0000
  C   C11       1.0  0.39222  0.95529  0.64561  1.0000
  C   C12       1.0  0.10776  0.95532  0.14562  1.0000
  C   C13       1.0  0.39323  0.55833  0.10362  1.0000
  C   C14       1.0  0.10674  0.55832  0.60363  1.0000
  C   C15       1.0  0.60679  0.44167  0.89638  1.0000
  C   C16       1.0  0.89323  0.44169  0.39637  1.0000
  C   C17       1.0  0.71492  0.55570  0.97415  1.0000
  C   C18       1.0  0.78508  0.55570  0.47414  1.0000
  C   C19       1.0  0.28509  0.44429  0.02585  1.0000
  C   C20       1.0  0.21491  0.44429  0.52585  1.0000
  C   C21       1.0  0.29031  0.62466  0.22245  1.0000
  C   C22       1.0  0.20964  0.62465  0.72246  1.0000
  C   C23       1.0  0.70970  0.37533  0.77754  1.0000
  C   C24       1.0  0.79033  0.37535  0.27753  1.0000
  N   N1        1.0  0.90914  0.89678  0.40744  1.0000
  N   N2        1.0  0.59087  0.89676  0.90744  1.0000
  N   N3        1.0  0.09088  0.10323  0.59256  1.0000
  N   N4        1.0  0.40915  0.10323  0.09256  1.0000
  N   N5        1.0  0.60768  0.61299  0.07709  1.0000
  N   N6        1.0  0.89230  0.61298  0.57710  1.0000
  N   N7        1.0  0.39233  0.38700  0.92291  1.0000
  N   N8        1.0  0.10768  0.38702  0.42290  1.0000
  O   O1        1.0  0.54660  0.94362  0.27097  1.0000
  O   O2        1.0  0.95339  0.94360  0.77096  1.0000
  O   O3        1.0  0.45340  0.05639  0.72904  1.0000
  O   O4        1.0  0.04661  0.05640  0.22904  1.0000
  O   O5        1.0  0.51310  0.16305  0.37789  1.0000
  O   O6        1.0  0.98696  0.16303  0.87790  1.0000
  O   O7        1.0  0.48690  0.83696  0.62211  1.0000
  O   O8        1.0  0.01304  0.83697  0.12210  1.0000
  O   O9        1.0  0.45058  0.68475  0.29792  1.0000
  O   O10       1.0  0.04937  0.68473  0.79793  1.0000
  O   O11       1.0  0.54944  0.31526  0.70208  1.0000
  O   O12       1.0  0.95059  0.31528  0.20207  1.0000
  O   O13       1.0  0.05441  0.61722  0.23906  1.0000
  O   O14       1.0  0.44555  0.61720  0.73907  1.0000
  O   O15       1.0  0.94559  0.38278  0.76094  1.0000
  O   O16       1.0  0.55442  0.38280  0.26093  1.0000
