data_image0
_chemical_formula_structural       Zn8H40C48N40O8
_chemical_formula_sum              "Zn8 H40 C48 N40 O8"
_cell_length_a       6.5401
_cell_length_b       14.5584
_cell_length_c       16.3392
_cell_angle_alpha    90.0001
_cell_angle_beta     90
_cell_angle_gamma    90

_space_group_name_H-M_alt    "P 1"
_space_group_IT_number       1

loop_
  _space_group_symop_operation_xyz
  'x, y, z'

loop_
  _atom_site_type_symbol
  _atom_site_label
  _atom_site_symmetry_multiplicity
  _atom_site_fract_x
  _atom_site_fract_y
  _atom_site_fract_z
  _atom_site_occupancy
  Zn  Zn1       1.0  0.22963  0.77791  0.78859  1.0000
  Zn  Zn2       1.0  0.22963  0.27791  0.71141  1.0000
  Zn  Zn3       1.0  0.27037  0.77791  0.28859  1.0000
  Zn  Zn4       1.0  0.72963  0.72209  0.78859  1.0000
  Zn  Zn5       1.0  0.77037  0.22209  0.21141  1.0000
  Zn  Zn6       1.0  0.77037  0.72209  0.28859  1.0000
  Zn  Zn7       1.0  0.72963  0.22209  0.71141  1.0000
  Zn  Zn8       1.0  0.27037  0.27791  0.21141  1.0000
  H   H1        1.0  0.12083  0.21605  0.90437  1.0000
  H   H2        1.0  0.12083  0.71605  0.59563  1.0000
  H   H3        1.0  0.37917  0.21605  0.40437  1.0000
  H   H4        1.0  0.62083  0.28395  0.90437  1.0000
  H   H5        1.0  0.87917  0.78395  0.09563  1.0000
  H   H6        1.0  0.87917  0.28395  0.40437  1.0000
  H   H7        1.0  0.62083  0.78395  0.59563  1.0000
  H   H8        1.0  0.37917  0.71605  0.09563  1.0000
  H   H9        1.0  0.16149  0.31057  0.03114  1.0000
  H   H10       1.0  0.16149  0.81057  0.46886  1.0000
  H   H11       1.0  0.33851  0.31057  0.53114  1.0000
  H   H12       1.0  0.66149  0.18943  0.03114  1.0000
  H   H13       1.0  0.83851  0.68943  0.96886  1.0000
  H   H14       1.0  0.83850  0.18943  0.53114  1.0000
  H   H15       1.0  0.66149  0.68943  0.46886  1.0000
  H   H16       1.0  0.33850  0.81057  0.96886  1.0000
  H   H17       1.0  0.32915  0.08263  0.16827  1.0000
  H   H18       1.0  0.32915  0.58262  0.33173  1.0000
  H   H19       1.0  0.17085  0.08263  0.66827  1.0000
  H   H20       1.0  0.82915  0.41737  0.16827  1.0000
  H   H21       1.0  0.67085  0.91738  0.83173  1.0000
  H   H22       1.0  0.67085  0.41738  0.66827  1.0000
  H   H23       1.0  0.82915  0.91737  0.33173  1.0000
  H   H24       1.0  0.17085  0.58262  0.83173  1.0000
  H   H25       1.0  0.30086  0.97976  0.04820  1.0000
  H   H26       1.0  0.30086  0.47976  0.45180  1.0000
  H   H27       1.0  0.19914  0.97976  0.54820  1.0000
  H   H28       1.0  0.80086  0.52024  0.04820  1.0000
  H   H29       1.0  0.69914  0.02024  0.95180  1.0000
  H   H30       1.0  0.69915  0.52024  0.54820  1.0000
  H   H31       1.0  0.80086  0.02024  0.45180  1.0000
  H   H32       1.0  0.19914  0.47976  0.95180  1.0000
  H   H33       1.0  0.52695  0.83682  0.71354  1.0000
  H   H34       1.0  0.52695  0.33682  0.78646  1.0000
  H   H35       1.0  0.97305  0.83682  0.21354  1.0000
  H   H36       1.0  0.02695  0.66318  0.71354  1.0000
  H   H37       1.0  0.47305  0.16318  0.28646  1.0000
  H   H38       1.0  0.47305  0.66318  0.21354  1.0000
  H   H39       1.0  0.02695  0.16318  0.78646  1.0000
  H   H40       1.0  0.97305  0.33682  0.28646  1.0000
  C   C1        1.0  0.20714  0.08909  0.96600  1.0000
  C   C2        1.0  0.20714  0.58909  0.53400  1.0000
  C   C3        1.0  0.29286  0.08910  0.46600  1.0000
  C   C4        1.0  0.70714  0.41091  0.96600  1.0000
  C   C5        1.0  0.79286  0.91090  0.03400  1.0000
  C   C6        1.0  0.79286  0.41090  0.46600  1.0000
  C   C7        1.0  0.70714  0.91091  0.53400  1.0000
  C   C8        1.0  0.29286  0.58910  0.03400  1.0000
  C   C9        1.0  0.18293  0.02885  0.89549  1.0000
  C   C10       1.0  0.18292  0.52885  0.60451  1.0000
  C   C11       1.0  0.31707  0.02885  0.39549  1.0000
  C   C12       1.0  0.68293  0.47115  0.89549  1.0000
  C   C13       1.0  0.81707  0.97115  0.10451  1.0000
  C   C14       1.0  0.81707  0.47115  0.39549  1.0000
  C   C15       1.0  0.68293  0.97115  0.60451  1.0000
  C   C16       1.0  0.31707  0.52885  0.10451  1.0000
  C   C17       1.0  0.16765  0.18375  0.96161  1.0000
  C   C18       1.0  0.16765  0.68375  0.53839  1.0000
  C   C19       1.0  0.33235  0.18375  0.46161  1.0000
  C   C20       1.0  0.66765  0.31625  0.96161  1.0000
  C   C21       1.0  0.83235  0.81625  0.03839  1.0000
  C   C22       1.0  0.83235  0.31625  0.46161  1.0000
  C   C23       1.0  0.66765  0.81625  0.53839  1.0000
  C   C24       1.0  0.33235  0.68375  0.03839  1.0000
  C   C25       1.0  0.18750  0.23662  0.03183  1.0000
  C   C26       1.0  0.18750  0.73662  0.46817  1.0000
  C   C27       1.0  0.31250  0.23662  0.53183  1.0000
  C   C28       1.0  0.68750  0.26338  0.03183  1.0000
  C   C29       1.0  0.81250  0.76338  0.96817  1.0000
  C   C30       1.0  0.81250  0.26338  0.53183  1.0000
  C   C31       1.0  0.68750  0.76338  0.46817  1.0000
  C   C32       1.0  0.31250  0.73662  0.96817  1.0000
  C   C33       1.0  0.28387  0.11008  0.10899  1.0000
  C   C34       1.0  0.28387  0.61008  0.39101  1.0000
  C   C35       1.0  0.21613  0.11008  0.60899  1.0000
  C   C36       1.0  0.78387  0.38992  0.10899  1.0000
  C   C37       1.0  0.71613  0.88992  0.89101  1.0000
  C   C38       1.0  0.71613  0.38993  0.60899  1.0000
  C   C39       1.0  0.78388  0.88992  0.39101  1.0000
  C   C40       1.0  0.21613  0.61008  0.89101  1.0000
  C   C41       1.0  0.26791  0.05265  0.04170  1.0000
  C   C42       1.0  0.26791  0.55265  0.45830  1.0000
  C   C43       1.0  0.23209  0.05265  0.54170  1.0000
  C   C44       1.0  0.76791  0.44735  0.04170  1.0000
  C   C45       1.0  0.73209  0.94735  0.95830  1.0000
  C   C46       1.0  0.73209  0.44735  0.54171  1.0000
  C   C47       1.0  0.76791  0.94735  0.45830  1.0000
  C   C48       1.0  0.23209  0.55265  0.95830  1.0000
  N   N1        1.0  0.22963  0.93898  0.89655  1.0000
  N   N2        1.0  0.22963  0.43898  0.60345  1.0000
  N   N3        1.0  0.27037  0.93898  0.39655  1.0000
  N   N4        1.0  0.72963  0.56102  0.89655  1.0000
  N   N5        1.0  0.77037  0.06102  0.10345  1.0000
  N   N6        1.0  0.77037  0.56102  0.39655  1.0000
  N   N7        1.0  0.72963  0.06102  0.60345  1.0000
  N   N8        1.0  0.27037  0.43898  0.10345  1.0000
  N   N9        1.0  0.17852  0.90964  0.82194  1.0000
  N   N10       1.0  0.17853  0.40964  0.67806  1.0000
  N   N11       1.0  0.32147  0.90964  0.32194  1.0000
  N   N12       1.0  0.67852  0.59036  0.82194  1.0000
  N   N13       1.0  0.82147  0.09036  0.17806  1.0000
  N   N14       1.0  0.82148  0.59035  0.32194  1.0000
  N   N15       1.0  0.67852  0.09036  0.67806  1.0000
  N   N16       1.0  0.32148  0.40964  0.17806  1.0000
  N   N17       1.0  0.10302  0.97767  0.77631  1.0000
  N   N18       1.0  0.10302  0.47767  0.72369  1.0000
  N   N19       1.0  0.39698  0.97767  0.27631  1.0000
  N   N20       1.0  0.60302  0.52233  0.77631  1.0000
  N   N21       1.0  0.89698  0.02233  0.22369  1.0000
  N   N22       1.0  0.89698  0.52233  0.27631  1.0000
  N   N23       1.0  0.60302  0.02233  0.72369  1.0000
  N   N24       1.0  0.39698  0.47767  0.22369  1.0000
  N   N25       1.0  0.10476  0.05330  0.82182  1.0000
  N   N26       1.0  0.10476  0.55330  0.67818  1.0000
  N   N27       1.0  0.39524  0.05330  0.32182  1.0000
  N   N28       1.0  0.60476  0.44670  0.82182  1.0000
  N   N29       1.0  0.89524  0.94670  0.17818  1.0000
  N   N30       1.0  0.89524  0.44670  0.32182  1.0000
  N   N31       1.0  0.60476  0.94670  0.67818  1.0000
  N   N32       1.0  0.39524  0.55330  0.17818  1.0000
  N   N33       1.0  0.24340  0.20089  0.10479  1.0000
  N   N34       1.0  0.24340  0.70089  0.39521  1.0000
  N   N35       1.0  0.25660  0.20089  0.60479  1.0000
  N   N36       1.0  0.74340  0.29911  0.10479  1.0000
  N   N37       1.0  0.75660  0.79911  0.89521  1.0000
  N   N38       1.0  0.75660  0.29911  0.60479  1.0000
  N   N39       1.0  0.74340  0.79911  0.39521  1.0000
  N   N40       1.0  0.25660  0.70089  0.89521  1.0000
  O   O1        1.0  0.49302  0.77330  0.73233  1.0000
  O   O2        1.0  0.49302  0.27330  0.76767  1.0000
  O   O3        1.0  0.00698  0.77330  0.23233  1.0000
  O   O4        1.0  0.99302  0.72670  0.73233  1.0000
  O   O5        1.0  0.50698  0.22670  0.26767  1.0000
  O   O6        1.0  0.50698  0.72670  0.23233  1.0000
  O   O7        1.0  0.99302  0.22670  0.76767  1.0000
  O   O8        1.0  0.00698  0.27330  0.26767  1.0000
