data_image0
_chemical_formula_structural       Cu4H36C60N8O16F12
_chemical_formula_sum              "Cu4 H36 C60 N8 O16 F12"
_cell_length_a       8.84772
_cell_length_b       10.3818
_cell_length_c       16.4203
_cell_angle_alpha    89.9997
_cell_angle_beta     89.9995
_cell_angle_gamma    107.529

_space_group_name_H-M_alt    "P 1"
_space_group_IT_number       1

loop_
  _space_group_symop_operation_xyz
  'x, y, z'

loop_
  _atom_site_type_symbol
  _atom_site_label
  _atom_site_symmetry_multiplicity
  _atom_site_fract_x
  _atom_site_fract_y
  _atom_site_fract_z
  _atom_site_occupancy
  Cu  Cu1       1.0  0.33715  0.10244  0.16057  1.0000
  Cu  Cu2       1.0  0.83714  0.10244  0.33942  1.0000
  Cu  Cu3       1.0  0.66286  0.89756  0.83943  1.0000
  Cu  Cu4       1.0  0.16286  0.89756  0.66057  1.0000
  H   H1        1.0  0.17514  0.32434  0.12519  1.0000
  H   H2        1.0  0.67514  0.32434  0.37481  1.0000
  H   H3        1.0  0.82487  0.67566  0.87481  1.0000
  H   H4        1.0  0.32486  0.67566  0.62519  1.0000
  H   H5        1.0  0.02680  0.37358  0.00410  1.0000
  H   H6        1.0  0.52681  0.37358  0.49590  1.0000
  H   H7        1.0  0.97320  0.62642  0.99591  1.0000
  H   H8        1.0  0.47319  0.62642  0.50409  1.0000
  H   H9        1.0  0.00592  0.23174  0.87769  1.0000
  H   H10       1.0  0.50591  0.23174  0.62231  1.0000
  H   H11       1.0  0.99408  0.76826  0.12231  1.0000
  H   H12       1.0  0.49408  0.76826  0.37769  1.0000
  H   H13       1.0  0.13498  0.04642  0.87747  1.0000
  H   H14       1.0  0.63497  0.04642  0.62253  1.0000
  H   H15       1.0  0.86502  0.95358  0.12254  1.0000
  H   H16       1.0  0.36502  0.95357  0.37746  1.0000
  H   H17       1.0  0.28936  0.91847  0.95459  1.0000
  H   H18       1.0  0.78936  0.91847  0.54541  1.0000
  H   H19       1.0  0.71063  0.08153  0.04541  1.0000
  H   H20       1.0  0.21064  0.08153  0.45459  1.0000
  H   H21       1.0  0.28813  0.74050  0.98846  1.0000
  H   H22       1.0  0.78812  0.74050  0.51154  1.0000
  H   H23       1.0  0.71187  0.25950  0.01154  1.0000
  H   H24       1.0  0.21187  0.25950  0.48846  1.0000
  H   H25       1.0  0.37689  0.54247  0.01550  1.0000
  H   H26       1.0  0.87689  0.54247  0.48450  1.0000
  H   H27       1.0  0.62311  0.45752  0.98450  1.0000
  H   H28       1.0  0.12311  0.45753  0.51550  1.0000
  H   H29       1.0  0.54139  0.53680  0.13886  1.0000
  H   H30       1.0  0.04138  0.53680  0.36114  1.0000
  H   H31       1.0  0.45861  0.46320  0.86114  1.0000
  H   H32       1.0  0.95862  0.46320  0.63886  1.0000
  H   H33       1.0  0.61468  0.73461  0.23223  1.0000
  H   H34       1.0  0.11468  0.73461  0.26777  1.0000
  H   H35       1.0  0.38533  0.26539  0.76777  1.0000
  H   H36       1.0  0.88532  0.26539  0.73223  1.0000
  C   C1        1.0  0.16314  0.26657  0.06893  1.0000
  C   C2        1.0  0.66314  0.26657  0.43107  1.0000
  C   C3        1.0  0.83686  0.73343  0.93107  1.0000
  C   C4        1.0  0.33686  0.73343  0.56893  1.0000
  C   C5        1.0  0.08159  0.29291  0.00101  1.0000
  C   C6        1.0  0.58159  0.29291  0.49899  1.0000
  C   C7        1.0  0.91841  0.70709  0.99900  1.0000
  C   C8        1.0  0.41841  0.70709  0.50100  1.0000
  C   C9        1.0  0.07069  0.21487  0.93101  1.0000
  C   C10       1.0  0.57069  0.21487  0.56899  1.0000
  C   C11       1.0  0.92931  0.78514  0.06900  1.0000
  C   C12       1.0  0.42931  0.78513  0.43101  1.0000
  C   C13       1.0  0.14225  0.11195  0.93016  1.0000
  C   C14       1.0  0.64224  0.11195  0.56984  1.0000
  C   C15       1.0  0.85775  0.88805  0.06984  1.0000
  C   C16       1.0  0.35776  0.88805  0.43016  1.0000
  C   C17       1.0  0.22168  0.09145  0.00014  1.0000
  C   C18       1.0  0.72168  0.09145  0.49986  1.0000
  C   C19       1.0  0.77832  0.90855  0.99986  1.0000
  C   C20       1.0  0.27832  0.90855  0.50014  1.0000
  C   C21       1.0  0.29222  0.98314  0.00753  1.0000
  C   C22       1.0  0.79222  0.98314  0.49247  1.0000
  C   C23       1.0  0.70777  0.01685  0.99247  1.0000
  C   C24       1.0  0.20778  0.01686  0.50753  1.0000
  C   C25       1.0  0.40181  0.85226  0.09473  1.0000
  C   C26       1.0  0.90181  0.85226  0.40527  1.0000
  C   C27       1.0  0.59819  0.14773  0.90527  1.0000
  C   C28       1.0  0.09819  0.14774  0.59473  1.0000
  C   C29       1.0  0.36084  0.74019  0.04186  1.0000
  C   C30       1.0  0.86083  0.74019  0.45814  1.0000
  C   C31       1.0  0.63916  0.25981  0.95814  1.0000
  C   C32       1.0  0.13917  0.25981  0.54186  1.0000
  C   C33       1.0  0.41106  0.62805  0.05712  1.0000
  C   C34       1.0  0.91105  0.62805  0.44288  1.0000
  C   C35       1.0  0.58894  0.37195  0.94288  1.0000
  C   C36       1.0  0.08895  0.37195  0.55712  1.0000
  C   C37       1.0  0.50289  0.62487  0.12580  1.0000
  C   C38       1.0  0.00289  0.62487  0.37420  1.0000
  C   C39       1.0  0.49711  0.37512  0.87420  1.0000
  C   C40       1.0  0.99711  0.37513  0.62579  1.0000
  C   C41       1.0  0.54263  0.73472  0.17853  1.0000
  C   C42       1.0  0.04263  0.73472  0.32147  1.0000
  C   C43       1.0  0.45737  0.26528  0.82147  1.0000
  C   C44       1.0  0.95737  0.26528  0.67853  1.0000
  C   C45       1.0  0.49304  0.84926  0.16519  1.0000
  C   C46       1.0  0.99304  0.84926  0.33481  1.0000
  C   C47       1.0  0.50696  0.15074  0.83481  1.0000
  C   C48       1.0  0.00696  0.15074  0.66519  1.0000
  C   C49       1.0  0.54728  0.96084  0.22739  1.0000
  C   C50       1.0  0.04728  0.96084  0.27261  1.0000
  C   C51       1.0  0.45274  0.03916  0.77261  1.0000
  C   C52       1.0  0.95273  0.03916  0.72739  1.0000
  C   C53       1.0  0.33611  0.28249  0.29782  1.0000
  C   C54       1.0  0.83610  0.28249  0.20217  1.0000
  C   C55       1.0  0.66390  0.71752  0.70217  1.0000
  C   C56       1.0  0.16390  0.71752  0.79783  1.0000
  C   C57       1.0  0.34553  0.43079  0.32151  1.0000
  C   C58       1.0  0.84552  0.43079  0.17850  1.0000
  C   C59       1.0  0.65447  0.56921  0.67849  1.0000
  C   C60       1.0  0.15447  0.56921  0.82150  1.0000
  N   N1        1.0  0.23118  0.16810  0.06828  1.0000
  N   N2        1.0  0.73117  0.16810  0.43172  1.0000
  N   N3        1.0  0.76882  0.83190  0.93172  1.0000
  N   N4        1.0  0.26883  0.83190  0.56828  1.0000
  N   N5        1.0  0.34953  0.96473  0.07800  1.0000
  N   N6        1.0  0.84953  0.96473  0.42200  1.0000
  N   N7        1.0  0.65047  0.03526  0.92201  1.0000
  N   N8        1.0  0.15047  0.03527  0.57800  1.0000
  O   O1        1.0  0.49848  0.06520  0.22769  1.0000
  O   O2        1.0  0.99848  0.06520  0.27231  1.0000
  O   O3        1.0  0.50153  0.93480  0.77231  1.0000
  O   O4        1.0  0.00153  0.93481  0.72769  1.0000
  O   O5        1.0  0.64361  0.94494  0.28045  1.0000
  O   O6        1.0  0.14361  0.94494  0.21955  1.0000
  O   O7        1.0  0.35641  0.05506  0.71955  1.0000
  O   O8        1.0  0.85639  0.05506  0.78045  1.0000
  O   O9        1.0  0.35179  0.27118  0.22107  1.0000
  O   O10       1.0  0.85179  0.27118  0.27893  1.0000
  O   O11       1.0  0.64822  0.72882  0.77893  1.0000
  O   O12       1.0  0.14822  0.72883  0.72107  1.0000
  O   O13       1.0  0.31965  0.19991  0.35396  1.0000
  O   O14       1.0  0.81964  0.19992  0.14604  1.0000
  O   O15       1.0  0.68035  0.80009  0.64604  1.0000
  O   O16       1.0  0.18036  0.80009  0.85396  1.0000
  F   F1        1.0  0.50097  0.50897  0.32816  1.0000
  F   F2        1.0  0.00096  0.50897  0.17184  1.0000
  F   F3        1.0  0.49903  0.49103  0.67183  1.0000
  F   F4        1.0  0.99904  0.49103  0.82817  1.0000
  F   F5        1.0  0.27368  0.49171  0.26714  1.0000
  F   F6        1.0  0.77367  0.49171  0.23286  1.0000
  F   F7        1.0  0.72633  0.50829  0.73286  1.0000
  F   F8        1.0  0.22633  0.50830  0.76714  1.0000
  F   F9        1.0  0.27738  0.43748  0.39550  1.0000
  F   F10       1.0  0.77737  0.43749  0.10450  1.0000
  F   F11       1.0  0.72263  0.56252  0.60449  1.0000
  F   F12       1.0  0.22263  0.56252  0.89550  1.0000
