data_image0
_chemical_formula_structural       Cu2H12C16N12O6
_chemical_formula_sum              "Cu2 H12 C16 N12 O6"
_cell_length_a       7.14931
_cell_length_b       7.50871
_cell_length_c       11.1584
_cell_angle_alpha    80.942
_cell_angle_beta     79.7194
_cell_angle_gamma    70.9962

_space_group_name_H-M_alt    "P 1"
_space_group_IT_number       1

loop_
  _space_group_symop_operation_xyz
  'x, y, z'

loop_
  _atom_site_type_symbol
  _atom_site_label
  _atom_site_symmetry_multiplicity
  _atom_site_fract_x
  _atom_site_fract_y
  _atom_site_fract_z
  _atom_site_occupancy
  Cu  Cu1       1.0  0.92758  0.99090  0.73693  1.0000
  Cu  Cu2       1.0  0.07242  0.00909  0.26307  1.0000
  H   H1        1.0  0.24763  0.51868  0.27489  1.0000
  H   H2        1.0  0.75237  0.48132  0.72511  1.0000
  H   H3        1.0  0.12178  0.38055  0.38056  1.0000
  H   H4        1.0  0.87822  0.61946  0.61944  1.0000
  H   H5        1.0  0.72929  0.63224  0.08466  1.0000
  H   H6        1.0  0.27072  0.36776  0.91535  1.0000
  H   H7        1.0  0.59277  0.54489  0.21614  1.0000
  H   H8        1.0  0.40722  0.45510  0.78386  1.0000
  H   H9        1.0  0.21049  0.68805  0.61341  1.0000
  H   H10       1.0  0.78950  0.31196  0.38659  1.0000
  H   H11       1.0  0.05946  0.80152  0.52164  1.0000
  H   H12       1.0  0.94054  0.19849  0.47836  1.0000
  C   C1        1.0  0.40688  0.36322  0.41004  1.0000
  C   C2        1.0  0.59312  0.63680  0.58996  1.0000
  C   C3        1.0  0.40548  0.23644  0.52478  1.0000
  C   C4        1.0  0.59453  0.76357  0.47522  1.0000
  C   C5        1.0  0.56858  0.17685  0.58893  1.0000
  C   C6        1.0  0.43141  0.82315  0.41108  1.0000
  C   C7        1.0  0.24138  0.18058  0.58193  1.0000
  C   C8        1.0  0.75861  0.81945  0.41807  1.0000
  C   C9        1.0  0.42786  0.68852  0.07898  1.0000
  C   C10       1.0  0.57215  0.31147  0.92101  1.0000
  C   C11       1.0  0.43693  0.79405  0.95559  1.0000
  C   C12       1.0  0.56308  0.20592  0.04440  1.0000
  C   C13       1.0  0.26404  0.86047  0.89992  1.0000
  C   C14       1.0  0.73596  0.13951  0.10008  1.0000
  C   C15       1.0  0.60983  0.82490  0.89102  1.0000
  C   C16       1.0  0.39017  0.17510  0.10898  1.0000
  N   N1        1.0  0.24109  0.43315  0.35700  1.0000
  N   N2        1.0  0.75890  0.56687  0.64300  1.0000
  N   N3        1.0  0.69966  0.13057  0.64838  1.0000
  N   N4        1.0  0.30033  0.86942  0.35163  1.0000
  N   N5        1.0  0.10335  0.13376  0.63213  1.0000
  N   N6        1.0  0.89664  0.86628  0.36788  1.0000
  N   N7        1.0  0.59704  0.62241  0.13114  1.0000
  N   N8        1.0  0.40296  0.37758  0.86886  1.0000
  N   N9        1.0  0.11756  0.92409  0.85437  1.0000
  N   N10       1.0  0.88245  0.07589  0.14563  1.0000
  N   N11       1.0  0.76083  0.83901  0.83439  1.0000
  N   N12       1.0  0.23917  0.16098  0.16562  1.0000
  O   O1        1.0  0.56413  0.40751  0.36459  1.0000
  O   O2        1.0  0.43587  0.59249  0.63540  1.0000
  O   O3        1.0  0.26547  0.66514  0.13077  1.0000
  O   O4        1.0  0.73454  0.33484  0.86922  1.0000
  O   O5        1.0  0.06340  0.74837  0.60704  1.0000
  O   O6        1.0  0.93660  0.25163  0.39296  1.0000
