data_image0
_chemical_formula_structural       Cu2H12C16N12O6
_chemical_formula_sum              "Cu2 H12 C16 N12 O6"
_cell_length_a       7.23067
_cell_length_b       7.06169
_cell_length_c       11.4846
_cell_angle_alpha    78.3587
_cell_angle_beta     80.5606
_cell_angle_gamma    76.375

_space_group_name_H-M_alt    "P 1"
_space_group_IT_number       1

loop_
  _space_group_symop_operation_xyz
  'x, y, z'

loop_
  _atom_site_type_symbol
  _atom_site_label
  _atom_site_symmetry_multiplicity
  _atom_site_fract_x
  _atom_site_fract_y
  _atom_site_fract_z
  _atom_site_occupancy
  Cu  Cu1       1.0  0.07777  0.01282  0.75624  1.0000
  Cu  Cu2       1.0  0.92223  0.98716  0.24376  1.0000
  H   H1        1.0  0.87560  0.61778  0.08603  1.0000
  H   H2        1.0  0.12439  0.38223  0.91397  1.0000
  H   H3        1.0  0.75447  0.46814  0.19886  1.0000
  H   H4        1.0  0.24553  0.53186  0.80114  1.0000
  H   H5        1.0  0.30196  0.33273  0.40844  1.0000
  H   H6        1.0  0.69804  0.66727  0.59156  1.0000
  H   H7        1.0  0.42819  0.42528  0.27195  1.0000
  H   H8        1.0  0.57182  0.57471  0.72805  1.0000
  H   H9        1.0  0.95790  0.39100  0.77326  1.0000
  H   H10       1.0  0.04211  0.60900  0.22674  1.0000
  H   H11       1.0  0.79523  0.32473  0.86933  1.0000
  H   H12       1.0  0.20478  0.67527  0.13067  1.0000
  C   C1        1.0  0.75285  0.82047  0.89411  1.0000
  C   C2        1.0  0.24714  0.17953  0.10589  1.0000
  C   C3        1.0  0.58532  0.77854  0.96079  1.0000
  C   C4        1.0  0.41467  0.22147  0.03921  1.0000
  C   C5        1.0  0.41354  0.85012  0.91121  1.0000
  C   C6        1.0  0.58646  0.14989  0.08878  1.0000
  C   C7        1.0  0.58765  0.64138  0.07550  1.0000
  C   C8        1.0  0.41235  0.35862  0.92450  1.0000
  C   C9        1.0  0.41535  0.18004  0.60399  1.0000
  C   C10       1.0  0.58464  0.81998  0.39602  1.0000
  C   C11       1.0  0.58593  0.20609  0.53441  1.0000
  C   C12       1.0  0.41405  0.79391  0.46559  1.0000
  C   C13       1.0  0.75324  0.15956  0.58898  1.0000
  C   C14       1.0  0.24676  0.84044  0.41102  1.0000
  C   C15       1.0  0.59410  0.29156  0.40628  1.0000
  C   C16       1.0  0.40589  0.70844  0.59373  1.0000
  N   N1        1.0  0.89955  0.84104  0.83667  1.0000
  N   N2        1.0  0.10045  0.15895  0.16334  1.0000
  N   N3        1.0  0.26885  0.91325  0.87035  1.0000
  N   N4        1.0  0.73116  0.08673  0.12965  1.0000
  N   N5        1.0  0.75510  0.56146  0.11688  1.0000
  N   N6        1.0  0.24490  0.43855  0.88312  1.0000
  N   N7        1.0  0.26526  0.16955  0.65996  1.0000
  N   N8        1.0  0.73476  0.83047  0.34004  1.0000
  N   N9        1.0  0.89095  0.12301  0.63745  1.0000
  N   N10       1.0  0.10904  0.87697  0.36255  1.0000
  N   N11       1.0  0.42859  0.34032  0.35654  1.0000
  N   N12       1.0  0.57141  0.65968  0.64347  1.0000
  O   O1        1.0  0.43293  0.59664  0.13108  1.0000
  O   O2        1.0  0.56707  0.40336  0.86891  1.0000
  O   O3        1.0  0.75177  0.31462  0.34664  1.0000
  O   O4        1.0  0.24824  0.68538  0.65337  1.0000
  O   O5        1.0  0.93799  0.29991  0.84784  1.0000
  O   O6        1.0  0.06201  0.70009  0.15216  1.0000
