data_image0
_chemical_formula_structural       P4H18Pb5C28O20
_chemical_formula_sum              "P4 H18 Pb5 C28 O20"
_cell_length_a       9.91764
_cell_length_b       10.2933
_cell_length_c       9.83319
_cell_angle_alpha    91.5726
_cell_angle_beta     118.466
_cell_angle_gamma    92.6391

_space_group_name_H-M_alt    "P 1"
_space_group_IT_number       1

loop_
  _space_group_symop_operation_xyz
  'x, y, z'

loop_
  _atom_site_type_symbol
  _atom_site_label
  _atom_site_symmetry_multiplicity
  _atom_site_fract_x
  _atom_site_fract_y
  _atom_site_fract_z
  _atom_site_occupancy
  P   P1        1.0  0.68685  0.43944  0.87425  1.0000
  P   P2        1.0  0.27868  0.52920  0.07742  1.0000
  P   P3        1.0  0.81375  0.35429  0.45496  1.0000
  P   P4        1.0  0.09715  0.66591  0.50603  1.0000
  H   H1        1.0  0.91650  0.85961  0.02109  1.0000
  H   H2        1.0  0.55607  0.27794  0.03037  1.0000
  H   H3        1.0  0.57451  0.04304  0.08995  1.0000
  H   H4        1.0  0.84113  0.99211  0.85465  1.0000
  H   H5        1.0  0.82024  0.22417  0.79212  1.0000
  H   H6        1.0  0.17202  0.71757  0.23539  1.0000
  H   H7        1.0  0.13810  0.95620  0.21034  1.0000
  H   H8        1.0  0.34177  0.72453  0.90442  1.0000
  H   H9        1.0  0.29535  0.95232  0.86768  1.0000
  H   H10       1.0  0.53379  0.18598  0.27501  1.0000
  H   H11       1.0  0.47359  0.94797  0.28194  1.0000
  H   H12       1.0  0.91603  0.92139  0.67820  1.0000
  H   H13       1.0  0.98177  0.15604  0.66527  1.0000
  H   H14       1.0  0.94528  0.90372  0.39941  1.0000
  H   H15       1.0  0.03768  0.13283  0.40283  1.0000
  H   H16       1.0  0.50459  0.02195  0.62388  1.0000
  H   H17       1.0  0.41415  0.79459  0.63326  1.0000
  H   H18       1.0  0.30273  0.12110  0.91395  1.0000
  Pb  Pb1       1.0  0.49665  0.50320  0.50537  1.0000
  Pb  Pb2       1.0  0.03928  0.39666  0.22743  1.0000
  Pb  Pb3       1.0  0.69083  0.58913  0.21717  1.0000
  Pb  Pb4       1.0  0.93574  0.59209  0.73610  1.0000
  Pb  Pb5       1.0  0.26512  0.41022  0.76139  1.0000
  C   C1        1.0  0.68671  0.26605  0.90583  1.0000
  C   C2        1.0  0.61530  0.21449  0.98837  1.0000
  C   C3        1.0  0.62553  0.08415  0.02286  1.0000
  C   C4        1.0  0.71061  0.00370  0.97918  1.0000
  C   C5        1.0  0.78061  0.05450  0.89587  1.0000
  C   C6        1.0  0.76764  0.18453  0.85852  1.0000
  C   C7        1.0  0.72414  0.86755  0.02647  1.0000
  C   C8        1.0  0.25973  0.70469  0.07172  1.0000
  C   C9        1.0  0.19934  0.77014  0.15574  1.0000
  C   C10       1.0  0.17713  0.90269  0.13970  1.0000
  C   C11       1.0  0.21183  0.97160  0.03745  1.0000
  C   C12       1.0  0.26903  0.90504  0.95138  1.0000
  C   C13       1.0  0.29491  0.77354  0.97026  1.0000
  C   C14       1.0  0.19453  0.11413  0.03277  1.0000
  C   C15       1.0  0.76320  0.18563  0.46743  1.0000
  C   C16       1.0  0.61915  0.12687  0.36046  1.0000
  C   C17       1.0  0.58426  0.99506  0.36528  1.0000
  C   C18       1.0  0.68984  0.92088  0.48108  1.0000
  C   C19       1.0  0.83275  0.97977  0.58965  1.0000
  C   C20       1.0  0.86987  0.11052  0.58157  1.0000
  C   C21       1.0  0.64736  0.78106  0.49058  1.0000
  C   C22       1.0  0.17216  0.83277  0.51396  1.0000
  C   C23       1.0  0.06789  0.92952  0.44871  1.0000
  C   C24       1.0  0.11974  0.05801  0.45021  1.0000
  C   C25       1.0  0.27731  0.09191  0.51198  1.0000
  C   C26       1.0  0.38232  0.99527  0.57625  1.0000
  C   C27       1.0  0.33052  0.86756  0.57951  1.0000
  C   C28       1.0  0.33116  0.22947  0.50675  1.0000
  O   O1        1.0  0.79707  0.50558  0.03455  1.0000
  O   O2        1.0  0.74570  0.45676  0.75540  1.0000
  O   O3        1.0  0.52149  0.48151  0.80566  1.0000
  O   O4        1.0  0.63313  0.81240  0.06179  1.0000
  O   O5        1.0  0.84232  0.80255  0.03474  1.0000
  O   O6        1.0  0.13036  0.47121  0.93434  1.0000
  O   O7        1.0  0.41701  0.50131  0.05199  1.0000
  O   O8        1.0  0.28896  0.48233  0.22812  1.0000
  O   O9        1.0  0.25106  0.18088  0.95020  1.0000
  O   O10       1.0  0.13574  0.17293  0.09824  1.0000
  O   O11       1.0  0.95286  0.39761  0.61362  1.0000
  O   O12       1.0  0.67480  0.43758  0.41844  1.0000
  O   O13       1.0  0.84843  0.36306  0.31868  1.0000
  O   O14       1.0  0.69186  0.73815  0.62492  1.0000
  O   O15       1.0  0.56617  0.71202  0.36477  1.0000
  O   O16       1.0  0.11436  0.59211  0.37765  1.0000
  O   O17       1.0  0.19753  0.61410  0.66888  1.0000
  O   O18       1.0  0.92937  0.67307  0.47277  1.0000
  O   O19       1.0  0.23735  0.31971  0.48929  1.0000
  O   O20       1.0  0.46298  0.25318  0.52094  1.0000
