data_image0
_chemical_formula_structural       Zn4H32C48N16Cl8O4
_chemical_formula_sum              "Zn4 H32 C48 N16 Cl8 O4"
_cell_length_a       7.32775
_cell_length_b       11.7417
_cell_length_c       16.1512
_cell_angle_alpha    90.0001
_cell_angle_beta     100.571
_cell_angle_gamma    90

_space_group_name_H-M_alt    "P 1"
_space_group_IT_number       1

loop_
  _space_group_symop_operation_xyz
  'x, y, z'

loop_
  _atom_site_type_symbol
  _atom_site_label
  _atom_site_symmetry_multiplicity
  _atom_site_fract_x
  _atom_site_fract_y
  _atom_site_fract_z
  _atom_site_occupancy
  Zn  Zn1       1.0  0.23579  0.75851  0.51330  1.0000
  Zn  Zn2       1.0  0.73580  0.74149  0.01330  1.0000
  Zn  Zn3       1.0  0.76420  0.24149  0.48670  1.0000
  Zn  Zn4       1.0  0.26421  0.25851  0.98670  1.0000
  H   H1        1.0  0.31810  0.99044  0.45016  1.0000
  H   H2        1.0  0.81809  0.50955  0.95016  1.0000
  H   H3        1.0  0.68190  0.00956  0.54984  1.0000
  H   H4        1.0  0.18190  0.49045  0.04984  1.0000
  H   H5        1.0  0.15133  0.14020  0.35558  1.0000
  H   H6        1.0  0.65132  0.35979  0.85559  1.0000
  H   H7        1.0  0.84868  0.85979  0.64441  1.0000
  H   H8        1.0  0.34868  0.64021  0.14441  1.0000
  H   H9        1.0  0.82024  0.10533  0.28643  1.0000
  H   H10       1.0  0.32023  0.39467  0.78643  1.0000
  H   H11       1.0  0.17977  0.89467  0.71357  1.0000
  H   H12       1.0  0.67976  0.60533  0.21357  1.0000
  H   H13       1.0  0.85491  0.78005  0.41406  1.0000
  H   H14       1.0  0.35492  0.71996  0.91406  1.0000
  H   H15       1.0  0.14508  0.21996  0.58594  1.0000
  H   H16       1.0  0.64508  0.28005  0.08594  1.0000
  H   H17       1.0  0.98130  0.89971  0.18723  1.0000
  H   H18       1.0  0.48129  0.60030  0.68723  1.0000
  H   H19       1.0  0.01870  0.10029  0.81277  1.0000
  H   H20       1.0  0.51870  0.39970  0.31277  1.0000
  H   H21       1.0  0.75656  0.01787  0.08556  1.0000
  H   H22       1.0  0.25655  0.48213  0.58556  1.0000
  H   H23       1.0  0.24344  0.98213  0.91444  1.0000
  H   H24       1.0  0.74344  0.51787  0.41444  1.0000
  H   H25       1.0  0.42200  0.10737  0.12451  1.0000
  H   H26       1.0  0.92200  0.39263  0.62451  1.0000
  H   H27       1.0  0.57800  0.89262  0.87549  1.0000
  H   H28       1.0  0.07800  0.60737  0.37549  1.0000
  H   H29       1.0  0.88128  0.17679  0.00802  1.0000
  H   H30       1.0  0.38128  0.32321  0.50803  1.0000
  H   H31       1.0  0.11872  0.82321  0.99198  1.0000
  H   H32       1.0  0.61872  0.67679  0.49198  1.0000
  C   C1        1.0  0.17427  0.97852  0.41907  1.0000
  C   C2        1.0  0.67427  0.52147  0.91907  1.0000
  C   C3        1.0  0.82573  0.02148  0.58093  1.0000
  C   C4        1.0  0.32573  0.47852  0.08093  1.0000
  C   C5        1.0  0.08074  0.06137  0.36593  1.0000
  C   C6        1.0  0.58073  0.43863  0.86593  1.0000
  C   C7        1.0  0.91927  0.93863  0.63407  1.0000
  C   C8        1.0  0.41927  0.56137  0.13407  1.0000
  C   C9        1.0  0.89785  0.04151  0.32738  1.0000
  C   C10       1.0  0.39784  0.45849  0.82738  1.0000
  C   C11       1.0  0.10216  0.95850  0.67262  1.0000
  C   C12       1.0  0.60216  0.54151  0.17262  1.0000
  C   C13       1.0  0.81326  0.93826  0.34289  1.0000
  C   C14       1.0  0.31325  0.56174  0.84289  1.0000
  C   C15       1.0  0.18674  0.06175  0.65711  1.0000
  C   C16       1.0  0.68674  0.43826  0.15711  1.0000
  C   C17       1.0  0.91580  0.86000  0.39807  1.0000
  C   C18       1.0  0.41580  0.64000  0.89807  1.0000
  C   C19       1.0  0.08420  0.14000  0.60193  1.0000
  C   C20       1.0  0.58420  0.36000  0.10193  1.0000
  C   C21       1.0  0.62259  0.91291  0.30491  1.0000
  C   C22       1.0  0.12258  0.58710  0.80491  1.0000
  C   C23       1.0  0.37741  0.08710  0.69509  1.0000
  C   C24       1.0  0.87741  0.41290  0.19509  1.0000
  C   C25       1.0  0.35645  0.93882  0.22684  1.0000
  C   C26       1.0  0.85644  0.56118  0.72684  1.0000
  C   C27       1.0  0.64355  0.06118  0.77316  1.0000
  C   C28       1.0  0.14355  0.43882  0.27316  1.0000
  C   C29       1.0  0.21836  0.99830  0.16658  1.0000
  C   C30       1.0  0.71836  0.50170  0.66658  1.0000
  C   C31       1.0  0.78164  0.00170  0.83342  1.0000
  C   C32       1.0  0.28164  0.49830  0.33342  1.0000
  C   C33       1.0  0.02869  0.97134  0.15391  1.0000
  C   C34       1.0  0.52869  0.52866  0.65391  1.0000
  C   C35       1.0  0.97130  0.02866  0.84609  1.0000
  C   C36       1.0  0.47130  0.47134  0.34609  1.0000
  C   C37       1.0  0.90484  0.03663  0.09749  1.0000
  C   C38       1.0  0.40483  0.46337  0.59749  1.0000
  C   C39       1.0  0.09516  0.96337  0.90251  1.0000
  C   C40       1.0  0.59516  0.53662  0.40251  1.0000
  C   C41       1.0  0.27545  0.08664  0.11907  1.0000
  C   C42       1.0  0.77544  0.41336  0.61907  1.0000
  C   C43       1.0  0.72456  0.91336  0.88093  1.0000
  C   C44       1.0  0.22456  0.58664  0.38092  1.0000
  C   C45       1.0  0.97270  0.12440  0.05367  1.0000
  C   C46       1.0  0.47269  0.37560  0.55367  1.0000
  C   C47       1.0  0.02730  0.87560  0.94633  1.0000
  C   C48       1.0  0.52730  0.62440  0.44633  1.0000
  N   N1        1.0  0.09219  0.88015  0.43509  1.0000
  N   N2        1.0  0.59219  0.61985  0.93509  1.0000
  N   N3        1.0  0.90781  0.11985  0.56491  1.0000
  N   N4        1.0  0.40782  0.38015  0.06491  1.0000
  N   N5        1.0  0.51601  0.82898  0.32093  1.0000
  N   N6        1.0  0.01601  0.67102  0.82093  1.0000
  N   N7        1.0  0.48399  0.17102  0.67907  1.0000
  N   N8        1.0  0.98399  0.32898  0.17907  1.0000
  N   N9        1.0  0.34291  0.84617  0.27068  1.0000
  N   N10       1.0  0.84291  0.65384  0.77068  1.0000
  N   N11       1.0  0.65709  0.15384  0.72932  1.0000
  N   N12       1.0  0.15709  0.34616  0.22932  1.0000
  N   N13       1.0  0.15567  0.14694  0.06343  1.0000
  N   N14       1.0  0.65566  0.35306  0.56343  1.0000
  N   N15       1.0  0.84434  0.85306  0.93657  1.0000
  N   N16       1.0  0.34434  0.64694  0.43657  1.0000
  Cl  Cl1       1.0  0.01082  0.66073  0.55923  1.0000
  Cl  Cl2       1.0  0.51082  0.83927  0.05923  1.0000
  Cl  Cl3       1.0  0.98918  0.33927  0.44077  1.0000
  Cl  Cl4       1.0  0.48919  0.16073  0.94077  1.0000
  Cl  Cl5       1.0  0.47310  0.83226  0.60154  1.0000
  Cl  Cl6       1.0  0.97310  0.66774  0.10154  1.0000
  Cl  Cl7       1.0  0.52690  0.16774  0.39846  1.0000
  Cl  Cl8       1.0  0.02690  0.33226  0.89846  1.0000
  O   O1        1.0  0.53089  0.98533  0.24539  1.0000
  O   O2        1.0  0.03088  0.51467  0.74539  1.0000
  O   O3        1.0  0.46912  0.01467  0.75461  1.0000
  O   O4        1.0  0.96912  0.48533  0.25461  1.0000
