data_image0
_chemical_formula_structural       Tl4H4C8O16
_chemical_formula_sum              "Tl4 H4 C8 O16"
_cell_length_a       6.39273
_cell_length_b       6.49539
_cell_length_c       10.2858
_cell_angle_alpha    90.0001
_cell_angle_beta     94.0695
_cell_angle_gamma    90.0002

_space_group_name_H-M_alt    "P 1"
_space_group_IT_number       1

loop_
  _space_group_symop_operation_xyz
  'x, y, z'

loop_
  _atom_site_type_symbol
  _atom_site_label
  _atom_site_symmetry_multiplicity
  _atom_site_fract_x
  _atom_site_fract_y
  _atom_site_fract_z
  _atom_site_occupancy
  Tl  Tl1       1.0  0.45286  0.46665  0.20771  1.0000
  Tl  Tl2       1.0  0.04713  0.96664  0.79229  1.0000
  Tl  Tl3       1.0  0.54714  0.53336  0.79229  1.0000
  Tl  Tl4       1.0  0.95286  0.03337  0.20772  1.0000
  H   H1        1.0  0.06004  0.44373  0.70928  1.0000
  H   H2        1.0  0.43997  0.94373  0.29071  1.0000
  H   H3        1.0  0.93997  0.55626  0.29070  1.0000
  H   H4        1.0  0.56004  0.05627  0.70929  1.0000
  C   C1        1.0  0.08470  0.41496  0.51214  1.0000
  C   C2        1.0  0.41529  0.91499  0.48786  1.0000
  C   C3        1.0  0.91530  0.58501  0.48786  1.0000
  C   C4        1.0  0.58473  0.08501  0.51214  1.0000
  C   C5        1.0  0.94119  0.54161  0.05839  1.0000
  C   C6        1.0  0.55880  0.04163  0.94161  1.0000
  C   C7        1.0  0.05880  0.45839  0.94161  1.0000
  C   C8        1.0  0.44118  0.95839  0.05839  1.0000
  O   O1        1.0  0.13196  0.36303  0.63416  1.0000
  O   O2        1.0  0.36805  0.86303  0.36584  1.0000
  O   O3        1.0  0.86804  0.63696  0.36583  1.0000
  O   O4        1.0  0.63197  0.13697  0.63417  1.0000
  O   O5        1.0  0.16878  0.33367  0.42127  1.0000
  O   O6        1.0  0.33123  0.83370  0.57873  1.0000
  O   O7        1.0  0.83121  0.66630  0.57874  1.0000
  O   O8        1.0  0.66881  0.16630  0.42127  1.0000
  O   O9        1.0  0.01016  0.47365  0.17068  1.0000
  O   O10       1.0  0.48984  0.97366  0.82933  1.0000
  O   O11       1.0  0.98984  0.52636  0.82932  1.0000
  O   O12       1.0  0.51015  0.02636  0.17068  1.0000
  O   O13       1.0  0.79177  0.66519  0.03719  1.0000
  O   O14       1.0  0.70823  0.16521  0.96282  1.0000
  O   O15       1.0  0.20824  0.33481  0.96282  1.0000
  O   O16       1.0  0.29175  0.83480  0.03718  1.0000
