data_image0
_chemical_formula_structural       Zn2H12C12N8
_chemical_formula_sum              "Zn2 H12 C12 N8"
_cell_length_a       7.02063
_cell_length_b       7.84467
_cell_length_c       7.78227
_cell_angle_alpha    109.351
_cell_angle_beta     90.0001
_cell_angle_gamma    89.9998

_space_group_name_H-M_alt    "P 1"
_space_group_IT_number       1

loop_
  _space_group_symop_operation_xyz
  'x, y, z'

loop_
  _atom_site_type_symbol
  _atom_site_label
  _atom_site_symmetry_multiplicity
  _atom_site_fract_x
  _atom_site_fract_y
  _atom_site_fract_z
  _atom_site_occupancy
  Zn  Zn1       1.0  0.98385  0.80618  0.09395  1.0000
  Zn  Zn2       1.0  0.48385  0.19382  0.90605  1.0000
  H   H1        1.0  0.00362  0.64555  0.66184  1.0000
  H   H2        1.0  0.50362  0.35445  0.33816  1.0000
  H   H3        1.0  0.99696  0.11884  0.69965  1.0000
  H   H4        1.0  0.49696  0.88116  0.30035  1.0000
  H   H5        1.0  0.98385  0.37263  0.04896  1.0000
  H   H6        1.0  0.48385  0.62738  0.95104  1.0000
  H   H7        1.0  0.13335  0.19685  0.38554  1.0000
  H   H8        1.0  0.63335  0.80315  0.61446  1.0000
  H   H9        1.0  0.01970  0.39639  0.37344  1.0000
  H   H10       1.0  0.51970  0.60361  0.62656  1.0000
  H   H11       1.0  0.87765  0.20858  0.37821  1.0000
  H   H12       1.0  0.37765  0.79142  0.62179  1.0000
  C   C1        1.0  0.99952  0.80389  0.34459  1.0000
  C   C2        1.0  0.49951  0.19611  0.65541  1.0000
  C   C3        1.0  0.79079  0.95903  0.02413  1.0000
  C   C4        1.0  0.29079  0.04097  0.97587  1.0000
  C   C5        1.0  0.00020  0.53941  0.72355  1.0000
  C   C6        1.0  0.50020  0.46059  0.27645  1.0000
  C   C7        1.0  0.99706  0.26532  0.74672  1.0000
  C   C8        1.0  0.49706  0.73468  0.25328  1.0000
  C   C9        1.0  0.99071  0.39225  0.91779  1.0000
  C   C10       1.0  0.49071  0.60775  0.08222  1.0000
  C   C11       1.0  0.00876  0.28494  0.42830  1.0000
  C   C12       1.0  0.50877  0.71506  0.57170  1.0000
  N   N1        1.0  0.00858  0.81003  0.49677  1.0000
  N   N2        1.0  0.50858  0.18997  0.50323  1.0000
  N   N3        1.0  0.70219  0.05907  0.97360  1.0000
  N   N4        1.0  0.20219  0.94093  0.02640  1.0000
  N   N5        1.0  0.99281  0.56249  0.90165  1.0000
  N   N6        1.0  0.49281  0.43751  0.09835  1.0000
  N   N7        1.0  0.00319  0.36110  0.62636  1.0000
  N   N8        1.0  0.50319  0.63890  0.37364  1.0000
