data_image0
_chemical_formula_structural       Zn4H32C40N24O16
_chemical_formula_sum              "Zn4 H32 C40 N24 O16"
_cell_length_a       7.01032
_cell_length_b       9.44189
_cell_length_c       18.1969
_cell_angle_alpha    89.9999
_cell_angle_beta     90.0001
_cell_angle_gamma    90

_space_group_name_H-M_alt    "P 1"
_space_group_IT_number       1

loop_
  _space_group_symop_operation_xyz
  'x, y, z'

loop_
  _atom_site_type_symbol
  _atom_site_label
  _atom_site_symmetry_multiplicity
  _atom_site_fract_x
  _atom_site_fract_y
  _atom_site_fract_z
  _atom_site_occupancy
  Zn  Zn1       1.0  0.99922  0.25050  0.18621  1.0000
  Zn  Zn2       1.0  0.49922  0.74950  0.81379  1.0000
  Zn  Zn3       1.0  0.49922  0.24950  0.68621  1.0000
  Zn  Zn4       1.0  0.99922  0.75050  0.31379  1.0000
  H   H1        1.0  0.69813  0.12505  0.27226  1.0000
  H   H2        1.0  0.19813  0.87495  0.72774  1.0000
  H   H3        1.0  0.19813  0.37495  0.77226  1.0000
  H   H4        1.0  0.69814  0.62505  0.22774  1.0000
  H   H5        1.0  0.95722  0.58579  0.59757  1.0000
  H   H6        1.0  0.45723  0.41421  0.40243  1.0000
  H   H7        1.0  0.45722  0.91421  0.09757  1.0000
  H   H8        1.0  0.95722  0.08579  0.90243  1.0000
  H   H9        1.0  0.98333  0.16199  0.48282  1.0000
  H   H10       1.0  0.48333  0.83801  0.51717  1.0000
  H   H11       1.0  0.48333  0.33801  0.98283  1.0000
  H   H12       1.0  0.98333  0.66199  0.01717  1.0000
  H   H13       1.0  0.99195  0.20235  0.38807  1.0000
  H   H14       1.0  0.49195  0.79765  0.61193  1.0000
  H   H15       1.0  0.49195  0.29765  0.88807  1.0000
  H   H16       1.0  0.99195  0.70234  0.11193  1.0000
  H   H17       1.0  0.82138  0.45417  0.09652  1.0000
  H   H18       1.0  0.32138  0.54583  0.90348  1.0000
  H   H19       1.0  0.32138  0.04583  0.59652  1.0000
  H   H20       1.0  0.82138  0.95417  0.40348  1.0000
  H   H21       1.0  0.59037  0.50590  0.06506  1.0000
  H   H22       1.0  0.09038  0.49410  0.93494  1.0000
  H   H23       1.0  0.09038  0.99410  0.56506  1.0000
  H   H24       1.0  0.59038  0.00590  0.43494  1.0000
  H   H25       1.0  0.96044  0.76860  0.49584  1.0000
  H   H26       1.0  0.46044  0.23140  0.50416  1.0000
  H   H27       1.0  0.46044  0.73140  0.99584  1.0000
  H   H28       1.0  0.96044  0.26860  0.00416  1.0000
  H   H29       1.0  0.33439  0.10563  0.27593  1.0000
  H   H30       1.0  0.83439  0.89437  0.72407  1.0000
  H   H31       1.0  0.83439  0.39437  0.77593  1.0000
  H   H32       1.0  0.33439  0.60563  0.22407  1.0000
  C   C1        1.0  0.58864  0.36110  0.14561  1.0000
  C   C2        1.0  0.08864  0.63890  0.85439  1.0000
  C   C3        1.0  0.08864  0.13891  0.64561  1.0000
  C   C4        1.0  0.58864  0.86110  0.35439  1.0000
  C   C5        1.0  0.60662  0.18873  0.23684  1.0000
  C   C6        1.0  0.10662  0.81127  0.76316  1.0000
  C   C7        1.0  0.10662  0.31127  0.73684  1.0000
  C   C8        1.0  0.60662  0.68873  0.26316  1.0000
  C   C9        1.0  0.98050  0.47624  0.39784  1.0000
  C   C10       1.0  0.48050  0.52376  0.60216  1.0000
  C   C11       1.0  0.48051  0.02377  0.89784  1.0000
  C   C12       1.0  0.98050  0.97624  0.10216  1.0000
  C   C13       1.0  0.96335  0.55301  0.53995  1.0000
  C   C14       1.0  0.46335  0.44699  0.46005  1.0000
  C   C15       1.0  0.46335  0.94699  0.03995  1.0000
  C   C16       1.0  0.96335  0.05301  0.96005  1.0000
  C   C17       1.0  0.99139  0.44074  0.31776  1.0000
  C   C18       1.0  0.49138  0.55926  0.68224  1.0000
  C   C19       1.0  0.49138  0.05927  0.81776  1.0000
  C   C20       1.0  0.99138  0.94074  0.18224  1.0000
  C   C21       1.0  0.97429  0.37244  0.45541  1.0000
  C   C22       1.0  0.47429  0.62756  0.54459  1.0000
  C   C23       1.0  0.47429  0.12756  0.95541  1.0000
  C   C24       1.0  0.97429  0.87244  0.04459  1.0000
  C   C25       1.0  0.96678  0.65562  0.48431  1.0000
  C   C26       1.0  0.46678  0.34438  0.51568  1.0000
  C   C27       1.0  0.46678  0.84438  0.98432  1.0000
  C   C28       1.0  0.96678  0.15562  0.01569  1.0000
  C   C29       1.0  0.25161  0.43245  0.09955  1.0000
  C   C30       1.0  0.75161  0.56755  0.90045  1.0000
  C   C31       1.0  0.75161  0.06756  0.59955  1.0000
  C   C32       1.0  0.25161  0.93244  0.40045  1.0000
  C   C33       1.0  0.38434  0.34828  0.14801  1.0000
  C   C34       1.0  0.88434  0.65172  0.85199  1.0000
  C   C35       1.0  0.88434  0.15172  0.64801  1.0000
  C   C36       1.0  0.38434  0.84828  0.35199  1.0000
  C   C37       1.0  0.40942  0.17755  0.23925  1.0000
  C   C38       1.0  0.90942  0.82245  0.76075  1.0000
  C   C39       1.0  0.90942  0.32245  0.73925  1.0000
  C   C40       1.0  0.40942  0.67755  0.26075  1.0000
  N   N1        1.0  0.69561  0.27704  0.19033  1.0000
  N   N2        1.0  0.19561  0.72295  0.80967  1.0000
  N   N3        1.0  0.19561  0.22296  0.69033  1.0000
  N   N4        1.0  0.69561  0.77704  0.30967  1.0000
  N   N5        1.0  0.97377  0.23330  0.44127  1.0000
  N   N6        1.0  0.47377  0.76670  0.55873  1.0000
  N   N7        1.0  0.47377  0.26670  0.94127  1.0000
  N   N8        1.0  0.97377  0.73330  0.05873  1.0000
  N   N9        1.0  0.30321  0.25724  0.19385  1.0000
  N   N10       1.0  0.80321  0.74276  0.80615  1.0000
  N   N11       1.0  0.80321  0.24276  0.69385  1.0000
  N   N12       1.0  0.30321  0.75724  0.30615  1.0000
  N   N13       1.0  0.67566  0.45346  0.10154  1.0000
  N   N14       1.0  0.17566  0.54654  0.89846  1.0000
  N   N15       1.0  0.17566  0.04654  0.60154  1.0000
  N   N16       1.0  0.67566  0.95346  0.39846  1.0000
  N   N17       1.0  0.96773  0.41449  0.52695  1.0000
  N   N18       1.0  0.46773  0.58551  0.47305  1.0000
  N   N19       1.0  0.46773  0.08551  0.02695  1.0000
  N   N20       1.0  0.96773  0.91449  0.97305  1.0000
  N   N21       1.0  0.97676  0.61442  0.41415  1.0000
  N   N22       1.0  0.47676  0.38558  0.58585  1.0000
  N   N23       1.0  0.47676  0.88558  0.91415  1.0000
  N   N24       1.0  0.97676  0.11442  0.08585  1.0000
  O   O1        1.0  0.99736  0.30994  0.30009  1.0000
  O   O2        1.0  0.49736  0.69006  0.69991  1.0000
  O   O3        1.0  0.49736  0.19006  0.80009  1.0000
  O   O4        1.0  0.99736  0.80994  0.19991  1.0000
  O   O5        1.0  0.99371  0.54160  0.27155  1.0000
  O   O6        1.0  0.49370  0.45839  0.72845  1.0000
  O   O7        1.0  0.49370  0.95840  0.77155  1.0000
  O   O8        1.0  0.99370  0.04160  0.22845  1.0000
  O   O9        1.0  0.07277  0.41818  0.11273  1.0000
  O   O10       1.0  0.57277  0.58182  0.88727  1.0000
  O   O11       1.0  0.57278  0.08182  0.61273  1.0000
  O   O12       1.0  0.07277  0.91818  0.38727  1.0000
  O   O13       1.0  0.32254  0.50952  0.05012  1.0000
  O   O14       1.0  0.82255  0.49048  0.94988  1.0000
  O   O15       1.0  0.82255  0.99049  0.55012  1.0000
  O   O16       1.0  0.32255  0.00951  0.44988  1.0000
