data_image0
_chemical_formula_structural       Cu2H40C52N4Cl4O10
_chemical_formula_sum              "Cu2 H40 C52 N4 Cl4 O10"
_cell_length_a       9.99838
_cell_length_b       10.4306
_cell_length_c       13.3393
_cell_angle_alpha    112.948
_cell_angle_beta     102.511
_cell_angle_gamma    90.0454

_space_group_name_H-M_alt    "P 1"
_space_group_IT_number       1

loop_
  _space_group_symop_operation_xyz
  'x, y, z'

loop_
  _atom_site_type_symbol
  _atom_site_label
  _atom_site_symmetry_multiplicity
  _atom_site_fract_x
  _atom_site_fract_y
  _atom_site_fract_z
  _atom_site_occupancy
  Cu  Cu1       1.0  1.00000  1.00000  1.00000  1.0000
  Cu  Cu2       1.0  0.50000  0.00000  0.00000  1.0000
  H   H1        1.0  0.70245  0.07889  0.93831  1.0000
  H   H2        1.0  0.79765  0.14046  0.06164  1.0000
  H   H3        1.0  0.29755  0.92111  0.06168  1.0000
  H   H4        1.0  0.20236  0.85953  0.93836  1.0000
  H   H5        1.0  0.79266  0.26959  0.57509  1.0000
  H   H6        1.0  0.70774  0.69453  0.42499  1.0000
  H   H7        1.0  0.20733  0.73041  0.42491  1.0000
  H   H8        1.0  0.29227  0.30547  0.57501  1.0000
  H   H9        1.0  0.71128  0.19123  0.70864  1.0000
  H   H10       1.0  0.78904  0.48299  0.29160  1.0000
  H   H11       1.0  0.28871  0.80877  0.29136  1.0000
  H   H12       1.0  0.21097  0.51702  0.70840  1.0000
  H   H13       1.0  0.75993  0.34376  0.90895  1.0000
  H   H14       1.0  0.74020  0.43548  0.09119  1.0000
  H   H15       1.0  0.24006  0.65624  0.09105  1.0000
  H   H16       1.0  0.25981  0.56453  0.90881  1.0000
  H   H17       1.0  0.88562  0.58229  0.97909  1.0000
  H   H18       1.0  0.61444  0.60366  0.02077  1.0000
  H   H19       1.0  0.11438  0.41770  0.02091  1.0000
  H   H20       1.0  0.38556  0.39636  0.97924  1.0000
  H   H21       1.0  0.78243  0.90565  0.79166  1.0000
  H   H22       1.0  0.71743  0.11457  0.20875  1.0000
  H   H23       1.0  0.21758  0.09435  0.20834  1.0000
  H   H24       1.0  0.28256  0.88541  0.79124  1.0000
  H   H25       1.0  0.75611  0.89565  0.59886  1.0000
  H   H26       1.0  0.74406  0.29742  0.40156  1.0000
  H   H27       1.0  0.24389  0.10435  0.40114  1.0000
  H   H28       1.0  0.25594  0.70258  0.59843  1.0000
  H   H29       1.0  0.16589  0.11025  0.70937  1.0000
  H   H30       1.0  0.33465  0.40166  0.29069  1.0000
  H   H31       1.0  0.83412  0.88974  0.29063  1.0000
  H   H32       1.0  0.66536  0.59835  0.70931  1.0000
  H   H33       1.0  0.17398  0.11253  0.89638  1.0000
  H   H34       1.0  0.32616  0.21632  0.10388  1.0000
  H   H35       1.0  0.82602  0.88747  0.10362  1.0000
  H   H36       1.0  0.67384  0.78369  0.89611  1.0000
  H   H37       1.0  0.84552  0.94920  0.46569  1.0000
  H   H38       1.0  0.65482  0.48493  0.53435  1.0000
  H   H39       1.0  0.15448  0.05080  0.53430  1.0000
  H   H40       1.0  0.34517  0.51507  0.46565  1.0000
  C   C1        1.0  0.91369  0.55788  0.81785  1.0000
  C   C2        1.0  0.58656  0.74020  0.18203  1.0000
  C   C3        1.0  0.08630  0.44211  0.18215  1.0000
  C   C4        1.0  0.41343  0.25980  0.81798  1.0000
  C   C5        1.0  0.88665  0.46798  0.70412  1.0000
  C   C6        1.0  0.61371  0.76387  0.29579  1.0000
  C   C7        1.0  0.11335  0.53201  0.29589  1.0000
  C   C8        1.0  0.38630  0.23614  0.70421  1.0000
  C   C9        1.0  0.81435  0.33637  0.66418  1.0000
  C   C10       1.0  0.68609  0.67236  0.33589  1.0000
  C   C11       1.0  0.18564  0.66363  0.33582  1.0000
  C   C12       1.0  0.31391  0.32765  0.66412  1.0000
  C   C13       1.0  0.76927  0.29262  0.73859  1.0000
  C   C14       1.0  0.73116  0.55441  0.26156  1.0000
  C   C15       1.0  0.23073  0.70737  0.26141  1.0000
  C   C16       1.0  0.26885  0.44560  0.73845  1.0000
  C   C17       1.0  0.79605  0.38001  0.85228  1.0000
  C   C18       1.0  0.70418  0.52826  0.14783  1.0000
  C   C19       1.0  0.20396  0.61999  0.14772  1.0000
  C   C20       1.0  0.29583  0.47176  0.85218  1.0000
  C   C21       1.0  0.86630  0.51177  0.89093  1.0000
  C   C22       1.0  0.63392  0.62121  0.10898  1.0000
  C   C23       1.0  0.13370  0.48823  0.10907  1.0000
  C   C24       1.0  0.36609  0.37880  0.89102  1.0000
  C   C25       1.0  0.98925  0.70149  0.86500  1.0000
  C   C26       1.0  0.51083  0.83652  0.13489  1.0000
  C   C27       1.0  0.01074  0.29850  0.13500  1.0000
  C   C28       1.0  0.48916  0.16347  0.86511  1.0000
  C   C29       1.0  0.86490  0.94845  0.76900  1.0000
  C   C30       1.0  0.63511  0.17998  0.23144  1.0000
  C   C31       1.0  0.13510  0.05154  0.23100  1.0000
  C   C32       1.0  0.36489  0.82002  0.76856  1.0000
  C   C33       1.0  0.85190  0.94230  0.66154  1.0000
  C   C34       1.0  0.64833  0.28140  0.33880  1.0000
  C   C35       1.0  0.14810  0.05769  0.33845  1.0000
  C   C36       1.0  0.35167  0.71859  0.66120  1.0000
  C   C37       1.0  0.96130  0.99682  0.63447  1.0000
  C   C38       1.0  0.53906  0.36296  0.36556  1.0000
  C   C39       1.0  0.03870  0.00318  0.36553  1.0000
  C   C40       1.0  0.46094  0.63705  0.63444  1.0000
  C   C41       1.0  0.07852  0.06118  0.72205  1.0000
  C   C42       1.0  0.42181  0.33976  0.27806  1.0000
  C   C43       1.0  0.92149  0.93881  0.27795  1.0000
  C   C44       1.0  0.57818  0.66025  0.72194  1.0000
  C   C45       1.0  0.08362  0.06499  0.82779  1.0000
  C   C46       1.0  0.41656  0.23755  0.17245  1.0000
  C   C47       1.0  0.91638  0.93501  0.17220  1.0000
  C   C48       1.0  0.58344  0.76244  0.82755  1.0000
  C   C49       1.0  0.94841  0.98533  0.52048  1.0000
  C   C50       1.0  0.55180  0.46548  0.47956  1.0000
  C   C51       1.0  0.05159  0.01467  0.47952  1.0000
  C   C52       1.0  0.44820  0.53451  0.52044  1.0000
  N   N1        1.0  0.97917  0.00756  0.85075  1.0000
  N   N2        1.0  0.52086  0.15723  0.14973  1.0000
  N   N3        1.0  0.02083  0.99245  0.14924  1.0000
  N   N4        1.0  0.47914  0.84278  0.85027  1.0000
  Cl  Cl1       1.0  0.93265  0.52219  0.60705  1.0000
  Cl  Cl2       1.0  0.56753  0.91471  0.39279  1.0000
  Cl  Cl3       1.0  0.06734  0.47781  0.39296  1.0000
  Cl  Cl4       1.0  0.43247  0.08529  0.60722  1.0000
  O   O1        1.0  0.10275  0.71678  0.84319  1.0000
  O   O2        1.0  0.39737  0.87336  0.15679  1.0000
  O   O3        1.0  0.89724  0.28322  0.15680  1.0000
  O   O4        1.0  0.60262  0.12664  0.84321  1.0000
  O   O5        1.0  0.92712  0.79759  0.92747  1.0000
  O   O6        1.0  0.57276  0.87037  0.07230  1.0000
  O   O7        1.0  0.07287  0.20240  0.07252  1.0000
  O   O8        1.0  0.42723  0.12963  0.92771  1.0000
  O   O9        1.0  0.75012  0.05136  0.99995  1.0000
  O   O10       1.0  0.24988  0.94864  0.00005  1.0000
