data_image0
_chemical_formula_structural       Cd2H44C64N8O12
_chemical_formula_sum              "Cd2 H44 C64 N8 O12"
_cell_length_a       7.72306
_cell_length_b       14.1765
_cell_length_c       14.1777
_cell_angle_alpha    79.1966
_cell_angle_beta     74.1503
_cell_angle_gamma    74.1161

_space_group_name_H-M_alt    "P 1"
_space_group_IT_number       1

loop_
  _space_group_symop_operation_xyz
  'x, y, z'

loop_
  _atom_site_type_symbol
  _atom_site_label
  _atom_site_symmetry_multiplicity
  _atom_site_fract_x
  _atom_site_fract_y
  _atom_site_fract_z
  _atom_site_occupancy
  Cd  Cd1       1.0  0.07232  0.24977  0.74965  1.0000
  Cd  Cd2       1.0  0.92767  0.75023  0.25034  1.0000
  H   H1        1.0  0.57663  0.39666  0.65220  1.0000
  H   H2        1.0  0.62400  0.10361  0.84767  1.0000
  H   H3        1.0  0.42338  0.60334  0.34781  1.0000
  H   H4        1.0  0.37600  0.89638  0.15232  1.0000
  H   H5        1.0  0.20029  0.50725  0.46142  1.0000
  H   H6        1.0  0.16933  0.99174  0.03895  1.0000
  H   H7        1.0  0.79972  0.49275  0.53858  1.0000
  H   H8        1.0  0.83066  0.00826  0.96105  1.0000
  H   H9        1.0  0.05080  0.03328  0.80040  1.0000
  H   H10       1.0  0.88530  0.46665  0.69928  1.0000
  H   H11       1.0  0.94919  0.96673  0.19960  1.0000
  H   H12       1.0  0.11469  0.53336  0.30072  1.0000
  H   H13       1.0  0.82808  0.94313  0.59295  1.0000
  H   H14       1.0  0.36455  0.55687  0.90713  1.0000
  H   H15       1.0  0.17193  0.05687  0.40705  1.0000
  H   H16       1.0  0.63545  0.44313  0.09288  1.0000
  H   H17       1.0  0.80470  0.11501  0.50341  1.0000
  H   H18       1.0  0.42431  0.38501  0.99673  1.0000
  H   H19       1.0  0.19530  0.88499  0.49659  1.0000
  H   H20       1.0  0.57570  0.61498  0.00328  1.0000
  H   H21       1.0  0.91436  0.23697  0.56527  1.0000
  H   H22       1.0  0.71824  0.26295  0.93451  1.0000
  H   H23       1.0  0.08564  0.76303  0.43472  1.0000
  H   H24       1.0  0.28176  0.73705  0.06549  1.0000
  H   H25       1.0  0.84115  0.79452  0.93714  1.0000
  H   H26       1.0  0.57348  0.70551  0.56279  1.0000
  H   H27       1.0  0.15885  0.20548  0.06286  1.0000
  H   H28       1.0  0.42650  0.29448  0.43722  1.0000
  H   H29       1.0  0.86143  0.65350  0.06318  1.0000
  H   H30       1.0  0.57859  0.84654  0.43678  1.0000
  H   H31       1.0  0.13857  0.34650  0.93682  1.0000
  H   H32       1.0  0.42140  0.15345  0.56322  1.0000
  H   H33       1.0  0.12641  0.45928  0.83576  1.0000
  H   H34       1.0  0.42100  0.04068  0.66421  1.0000
  H   H35       1.0  0.87360  0.54072  0.16423  1.0000
  H   H36       1.0  0.57899  0.95932  0.33579  1.0000
  H   H37       1.0  0.10188  0.60231  0.70988  1.0000
  H   H38       1.0  0.41362  0.89768  0.79009  1.0000
  H   H39       1.0  0.89812  0.39769  0.29012  1.0000
  H   H40       1.0  0.58638  0.10232  0.20992  1.0000
  H   H41       1.0  0.99802  0.87654  0.82460  1.0000
  H   H42       1.0  0.69943  0.62339  0.67524  1.0000
  H   H43       1.0  0.00198  0.12346  0.17539  1.0000
  H   H44       1.0  0.30056  0.37662  0.32477  1.0000
  C   C1        1.0  0.25102  0.38550  0.62895  1.0000
  C   C2        1.0  0.26421  0.11387  0.87135  1.0000
  C   C3        1.0  0.74899  0.61449  0.37105  1.0000
  C   C4        1.0  0.73578  0.88613  0.12865  1.0000
  C   C5        1.0  0.37757  0.44606  0.56261  1.0000
  C   C6        1.0  0.38565  0.05356  0.93751  1.0000
  C   C7        1.0  0.62245  0.55394  0.43739  1.0000
  C   C8        1.0  0.61434  0.94644  0.06248  1.0000
  C   C9        1.0  0.54527  0.44237  0.58529  1.0000
  C   C10       1.0  0.57213  0.05776  0.91462  1.0000
  C   C11       1.0  0.45475  0.55763  0.41471  1.0000
  C   C12       1.0  0.42787  0.94223  0.08537  1.0000
  C   C13       1.0  0.33268  0.50396  0.47705  1.0000
  C   C14       1.0  0.31388  0.99548  0.02313  1.0000
  C   C15       1.0  0.66733  0.49604  0.52295  1.0000
  C   C16       1.0  0.68612  0.00451  0.97686  1.0000
  C   C17       1.0  0.99637  0.04770  0.73433  1.0000
  C   C18       1.0  0.77929  0.45225  0.76544  1.0000
  C   C19       1.0  0.00363  0.95231  0.26567  1.0000
  C   C20       1.0  0.22071  0.54775  0.23456  1.0000
  C   C21       1.0  0.94336  0.97374  0.70336  1.0000
  C   C22       1.0  0.62106  0.52624  0.79653  1.0000
  C   C23       1.0  0.05664  0.02627  0.29663  1.0000
  C   C24       1.0  0.37893  0.47377  0.20348  1.0000
  C   C25       1.0  0.87058  0.99844  0.61910  1.0000
  C   C26       1.0  0.48880  0.50157  0.88092  1.0000
  C   C27       1.0  0.12943  0.00156  0.38090  1.0000
  C   C28       1.0  0.51120  0.49843  0.11909  1.0000
  C   C29       1.0  0.85789  0.09386  0.56975  1.0000
  C   C30       1.0  0.52257  0.40615  0.93026  1.0000
  C   C31       1.0  0.14211  0.90614  0.43024  1.0000
  C   C32       1.0  0.47743  0.59385  0.06974  1.0000
  C   C33       1.0  0.91655  0.16270  0.60391  1.0000
  C   C34       1.0  0.68447  0.33727  0.89596  1.0000
  C   C35       1.0  0.08345  0.83730  0.39608  1.0000
  C   C36       1.0  0.31554  0.66273  0.10404  1.0000
  C   C37       1.0  0.96112  0.79250  0.73283  1.0000
  C   C38       1.0  0.48643  0.70751  0.76710  1.0000
  C   C39       1.0  0.03887  0.20750  0.26716  1.0000
  C   C40       1.0  0.51355  0.29249  0.23291  1.0000
  C   C41       1.0  0.97106  0.70853  0.81355  1.0000
  C   C42       1.0  0.49322  0.79147  0.68642  1.0000
  C   C43       1.0  0.02894  0.29147  0.18646  1.0000
  C   C44       1.0  0.50678  0.20852  0.31358  1.0000
  C   C45       1.0  0.90498  0.72128  0.91391  1.0000
  C   C46       1.0  0.54051  0.77875  0.58605  1.0000
  C   C47       1.0  0.09502  0.27872  0.08609  1.0000
  C   C48       1.0  0.45948  0.22125  0.41395  1.0000
  C   C49       1.0  0.91590  0.64018  0.98625  1.0000
  C   C50       1.0  0.54264  0.85986  0.51373  1.0000
  C   C51       1.0  0.08410  0.35982  0.01375  1.0000
  C   C52       1.0  0.45735  0.14014  0.48628  1.0000
  C   C53       1.0  0.99375  0.54325  0.96142  1.0000
  C   C54       1.0  0.49846  0.95676  0.53858  1.0000
  C   C55       1.0  0.00625  0.45675  0.03858  1.0000
  C   C56       1.0  0.50153  0.04324  0.46143  1.0000
  C   C57       1.0  0.06045  0.53173  0.86013  1.0000
  C   C58       1.0  0.45204  0.96825  0.63987  1.0000
  C   C59       1.0  0.93955  0.46827  0.13987  1.0000
  C   C60       1.0  0.54795  0.03174  0.36014  1.0000
  C   C61       1.0  0.04826  0.61257  0.78777  1.0000
  C   C62       1.0  0.44835  0.88742  0.71222  1.0000
  C   C63       1.0  0.95173  0.38744  0.21223  1.0000
  C   C64       1.0  0.55165  0.11258  0.28779  1.0000
  N   N1        1.0  0.98279  0.13914  0.68599  1.0000
  N   N2        1.0  0.80910  0.36079  0.81375  1.0000
  N   N3        1.0  0.01720  0.86086  0.31401  1.0000
  N   N4        1.0  0.19090  0.63921  0.18625  1.0000
  N   N5        1.0  0.96253  0.88126  0.75958  1.0000
  N   N6        1.0  0.60365  0.61871  0.74032  1.0000
  N   N7        1.0  0.03748  0.11874  0.24042  1.0000
  N   N8        1.0  0.39634  0.38129  0.25969  1.0000
  O   O1        1.0  0.26411  0.36056  0.71861  1.0000
  O   O2        1.0  0.34198  0.13876  0.78159  1.0000
  O   O3        1.0  0.73591  0.63943  0.28139  1.0000
  O   O4        1.0  0.65801  0.86124  0.21841  1.0000
  O   O5        1.0  0.13849  0.35913  0.59345  1.0000
  O   O6        1.0  0.08970  0.14012  0.90693  1.0000
  O   O7        1.0  0.86152  0.64087  0.40655  1.0000
  O   O8        1.0  0.91030  0.85987  0.09306  1.0000
  O   O9        1.0  0.95325  0.78311  0.64917  1.0000
  O   O10       1.0  0.38537  0.71692  0.85079  1.0000
  O   O11       1.0  0.04673  0.21689  0.35083  1.0000
  O   O12       1.0  0.61461  0.28308  0.14921  1.0000
