data_image0
_chemical_formula_structural       Zn2H34C34N2O8
_chemical_formula_sum              "Zn2 H34 C34 N2 O8"
_cell_length_a       6.54162
_cell_length_b       7.3604
_cell_length_c       16.854
_cell_angle_alpha    91.7798
_cell_angle_beta     101.23
_cell_angle_gamma    90.0107

_space_group_name_H-M_alt    "P 1"
_space_group_IT_number       1

loop_
  _space_group_symop_operation_xyz
  'x, y, z'

loop_
  _atom_site_type_symbol
  _atom_site_label
  _atom_site_symmetry_multiplicity
  _atom_site_fract_x
  _atom_site_fract_y
  _atom_site_fract_z
  _atom_site_occupancy
  Zn  Zn1       1.0  0.65037  0.73376  0.46546  1.0000
  Zn  Zn2       1.0  0.18462  0.26613  0.53429  1.0000
  H   H1        1.0  0.65974  0.63525  0.31568  1.0000
  H   H2        1.0  0.34454  0.36468  0.68405  1.0000
  H   H3        1.0  0.07954  0.76824  0.98516  1.0000
  H   H4        1.0  0.09681  0.23318  0.01486  1.0000
  H   H5        1.0  0.87341  0.90475  0.08262  1.0000
  H   H6        1.0  0.79230  0.09697  0.91756  1.0000
  H   H7        1.0  0.01406  0.90215  0.22988  1.0000
  H   H8        1.0  0.78500  0.09878  0.77028  1.0000
  H   H9        1.0  0.56505  0.62801  0.18399  1.0000
  H   H10       1.0  0.38331  0.37100  0.81586  1.0000
  H   H11       1.0  0.42324  0.62789  0.03786  1.0000
  H   H12       1.0  0.38833  0.37196  0.96199  1.0000
  H   H13       1.0  0.47423  0.91327  0.31955  1.0000
  H   H14       1.0  0.15549  0.08651  0.68040  1.0000
  H   H15       1.0  0.26103  0.79106  0.34101  1.0000
  H   H16       1.0  0.92057  0.20851  0.65906  1.0000
  H   H17       1.0  0.30782  0.44019  0.29070  1.0000
  H   H18       1.0  0.01754  0.55942  0.70911  1.0000
  H   H19       1.0  0.73500  0.33613  0.38873  1.0000
  H   H20       1.0  0.34680  0.66380  0.61133  1.0000
  H   H21       1.0  0.52609  0.18209  0.35555  1.0000
  H   H22       1.0  0.17097  0.81770  0.64443  1.0000
  H   H23       1.0  0.95247  0.42932  0.29660  1.0000
  H   H24       1.0  0.65698  0.57153  0.70381  1.0000
  H   H25       1.0  0.03169  0.43238  0.15748  1.0000
  H   H26       1.0  0.87459  0.56834  0.84316  1.0000
  H   H27       1.0  0.78333  0.28838  0.04173  1.0000
  H   H28       1.0  0.74059  0.71118  0.95873  1.0000
  H   H29       1.0  0.46125  0.13583  0.06598  1.0000
  H   H30       1.0  0.39393  0.86300  0.93404  1.0000
  H   H31       1.0  0.37705  0.14483  0.20264  1.0000
  H   H32       1.0  0.17387  0.85414  0.79713  1.0000
  H   H33       1.0  0.71761  0.99666  0.59338  1.0000
  H   H34       1.0  0.12392  0.00328  0.40634  1.0000
  C   C1        1.0  0.13965  0.76664  0.05019  1.0000
  C   C2        1.0  0.09164  0.23432  0.94984  1.0000
  C   C3        1.0  0.02484  0.84316  0.10449  1.0000
  C   C4        1.0  0.92206  0.15791  0.89564  1.0000
  C   C5        1.0  0.10406  0.84185  0.18761  1.0000
  C   C6        1.0  0.91773  0.15885  0.81250  1.0000
  C   C7        1.0  0.29955  0.76586  0.21747  1.0000
  C   C8        1.0  0.08350  0.23412  0.78253  1.0000
  C   C9        1.0  0.41291  0.68869  0.16268  1.0000
  C   C10       1.0  0.25231  0.31090  0.83723  1.0000
  C   C11       1.0  0.33301  0.68859  0.07967  1.0000
  C   C12       1.0  0.25579  0.31146  0.92026  1.0000
  C   C13       1.0  0.38838  0.78357  0.30711  1.0000
  C   C14       1.0  0.08206  0.21617  0.69286  1.0000
  C   C15       1.0  0.43692  0.46087  0.34303  1.0000
  C   C16       1.0  0.09428  0.53889  0.65683  1.0000
  C   C17       1.0  0.34886  0.44317  0.42019  1.0000
  C   C18       1.0  0.92895  0.55676  0.57964  1.0000
  C   C19       1.0  0.59815  0.30806  0.34057  1.0000
  C   C20       1.0  0.25802  0.69174  0.65943  1.0000
  C   C21       1.0  0.65787  0.29129  0.25882  1.0000
  C   C22       1.0  0.39930  0.70861  0.74128  1.0000
  C   C23       1.0  0.84339  0.36896  0.24523  1.0000
  C   C24       1.0  0.59868  0.63146  0.75508  1.0000
  C   C25       1.0  0.88879  0.36823  0.16747  1.0000
  C   C26       1.0  0.72144  0.63210  0.83297  1.0000
  C   C27       1.0  0.74988  0.28688  0.10260  1.0000
  C   C28       1.0  0.64675  0.71289  0.89775  1.0000
  C   C29       1.0  0.56813  0.20325  0.11599  1.0000
  C   C30       1.0  0.45135  0.79604  0.88414  1.0000
  C   C31       1.0  0.52175  0.20704  0.19334  1.0000
  C   C32       1.0  0.32805  0.79230  0.80668  1.0000
  C   C33       1.0  0.57036  0.04550  0.55677  1.0000
  C   C34       1.0  0.01338  0.95429  0.44292  1.0000
  N   N1        1.0  0.53276  0.64106  0.34272  1.0000
  N   N2        1.0  0.19038  0.35877  0.65711  1.0000
  O   O1        1.0  0.41058  0.55033  0.48026  1.0000
  O   O2        1.0  0.93038  0.44982  0.51950  1.0000
  O   O3        1.0  0.22256  0.31160  0.41987  1.0000
  O   O4        1.0  0.80298  0.68828  0.57996  1.0000
  O   O5        1.0  0.50196  0.96463  0.48893  1.0000
  O   O6        1.0  0.01245  0.03537  0.51068  1.0000
  O   O7        1.0  0.48222  0.17772  0.58615  1.0000
  O   O8        1.0  0.89624  0.82169  0.41359  1.0000
