data_image0
_chemical_formula_structural       H20Pb2C30N6Cl6O16
_chemical_formula_sum              "H20 Pb2 C30 N6 Cl6 O16"
_cell_length_a       10.0468
_cell_length_b       10.0912
_cell_length_c       10.5234
_cell_angle_alpha    85.561
_cell_angle_beta     61.4862
_cell_angle_gamma    80.6722

_space_group_name_H-M_alt    "P 1"
_space_group_IT_number       1

loop_
  _space_group_symop_operation_xyz
  'x, y, z'

loop_
  _atom_site_type_symbol
  _atom_site_label
  _atom_site_symmetry_multiplicity
  _atom_site_fract_x
  _atom_site_fract_y
  _atom_site_fract_z
  _atom_site_occupancy
  H   H1        1.0  0.27814  0.61090  0.07438  1.0000
  H   H2        1.0  0.64747  0.88911  0.07438  1.0000
  H   H3        1.0  0.72185  0.38910  0.92562  1.0000
  H   H4        1.0  0.35253  0.11088  0.92561  1.0000
  H   H5        1.0  0.46145  0.55016  0.17613  1.0000
  H   H6        1.0  0.36242  0.94985  0.17613  1.0000
  H   H7        1.0  0.53854  0.44984  0.82387  1.0000
  H   H8        1.0  0.63759  0.05015  0.82387  1.0000
  H   H9        1.0  0.35759  0.56624  0.44477  1.0000
  H   H10       1.0  0.19765  0.93377  0.44477  1.0000
  H   H11       1.0  0.64242  0.43376  0.55523  1.0000
  H   H12       1.0  0.80236  0.06623  0.55522  1.0000
  H   H13       1.0  0.08245  0.64324  0.59857  1.0000
  H   H14       1.0  0.31898  0.85676  0.59857  1.0000
  H   H15       1.0  0.91756  0.35677  0.40143  1.0000
  H   H16       1.0  0.68102  0.14324  0.40142  1.0000
  H   H17       1.0  0.85809  0.69060  0.71343  1.0000
  H   H18       1.0  0.42848  0.80939  0.71343  1.0000
  H   H19       1.0  0.14191  0.30940  0.28657  1.0000
  H   H20       1.0  0.57152  0.19061  0.28658  1.0000
  Pb  Pb1       1.0  0.92580  0.75000  0.14840  1.0000
  Pb  Pb2       1.0  0.07420  0.25000  0.85160  1.0000
  C   C1        1.0  0.23960  0.61673  0.19001  1.0000
  C   C2        1.0  0.57038  0.88328  0.19001  1.0000
  C   C3        1.0  0.76039  0.38327  0.80999  1.0000
  C   C4        1.0  0.42962  0.11672  0.80999  1.0000
  C   C5        1.0  0.34042  0.58251  0.24688  1.0000
  C   C6        1.0  0.41270  0.91750  0.24689  1.0000
  C   C7        1.0  0.65958  0.41750  0.75311  1.0000
  C   C8        1.0  0.58731  0.08250  0.75311  1.0000
  C   C9        1.0  0.28263  0.59218  0.39588  1.0000
  C   C10       1.0  0.32149  0.90783  0.39588  1.0000
  C   C11       1.0  0.71737  0.40782  0.60412  1.0000
  C   C12       1.0  0.67851  0.09218  0.60412  1.0000
  C   C13       1.0  0.12732  0.63580  0.48227  1.0000
  C   C14       1.0  0.39042  0.86421  0.48227  1.0000
  C   C15       1.0  0.87269  0.36420  0.51773  1.0000
  C   C16       1.0  0.60958  0.13580  0.51773  1.0000
  C   C17       1.0  0.03263  0.66921  0.41738  1.0000
  C   C18       1.0  0.54999  0.83080  0.41738  1.0000
  C   C19       1.0  0.96737  0.33079  0.58262  1.0000
  C   C20       1.0  0.45002  0.16921  0.58262  1.0000
  C   C21       1.0  0.86551  0.71421  0.50253  1.0000
  C   C22       1.0  0.63196  0.78579  0.50253  1.0000
  C   C23       1.0  0.13449  0.28579  0.49747  1.0000
  C   C24       1.0  0.36804  0.21421  0.49747  1.0000
  C   C25       1.0  0.79413  0.71590  0.65376  1.0000
  C   C26       1.0  0.55211  0.78409  0.65376  1.0000
  C   C27       1.0  0.20588  0.28410  0.34624  1.0000
  C   C28       1.0  0.44789  0.21591  0.34624  1.0000
  C   C29       1.0  0.63598  0.74999  0.72803  1.0000
  C   C30       1.0  0.36402  0.25001  0.27197  1.0000
  N   N1        1.0  0.09026  0.65912  0.27304  1.0000
  N   N2        1.0  0.63670  0.84089  0.27304  1.0000
  N   N3        1.0  0.90974  0.34088  0.72696  1.0000
  N   N4        1.0  0.36330  0.15911  0.72696  1.0000
  N   N5        1.0  0.78519  0.75000  0.42962  1.0000
  N   N6        1.0  0.21481  0.25000  0.57038  1.0000
  Cl  Cl1       1.0  0.54316  0.74997  0.91366  1.0000
  Cl  Cl2       1.0  0.45683  0.25002  0.08635  1.0000
  Cl  Cl3       1.0  0.05132  0.03728  0.19113  1.0000
  Cl  Cl4       1.0  0.75755  0.46272  0.19113  1.0000
  Cl  Cl5       1.0  0.94867  0.96272  0.80887  1.0000
  Cl  Cl6       1.0  0.24245  0.53728  0.80887  1.0000
  O   O1        1.0  0.90452  0.01515  0.19999  1.0000
  O   O2        1.0  0.89549  0.48486  0.19999  1.0000
  O   O3        1.0  0.09548  0.98485  0.80001  1.0000
  O   O4        1.0  0.10451  0.51514  0.80001  1.0000
  O   O5        1.0  0.08909  0.16775  0.12421  1.0000
  O   O6        1.0  0.78671  0.33226  0.12421  1.0000
  O   O7        1.0  0.91091  0.83225  0.87579  1.0000
  O   O8        1.0  0.21328  0.66774  0.87579  1.0000
  O   O9        1.0  0.03589  0.03474  0.33565  1.0000
  O   O10       1.0  0.62846  0.46525  0.33565  1.0000
  O   O11       1.0  0.96411  0.96526  0.66436  1.0000
  O   O12       1.0  0.37154  0.53475  0.66435  1.0000
  O   O13       1.0  0.17029  0.93027  0.10196  1.0000
  O   O14       1.0  0.72775  0.56973  0.10196  1.0000
  O   O15       1.0  0.82971  0.06973  0.89804  1.0000
  O   O16       1.0  0.27225  0.43027  0.89804  1.0000
