data_image0
_chemical_formula_structural       Ag4H24C20N12O20
_chemical_formula_sum              "Ag4 H24 C20 N12 O20"
_cell_length_a       4.84922
_cell_length_b       12.3458
_cell_length_c       14.8656
_cell_angle_alpha    112.649
_cell_angle_beta     89.9997
_cell_angle_gamma    90.0001

_space_group_name_H-M_alt    "P 1"
_space_group_IT_number       1

loop_
  _space_group_symop_operation_xyz
  'x, y, z'

loop_
  _atom_site_type_symbol
  _atom_site_label
  _atom_site_symmetry_multiplicity
  _atom_site_fract_x
  _atom_site_fract_y
  _atom_site_fract_z
  _atom_site_occupancy
  Ag  Ag1       1.0  0.88417  0.18977  0.75896  1.0000
  Ag  Ag2       1.0  0.38417  0.31023  0.74104  1.0000
  Ag  Ag3       1.0  0.11583  0.81023  0.24104  1.0000
  Ag  Ag4       1.0  0.61583  0.68977  0.25896  1.0000
  H   H1        1.0  0.04899  0.93203  0.60888  1.0000
  H   H2        1.0  0.54900  0.56797  0.89112  1.0000
  H   H3        1.0  0.95100  0.06797  0.39112  1.0000
  H   H4        1.0  0.45100  0.43203  0.10888  1.0000
  H   H5        1.0  0.22038  0.90937  0.49792  1.0000
  H   H6        1.0  0.72038  0.59063  0.00208  1.0000
  H   H7        1.0  0.77963  0.09064  0.50208  1.0000
  H   H8        1.0  0.27962  0.40937  0.99792  1.0000
  H   H9        1.0  0.15437  0.79003  0.69108  1.0000
  H   H10       1.0  0.65438  0.70997  0.80892  1.0000
  H   H11       1.0  0.84563  0.20997  0.30892  1.0000
  H   H12       1.0  0.34562  0.29003  0.19107  1.0000
  H   H13       1.0  0.50503  0.59476  0.64153  1.0000
  H   H14       1.0  0.00504  0.90524  0.85847  1.0000
  H   H15       1.0  0.49496  0.40524  0.35847  1.0000
  H   H16       1.0  0.99497  0.09476  0.14153  1.0000
  H   H17       1.0  0.68658  0.78421  0.46297  1.0000
  H   H18       1.0  0.18659  0.71579  0.03703  1.0000
  H   H19       1.0  0.31342  0.21579  0.53703  1.0000
  H   H20       1.0  0.81341  0.28421  0.96297  1.0000
  H   H21       1.0  0.80734  0.60650  0.50055  1.0000
  H   H22       1.0  0.30734  0.89350  0.99945  1.0000
  H   H23       1.0  0.19266  0.39350  0.49945  1.0000
  H   H24       1.0  0.69266  0.10650  0.00055  1.0000
  C   C1        1.0  0.42035  0.03263  0.62701  1.0000
  C   C2        1.0  0.92035  0.46737  0.87299  1.0000
  C   C3        1.0  0.57965  0.96738  0.37300  1.0000
  C   C4        1.0  0.07965  0.53263  0.12701  1.0000
  C   C5        1.0  0.25231  0.92098  0.57422  1.0000
  C   C6        1.0  0.75232  0.57903  0.92578  1.0000
  C   C7        1.0  0.74768  0.07903  0.42578  1.0000
  C   C8        1.0  0.24769  0.42098  0.07422  1.0000
  C   C9        1.0  0.31568  0.75835  0.63696  1.0000
  C   C10       1.0  0.81569  0.74165  0.86304  1.0000
  C   C11       1.0  0.68432  0.24165  0.36304  1.0000
  C   C12       1.0  0.18431  0.25835  0.13696  1.0000
  C   C13       1.0  0.48810  0.66348  0.61317  1.0000
  C   C14       1.0  0.98811  0.83652  0.88682  1.0000
  C   C15       1.0  0.51190  0.33652  0.38683  1.0000
  C   C16       1.0  0.01189  0.16348  0.11317  1.0000
  C   C17       1.0  0.59025  0.75899  0.51779  1.0000
  C   C18       1.0  0.09025  0.74101  0.98221  1.0000
  C   C19       1.0  0.40975  0.24102  0.48221  1.0000
  C   C20       1.0  0.90975  0.25898  0.01779  1.0000
  N   N1        1.0  0.38149  0.81567  0.57607  1.0000
  N   N2        1.0  0.88149  0.68433  0.92393  1.0000
  N   N3        1.0  0.61851  0.18434  0.42394  1.0000
  N   N4        1.0  0.11851  0.31567  0.07607  1.0000
  N   N5        1.0  0.65636  0.66655  0.53920  1.0000
  N   N6        1.0  0.15636  0.83345  0.96080  1.0000
  N   N7        1.0  0.34364  0.33345  0.46080  1.0000
  N   N8        1.0  0.84364  0.16655  0.03920  1.0000
  N   N9        1.0  0.33591  0.08268  0.86472  1.0000
  N   N10       1.0  0.83591  0.41732  0.63528  1.0000
  N   N11       1.0  0.66409  0.91732  0.13528  1.0000
  N   N12       1.0  0.16409  0.58268  0.36472  1.0000
  O   O1        1.0  0.65306  0.02387  0.66111  1.0000
  O   O2        1.0  0.15306  0.47613  0.83889  1.0000
  O   O3        1.0  0.34694  0.97614  0.33889  1.0000
  O   O4        1.0  0.84694  0.52387  0.16111  1.0000
  O   O5        1.0  0.29998  0.12583  0.62993  1.0000
  O   O6        1.0  0.79998  0.37417  0.87007  1.0000
  O   O7        1.0  0.70001  0.87417  0.37007  1.0000
  O   O8        1.0  0.20002  0.62583  0.12993  1.0000
  O   O9        1.0  0.13263  0.03861  0.80816  1.0000
  O   O10       1.0  0.63263  0.46139  0.69184  1.0000
  O   O11       1.0  0.86737  0.96139  0.19183  1.0000
  O   O12       1.0  0.36737  0.53861  0.30817  1.0000
  O   O13       1.0  0.42358  0.18396  0.87724  1.0000
  O   O14       1.0  0.92358  0.31604  0.62276  1.0000
  O   O15       1.0  0.57643  0.81604  0.12276  1.0000
  O   O16       1.0  0.07643  0.68396  0.37724  1.0000
  O   O17       1.0  0.44776  0.02413  0.90912  1.0000
  O   O18       1.0  0.94776  0.47587  0.59088  1.0000
  O   O19       1.0  0.55224  0.97586  0.09088  1.0000
  O   O20       1.0  0.05224  0.52413  0.40912  1.0000
