data_image0
_chemical_formula_structural       Cd2H34C42S4N6O16
_chemical_formula_sum              "Cd2 H34 C42 S4 N6 O16"
_cell_length_a       8.2312
_cell_length_b       11.3146
_cell_length_c       12.3309
_cell_angle_alpha    99.9107
_cell_angle_beta     102.438
_cell_angle_gamma    98.0744

_space_group_name_H-M_alt    "P 1"
_space_group_IT_number       1

loop_
  _space_group_symop_operation_xyz
  'x, y, z'

loop_
  _atom_site_type_symbol
  _atom_site_label
  _atom_site_symmetry_multiplicity
  _atom_site_fract_x
  _atom_site_fract_y
  _atom_site_fract_z
  _atom_site_occupancy
  Cd  Cd1       1.0  0.23743  0.80333  0.08377  1.0000
  Cd  Cd2       1.0  0.76258  0.19667  0.91624  1.0000
  H   H1        1.0  0.57329  0.75111  0.04202  1.0000
  H   H2        1.0  0.42671  0.24889  0.95798  1.0000
  H   H3        1.0  0.48405  0.79416  0.93257  1.0000
  H   H4        1.0  0.51595  0.20584  0.06743  1.0000
  H   H5        1.0  0.32834  0.03445  0.05266  1.0000
  H   H6        1.0  0.67166  0.96554  0.94734  1.0000
  H   H7        1.0  0.16190  0.99653  0.95768  1.0000
  H   H8        1.0  0.83809  0.00347  0.04232  1.0000
  H   H9        1.0  0.90298  0.79884  0.89163  1.0000
  H   H10       1.0  0.09702  0.20116  0.10837  1.0000
  H   H11       1.0  0.76430  0.69138  0.69187  1.0000
  H   H12       1.0  0.23570  0.30863  0.30813  1.0000
  H   H13       1.0  0.19173  0.53067  0.93881  1.0000
  H   H14       1.0  0.80827  0.46934  0.06119  1.0000
  H   H15       1.0  0.92066  0.31004  0.59955  1.0000
  H   H16       1.0  0.07934  0.68995  0.40045  1.0000
  H   H17       1.0  0.63257  0.32599  0.26989  1.0000
  H   H18       1.0  0.36742  0.67401  0.73011  1.0000
  H   H19       1.0  0.53784  0.43060  0.16887  1.0000
  H   H20       1.0  0.46215  0.56940  0.83113  1.0000
  H   H21       1.0  0.37586  0.55409  0.06000  1.0000
  H   H22       1.0  0.62414  0.44591  0.94000  1.0000
  H   H23       1.0  0.39739  0.81244  0.34761  1.0000
  H   H24       1.0  0.60260  0.18755  0.65239  1.0000
  H   H25       1.0  0.57361  0.70208  0.47172  1.0000
  H   H26       1.0  0.42639  0.29792  0.52828  1.0000
  H   H27       1.0  0.07327  0.22275  0.45910  1.0000
  H   H28       1.0  0.92674  0.77725  0.54090  1.0000
  H   H29       1.0  0.13763  0.02914  0.36494  1.0000
  H   H30       1.0  0.86237  0.97086  0.63506  1.0000
  H   H31       1.0  0.60876  0.90824  0.19941  1.0000
  H   H32       1.0  0.39124  0.09175  0.80058  1.0000
  H   H33       1.0  0.06896  0.41446  0.74586  1.0000
  H   H34       1.0  0.93104  0.58554  0.25415  1.0000
  C   C1        1.0  0.93710  0.71393  0.85510  1.0000
  C   C2        1.0  0.06290  0.28607  0.14490  1.0000
  C   C3        1.0  0.85965  0.65334  0.74394  1.0000
  C   C4        1.0  0.14036  0.34667  0.25607  1.0000
  C   C5        1.0  0.90675  0.54413  0.69954  1.0000
  C   C6        1.0  0.09326  0.45588  0.30046  1.0000
  C   C7        1.0  0.09778  0.56507  0.88227  1.0000
  C   C8        1.0  0.90222  0.43493  0.11773  1.0000
  C   C9        1.0  0.83227  0.47945  0.58017  1.0000
  C   C10       1.0  0.16773  0.52055  0.41983  1.0000
  C   C11       1.0  0.85405  0.35979  0.54152  1.0000
  C   C12       1.0  0.14595  0.64021  0.45849  1.0000
  C   C13       1.0  0.78100  0.30210  0.42832  1.0000
  C   C14       1.0  0.21900  0.69790  0.57169  1.0000
  C   C15       1.0  0.69032  0.36788  0.35849  1.0000
  C   C16       1.0  0.30968  0.63212  0.64151  1.0000
  C   C17       1.0  0.67263  0.48622  0.40351  1.0000
  C   C18       1.0  0.32737  0.51378  0.59650  1.0000
  C   C19       1.0  0.57240  0.55601  0.33204  1.0000
  C   C20       1.0  0.42760  0.44399  0.66796  1.0000
  C   C21       1.0  0.51211  0.51457  0.21422  1.0000
  C   C22       1.0  0.48789  0.48543  0.78578  1.0000
  C   C23       1.0  0.41794  0.58325  0.15182  1.0000
  C   C24       1.0  0.58206  0.41675  0.84818  1.0000
  C   C25       1.0  0.43336  0.72798  0.31209  1.0000
  C   C26       1.0  0.56663  0.27202  0.68792  1.0000
  C   C27       1.0  0.53164  0.66592  0.38062  1.0000
  C   C28       1.0  0.46836  0.33408  0.61938  1.0000
  C   C29       1.0  0.80496  0.17806  0.38145  1.0000
  C   C30       1.0  0.19505  0.82194  0.61855  1.0000
  C   C31       1.0  0.97021  0.15243  0.40393  1.0000
  C   C32       1.0  0.02979  0.84757  0.59606  1.0000
  C   C33       1.0  0.00751  0.04410  0.35095  1.0000
  C   C34       1.0  0.99249  0.95590  0.64904  1.0000
  C   C35       1.0  0.87602  0.95832  0.27458  1.0000
  C   C36       1.0  0.12398  0.04168  0.72542  1.0000
  C   C37       1.0  0.71019  0.97746  0.25637  1.0000
  C   C38       1.0  0.28981  0.02255  0.74362  1.0000
  C   C39       1.0  0.67373  0.08614  0.30914  1.0000
  C   C40       1.0  0.32627  0.91386  0.69085  1.0000
  C   C41       1.0  0.02764  0.49945  0.77242  1.0000
  C   C42       1.0  0.97236  0.50055  0.22758  1.0000
  S   S1        1.0  0.45321  0.09572  0.27424  1.0000
  S   S2        1.0  0.54679  0.90427  0.72576  1.0000
  S   S3        1.0  0.91806  0.83286  0.18357  1.0000
  S   S4        1.0  0.08195  0.16714  0.81642  1.0000
  N   N1        1.0  0.05667  0.67202  0.92382  1.0000
  N   N2        1.0  0.94334  0.32799  0.07618  1.0000
  N   N3        1.0  0.74307  0.54121  0.51258  1.0000
  N   N4        1.0  0.25693  0.45879  0.48742  1.0000
  N   N5        1.0  0.37748  0.68828  0.19864  1.0000
  N   N6        1.0  0.62252  0.31172  0.80136  1.0000
  O   O1        1.0  0.41586  0.17001  0.37080  1.0000
  O   O2        1.0  0.58415  0.82999  0.62920  1.0000
  O   O3        1.0  0.46105  0.75101  0.99215  1.0000
  O   O4        1.0  0.53895  0.24899  0.00785  1.0000
  O   O5        1.0  0.42673  0.14919  0.17087  1.0000
  O   O6        1.0  0.57327  0.85081  0.82912  1.0000
  O   O7        1.0  0.26438  0.96574  0.98946  1.0000
  O   O8        1.0  0.73561  0.03426  0.01053  1.0000
  O   O9        1.0  0.36303  0.96807  0.24696  1.0000
  O   O10       1.0  0.63697  0.03193  0.75304  1.0000
  O   O11       1.0  0.05713  0.78598  0.24779  1.0000
  O   O12       1.0  0.94287  0.21402  0.75221  1.0000
  O   O13       1.0  0.75965  0.74333  0.13937  1.0000
  O   O14       1.0  0.24035  0.25667  0.86062  1.0000
  O   O15       1.0  0.97253  0.88977  0.09332  1.0000
  O   O16       1.0  0.02747  0.11022  0.90668  1.0000
