data_image0
_chemical_formula_structural       H34Pb2C42S4N6O16
_chemical_formula_sum              "H34 Pb2 C42 S4 N6 O16"
_cell_length_a       8.31042
_cell_length_b       11.7277
_cell_length_c       12.1717
_cell_angle_alpha    99.2992
_cell_angle_beta     99.3783
_cell_angle_gamma    98.5164

_space_group_name_H-M_alt    "P 1"
_space_group_IT_number       1

loop_
  _space_group_symop_operation_xyz
  'x, y, z'

loop_
  _atom_site_type_symbol
  _atom_site_label
  _atom_site_symmetry_multiplicity
  _atom_site_fract_x
  _atom_site_fract_y
  _atom_site_fract_z
  _atom_site_occupancy
  H   H1        1.0  0.09901  0.21998  0.61524  1.0000
  H   H2        1.0  0.90099  0.78002  0.38476  1.0000
  H   H3        1.0  0.23017  0.32660  0.81147  1.0000
  H   H4        1.0  0.76983  0.67340  0.18853  1.0000
  H   H5        1.0  0.93046  0.59195  0.75604  1.0000
  H   H6        1.0  0.06954  0.40805  0.24396  1.0000
  H   H7        1.0  0.81191  0.47550  0.56647  1.0000
  H   H8        1.0  0.18809  0.52450  0.43353  1.0000
  H   H9        1.0  0.07964  0.69637  0.89984  1.0000
  H   H10       1.0  0.92037  0.30363  0.10016  1.0000
  H   H11       1.0  0.35222  0.67782  0.22610  1.0000
  H   H12       1.0  0.64778  0.32218  0.77390  1.0000
  H   H13       1.0  0.39528  0.31064  0.02376  1.0000
  H   H14       1.0  0.60472  0.68937  0.97625  1.0000
  H   H15       1.0  0.56880  0.20187  0.14093  1.0000
  H   H16       1.0  0.43120  0.79813  0.85907  1.0000
  H   H17       1.0  0.62765  0.46190  0.42686  1.0000
  H   H18       1.0  0.37235  0.53810  0.57314  1.0000
  H   H19       1.0  0.46280  0.58116  0.32403  1.0000
  H   H20       1.0  0.53720  0.41884  0.67597  1.0000
  H   H21       1.0  0.39360  0.08229  0.28780  1.0000
  H   H22       1.0  0.60640  0.91771  0.71220  1.0000
  H   H23       1.0  0.87624  0.97841  0.13762  1.0000
  H   H24       1.0  0.12377  0.02159  0.86238  1.0000
  H   H25       1.0  0.93226  0.78772  0.04401  1.0000
  H   H26       1.0  0.06775  0.21228  0.95599  1.0000
  H   H27       1.0  0.80834  0.97733  0.53859  1.0000
  H   H28       1.0  0.19166  0.02267  0.46141  1.0000
  H   H29       1.0  0.65031  0.95168  0.44319  1.0000
  H   H30       1.0  0.34969  0.04831  0.55681  1.0000
  H   H31       1.0  0.41868  0.25763  0.45559  1.0000
  H   H32       1.0  0.58132  0.74237  0.54441  1.0000
  H   H33       1.0  0.49480  0.22228  0.57167  1.0000
  H   H34       1.0  0.50519  0.77772  0.42833  1.0000
  Pb  Pb1       1.0  0.75403  0.19050  0.41135  1.0000
  Pb  Pb2       1.0  0.24597  0.80950  0.58865  1.0000
  C   C1        1.0  0.06424  0.30234  0.65063  1.0000
  C   C2        1.0  0.93576  0.69765  0.34937  1.0000
  C   C3        1.0  0.13743  0.36209  0.75963  1.0000
  C   C4        1.0  0.86257  0.63791  0.24036  1.0000
  C   C5        1.0  0.08996  0.46811  0.80215  1.0000
  C   C6        1.0  0.91004  0.53189  0.19785  1.0000
  C   C7        1.0  0.97244  0.51006  0.73001  1.0000
  C   C8        1.0  0.02756  0.48994  0.26999  1.0000
  C   C9        1.0  0.90554  0.44471  0.62243  1.0000
  C   C10       1.0  0.09445  0.55529  0.37757  1.0000
  C   C11       1.0  0.16132  0.53153  0.91955  1.0000
  C   C12       1.0  0.83868  0.46847  0.08045  1.0000
  C   C13       1.0  0.14217  0.64761  0.95741  1.0000
  C   C14       1.0  0.85783  0.35239  0.04259  1.0000
  C   C15       1.0  0.21270  0.70251  0.06926  1.0000
  C   C16       1.0  0.78730  0.29749  0.93074  1.0000
  C   C17       1.0  0.29789  0.63803  0.13838  1.0000
  C   C18       1.0  0.70211  0.36197  0.86162  1.0000
  C   C19       1.0  0.31473  0.52373  0.09377  1.0000
  C   C20       1.0  0.68527  0.47627  0.90623  1.0000
  C   C21       1.0  0.41259  0.45566  0.16284  1.0000
  C   C22       1.0  0.58741  0.54434  0.83716  1.0000
  C   C23       1.0  0.44355  0.34667  0.11307  1.0000
  C   C24       1.0  0.55645  0.65333  0.88693  1.0000
  C   C25       1.0  0.54145  0.28634  0.17804  1.0000
  C   C26       1.0  0.45855  0.71367  0.82197  1.0000
  C   C27       1.0  0.57574  0.43113  0.33677  1.0000
  C   C28       1.0  0.42425  0.56888  0.66323  1.0000
  C   C29       1.0  0.48096  0.49784  0.27813  1.0000
  C   C30       1.0  0.51904  0.50217  0.72187  1.0000
  C   C31       1.0  0.19392  0.82349  0.11576  1.0000
  C   C32       1.0  0.80608  0.17651  0.88424  1.0000
  C   C33       1.0  0.32523  0.90937  0.18351  1.0000
  C   C34       1.0  0.67477  0.09063  0.81649  1.0000
  C   C35       1.0  0.29347  0.01671  0.23459  1.0000
  C   C36       1.0  0.70653  0.98329  0.76541  1.0000
  C   C37       1.0  0.13305  0.03994  0.22041  1.0000
  C   C38       1.0  0.86695  0.96006  0.77959  1.0000
  C   C39       1.0  0.00188  0.95954  0.14908  1.0000
  C   C40       1.0  0.99812  0.04046  0.85091  1.0000
  C   C41       1.0  0.03448  0.85286  0.09695  1.0000
  C   C42       1.0  0.96552  0.14714  0.90305  1.0000
  S   S1        1.0  0.54017  0.89438  0.21305  1.0000
  S   S2        1.0  0.45983  0.10562  0.78695  1.0000
  S   S3        1.0  0.09868  0.16492  0.31151  1.0000
  S   S4        1.0  0.90132  0.83508  0.68849  1.0000
  N   N1        1.0  0.94858  0.34190  0.58276  1.0000
  N   N2        1.0  0.05142  0.65810  0.41724  1.0000
  N   N3        1.0  0.24638  0.47144  0.98632  1.0000
  N   N4        1.0  0.75362  0.52856  0.01368  1.0000
  N   N5        1.0  0.60743  0.32765  0.28844  1.0000
  N   N6        1.0  0.39257  0.67235  0.71156  1.0000
  O   O1        1.0  0.56198  0.84765  0.32035  1.0000
  O   O2        1.0  0.43803  0.15235  0.67965  1.0000
  O   O3        1.0  0.70991  0.01061  0.51111  1.0000
  O   O4        1.0  0.29009  0.98939  0.48889  1.0000
  O   O5        1.0  0.52287  0.26461  0.51154  1.0000
  O   O6        1.0  0.47713  0.73539  0.48846  1.0000
  O   O7        1.0  0.57467  0.81640  0.11795  1.0000
  O   O8        1.0  0.42533  0.18360  0.88205  1.0000
  O   O9        1.0  0.63233  0.01555  0.23112  1.0000
  O   O10       1.0  0.36767  0.98445  0.76889  1.0000
  O   O11       1.0  0.25385  0.25047  0.34239  1.0000
  O   O12       1.0  0.74614  0.74953  0.65761  1.0000
  O   O13       1.0  0.05338  0.11635  0.41080  1.0000
  O   O14       1.0  0.94662  0.88364  0.58920  1.0000
  O   O15       1.0  0.95849  0.20889  0.25267  1.0000
  O   O16       1.0  0.04151  0.79111  0.74733  1.0000
