data_image0
_chemical_formula_structural       K4H4C8N8O8
_chemical_formula_sum              "K4 H4 C8 N8 O8"
_cell_length_a       8.22188
_cell_length_b       8.22191
_cell_length_c       9.10306
_cell_angle_alpha    114.616
_cell_angle_beta     114.616
_cell_angle_gamma    94.4541

_space_group_name_H-M_alt    "P 1"
_space_group_IT_number       1

loop_
  _space_group_symop_operation_xyz
  'x, y, z'

loop_
  _atom_site_type_symbol
  _atom_site_label
  _atom_site_symmetry_multiplicity
  _atom_site_fract_x
  _atom_site_fract_y
  _atom_site_fract_z
  _atom_site_occupancy
  K   K1        1.0  0.61539  0.97333  0.73424  1.0000
  K   K2        1.0  0.02667  0.38461  0.26576  1.0000
  K   K3        1.0  0.01099  0.86868  0.23402  1.0000
  K   K4        1.0  0.13132  0.98901  0.76599  1.0000
  H   H1        1.0  0.63984  0.01313  0.32159  1.0000
  H   H2        1.0  0.98687  0.36015  0.67841  1.0000
  H   H3        1.0  0.55844  0.43166  0.82150  1.0000
  H   H4        1.0  0.56834  0.44156  0.17851  1.0000
  C   C1        1.0  0.55811  0.06689  0.23316  1.0000
  C   C2        1.0  0.93311  0.44189  0.76683  1.0000
  C   C3        1.0  0.41623  0.42493  0.73303  1.0000
  C   C4        1.0  0.57507  0.58377  0.26697  1.0000
  C   C5        1.0  0.39594  0.10938  0.22786  1.0000
  C   C6        1.0  0.89062  0.60406  0.77214  1.0000
  C   C7        1.0  0.36848  0.58184  0.72782  1.0000
  C   C8        1.0  0.41816  0.63152  0.27219  1.0000
  N   N1        1.0  0.61221  0.08843  0.11941  1.0000
  N   N2        1.0  0.91157  0.38779  0.88059  1.0000
  N   N3        1.0  0.28092  0.25711  0.61930  1.0000
  N   N4        1.0  0.74289  0.71908  0.38070  1.0000
  N   N5        1.0  0.25701  0.14127  0.22199  1.0000
  N   N6        1.0  0.85873  0.74299  0.77801  1.0000
  N   N7        1.0  0.33076  0.71494  0.72203  1.0000
  N   N8        1.0  0.28506  0.66924  0.27797  1.0000
  O   O1        1.0  0.52145  0.15519  0.01573  1.0000
  O   O2        1.0  0.84480  0.47855  0.98426  1.0000
  O   O3        1.0  0.11048  0.24421  0.51562  1.0000
  O   O4        1.0  0.75579  0.88952  0.48437  1.0000
  O   O5        1.0  0.75595  0.04257  0.11325  1.0000
  O   O6        1.0  0.95743  0.24405  0.88675  1.0000
  O   O7        1.0  0.32059  0.10718  0.61313  1.0000
  O   O8        1.0  0.89282  0.67941  0.38687  1.0000
