data_image0
_chemical_formula_structural       Hg4H44C24S4I4
_chemical_formula_sum              "Hg4 H44 C24 S4 I4"
_cell_length_a       4.77936
_cell_length_b       7.21624
_cell_length_c       26.352
_cell_angle_alpha    90.0002
_cell_angle_beta     90.0002
_cell_angle_gamma    90

_space_group_name_H-M_alt    "P 1"
_space_group_IT_number       1

loop_
  _space_group_symop_operation_xyz
  'x, y, z'

loop_
  _atom_site_type_symbol
  _atom_site_label
  _atom_site_symmetry_multiplicity
  _atom_site_fract_x
  _atom_site_fract_y
  _atom_site_fract_z
  _atom_site_occupancy
  Hg  Hg1       1.0  0.26749  0.00001  0.50000  1.0000
  Hg  Hg2       1.0  0.76748  0.50000  1.00000  1.0000
  Hg  Hg3       1.0  0.49908  0.50001  0.50000  1.0000
  Hg  Hg4       1.0  0.99909  1.00000  1.00000  1.0000
  H   H1        1.0  0.62067  0.20583  0.39662  1.0000
  H   H2        1.0  0.62067  0.79418  0.60338  1.0000
  H   H3        1.0  0.12066  0.29417  0.89661  1.0000
  H   H4        1.0  0.12068  0.70582  0.10338  1.0000
  H   H5        1.0  0.14442  0.42699  0.34688  1.0000
  H   H6        1.0  0.14442  0.57302  0.65312  1.0000
  H   H7        1.0  0.64441  0.07301  0.84688  1.0000
  H   H8        1.0  0.64442  0.92698  0.15312  1.0000
  H   H9        1.0  0.45661  0.52138  0.37182  1.0000
  H   H10       1.0  0.45661  0.47862  0.62818  1.0000
  H   H11       1.0  0.95660  0.97862  0.87182  1.0000
  H   H12       1.0  0.95662  0.02138  0.12818  1.0000
  H   H13       1.0  0.74089  0.35634  0.30754  1.0000
  H   H14       1.0  0.74089  0.64366  0.69246  1.0000
  H   H15       1.0  0.24087  0.14365  0.80754  1.0000
  H   H16       1.0  0.24089  0.85634  0.19246  1.0000
  H   H17       1.0  0.48231  0.49199  0.27759  1.0000
  H   H18       1.0  0.48231  0.50802  0.72241  1.0000
  H   H19       1.0  0.98230  0.00801  0.77759  1.0000
  H   H20       1.0  0.98232  0.99198  0.22241  1.0000
  H   H21       1.0  0.51680  0.17353  0.23853  1.0000
  H   H22       1.0  0.51681  0.82647  0.76147  1.0000
  H   H23       1.0  0.01679  0.32647  0.73853  1.0000
  H   H24       1.0  0.01682  0.67352  0.26147  1.0000
  H   H25       1.0  0.18328  0.21754  0.26438  1.0000
  H   H26       1.0  0.18329  0.78246  0.73562  1.0000
  H   H27       1.0  0.68328  0.28246  0.76438  1.0000
  H   H28       1.0  0.68329  0.71754  0.23562  1.0000
  H   H29       1.0  0.33794  0.90242  0.28992  1.0000
  H   H30       1.0  0.33794  0.09759  0.71008  1.0000
  H   H31       1.0  0.83793  0.59758  0.78992  1.0000
  H   H32       1.0  0.83794  0.40241  0.21008  1.0000
  H   H33       1.0  0.65125  0.99208  0.31529  1.0000
  H   H34       1.0  0.65125  0.00793  0.68471  1.0000
  H   H35       1.0  0.15124  0.50792  0.81529  1.0000
  H   H36       1.0  0.15125  0.49207  0.18471  1.0000
  H   H37       1.0  0.30774  0.93295  0.38379  1.0000
  H   H38       1.0  0.30774  0.06706  0.61621  1.0000
  H   H39       1.0  0.80773  0.56705  0.88379  1.0000
  H   H40       1.0  0.80774  0.43295  0.11621  1.0000
  H   H41       1.0  0.05694  0.07549  0.35352  1.0000
  H   H42       1.0  0.05695  0.92452  0.64648  1.0000
  H   H43       1.0  0.55694  0.42452  0.85352  1.0000
  H   H44       1.0  0.55694  0.57548  0.14648  1.0000
  C   C1        1.0  0.39943  0.22716  0.38637  1.0000
  C   C2        1.0  0.39943  0.77285  0.61363  1.0000
  C   C3        1.0  0.89942  0.27284  0.88637  1.0000
  C   C4        1.0  0.89943  0.72716  0.11363  1.0000
  C   C5        1.0  0.36897  0.39914  0.35276  1.0000
  C   C6        1.0  0.36897  0.60087  0.64724  1.0000
  C   C7        1.0  0.86896  0.10086  0.85276  1.0000
  C   C8        1.0  0.86897  0.89913  0.14724  1.0000
  C   C9        1.0  0.51321  0.36881  0.30151  1.0000
  C   C10       1.0  0.51322  0.63119  0.69849  1.0000
  C   C11       1.0  0.01320  0.13118  0.80150  1.0000
  C   C12       1.0  0.01322  0.86881  0.19850  1.0000
  C   C13       1.0  0.40471  0.19560  0.27453  1.0000
  C   C14       1.0  0.40470  0.80440  0.72547  1.0000
  C   C15       1.0  0.90469  0.30439  0.77453  1.0000
  C   C16       1.0  0.90470  0.69560  0.22547  1.0000
  C   C17       1.0  0.42885  0.02482  0.30857  1.0000
  C   C18       1.0  0.42885  0.97519  0.69143  1.0000
  C   C19       1.0  0.92884  0.47518  0.80857  1.0000
  C   C20       1.0  0.92885  0.52481  0.19143  1.0000
  C   C21       1.0  0.28327  0.05580  0.35961  1.0000
  C   C22       1.0  0.28326  0.94420  0.64039  1.0000
  C   C23       1.0  0.78325  0.44420  0.85961  1.0000
  C   C24       1.0  0.78326  0.55580  0.14039  1.0000
  S   S1        1.0  0.20352  0.26840  0.44539  1.0000
  S   S2        1.0  0.20352  0.73161  0.55461  1.0000
  S   S3        1.0  0.70352  0.23160  0.94539  1.0000
  S   S4        1.0  0.70353  0.76839  0.05461  1.0000
  I   I1        1.0  0.78984  0.74984  0.43601  1.0000
  I   I2        1.0  0.78985  0.25016  0.56399  1.0000
  I   I3        1.0  0.28984  0.75015  0.93601  1.0000
  I   I4        1.0  0.28984  0.24984  0.06399  1.0000
