data_image0
_chemical_formula_structural       Cu4H32C16N8Cl8O4
_chemical_formula_sum              "Cu4 H32 C16 N8 Cl8 O4"
_cell_length_a       5.74285
_cell_length_b       10.411
_cell_length_c       13.4317
_cell_angle_alpha    97.789
_cell_angle_beta     93.9243
_cell_angle_gamma    102.295

_space_group_name_H-M_alt    "P 1"
_space_group_IT_number       1

loop_
  _space_group_symop_operation_xyz
  'x, y, z'

loop_
  _atom_site_type_symbol
  _atom_site_label
  _atom_site_symmetry_multiplicity
  _atom_site_fract_x
  _atom_site_fract_y
  _atom_site_fract_z
  _atom_site_occupancy
  Cu  Cu1       1.0  0.77113  0.58033  0.99469  1.0000
  Cu  Cu2       1.0  0.22886  0.41969  0.00531  1.0000
  Cu  Cu3       1.0  0.23189  0.90894  0.48559  1.0000
  Cu  Cu4       1.0  0.76811  0.09106  0.51441  1.0000
  H   H1        1.0  0.64018  0.42682  0.77455  1.0000
  H   H2        1.0  0.35983  0.57319  0.22546  1.0000
  H   H3        1.0  0.17104  0.65382  0.84996  1.0000
  H   H4        1.0  0.82897  0.34618  0.15003  1.0000
  H   H5        1.0  0.35911  0.40882  0.60068  1.0000
  H   H6        1.0  0.64089  0.59118  0.39933  1.0000
  H   H7        1.0  0.66830  0.48884  0.61370  1.0000
  H   H8        1.0  0.33171  0.51116  0.38630  1.0000
  H   H9        1.0  0.38535  0.63200  0.55375  1.0000
  H   H10       1.0  0.61463  0.36798  0.44624  1.0000
  H   H11       1.0  0.58091  0.70674  0.66344  1.0000
  H   H12       1.0  0.41907  0.29325  0.33654  1.0000
  H   H13       1.0  0.17400  0.73548  0.69402  1.0000
  H   H14       1.0  0.82599  0.26452  0.30596  1.0000
  H   H15       1.0  0.05180  0.56319  0.65478  1.0000
  H   H16       1.0  0.94819  0.43680  0.34522  1.0000
  H   H17       1.0  0.77918  0.82035  0.32395  1.0000
  H   H18       1.0  0.22083  0.17966  0.67606  1.0000
  H   H19       1.0  0.30422  0.04990  0.29426  1.0000
  H   H20       1.0  0.69579  0.95010  0.70574  1.0000
  H   H21       1.0  0.58610  0.75322  0.12837  1.0000
  H   H22       1.0  0.41388  0.24678  0.87164  1.0000
  H   H23       1.0  0.89353  0.82857  0.16285  1.0000
  H   H24       1.0  0.10646  0.17143  0.83714  1.0000
  H   H25       1.0  0.81804  0.05130  0.15575  1.0000
  H   H26       1.0  0.18196  0.94870  0.84425  1.0000
  H   H27       1.0  0.67962  0.94706  0.04314  1.0000
  H   H28       1.0  0.32037  0.05294  0.95686  1.0000
  H   H29       1.0  0.41278  0.09049  0.13018  1.0000
  H   H30       1.0  0.58722  0.90950  0.86982  1.0000
  H   H31       1.0  0.28329  0.91629  0.10818  1.0000
  H   H32       1.0  0.71670  0.08372  0.89182  1.0000
  C   C1        1.0  0.40834  0.53790  0.81965  1.0000
  C   C2        1.0  0.59165  0.46210  0.18034  1.0000
  C   C3        1.0  0.49580  0.49278  0.64289  1.0000
  C   C4        1.0  0.50422  0.50722  0.35712  1.0000
  C   C5        1.0  0.42769  0.62458  0.63337  1.0000
  C   C6        1.0  0.57232  0.37542  0.36662  1.0000
  C   C7        1.0  0.21277  0.63643  0.69140  1.0000
  C   C8        1.0  0.78724  0.36357  0.30859  1.0000
  C   C9        1.0  0.53941  0.93655  0.31607  1.0000
  C   C10       1.0  0.46060  0.06345  0.68393  1.0000
  C   C11       1.0  0.71143  0.84329  0.16898  1.0000
  C   C12       1.0  0.28857  0.15671  0.83102  1.0000
  C   C13       1.0  0.67267  0.96504  0.12501  1.0000
  C   C14       1.0  0.32734  0.03496  0.87499  1.0000
  C   C15       1.0  0.43220  0.99400  0.14982  1.0000
  C   C16       1.0  0.56781  0.00600  0.85018  1.0000
  N   N1        1.0  0.51790  0.47637  0.74935  1.0000
  N   N2        1.0  0.48210  0.52364  0.25066  1.0000
  N   N3        1.0  0.26242  0.61439  0.79485  1.0000
  N   N4        1.0  0.73757  0.38562  0.20515  1.0000
  N   N5        1.0  0.67337  0.85786  0.27585  1.0000
  N   N6        1.0  0.32663  0.14214  0.72415  1.0000
  N   N7        1.0  0.41774  0.00009  0.25860  1.0000
  N   N8        1.0  0.58226  0.99991  0.74141  1.0000
  Cl  Cl1       1.0  0.10128  0.62919  0.10313  1.0000
  Cl  Cl2       1.0  0.89873  0.37082  0.89688  1.0000
  Cl  Cl3       1.0  0.88814  0.74986  0.91077  1.0000
  Cl  Cl4       1.0  0.11186  0.25015  0.08923  1.0000
  Cl  Cl5       1.0  0.94152  0.87953  0.58779  1.0000
  Cl  Cl6       1.0  0.05849  0.12047  0.41222  1.0000
  Cl  Cl7       1.0  0.08285  0.72923  0.37305  1.0000
  Cl  Cl8       1.0  0.91715  0.27077  0.62695  1.0000
  O   O1        1.0  0.44676  0.52351  0.91477  1.0000
  O   O2        1.0  0.55324  0.47650  0.08524  1.0000
  O   O3        1.0  0.53000  0.95414  0.41455  1.0000
  O   O4        1.0  0.47000  0.04585  0.58546  1.0000
