data_image0
_chemical_formula_structural       Mn2H20C12N4O10
_chemical_formula_sum              "Mn2 H20 C12 N4 O10"
_cell_length_a       7.1697
_cell_length_b       7.6177
_cell_length_c       9.50409
_cell_angle_alpha    113.651
_cell_angle_beta     112.154
_cell_angle_gamma    89.9833

_space_group_name_H-M_alt    "P 1"
_space_group_IT_number       1

loop_
  _space_group_symop_operation_xyz
  'x, y, z'

loop_
  _atom_site_type_symbol
  _atom_site_label
  _atom_site_symmetry_multiplicity
  _atom_site_fract_x
  _atom_site_fract_y
  _atom_site_fract_z
  _atom_site_occupancy
  Mn  Mn1       1.0  0.27225  0.80505  0.61021  1.0000
  Mn  Mn2       1.0  0.66214  0.19494  0.38985  1.0000
  H   H1        1.0  0.89866  0.61550  0.44488  1.0000
  H   H2        1.0  0.45384  0.38457  0.55519  1.0000
  H   H3        1.0  0.45381  0.17080  0.55518  1.0000
  H   H4        1.0  0.89864  0.82927  0.44488  1.0000
  H   H5        1.0  0.33606  0.56070  0.12131  1.0000
  H   H6        1.0  0.21470  0.43936  0.87879  1.0000
  H   H7        1.0  0.13531  0.59640  0.19280  1.0000
  H   H8        1.0  0.94249  0.40375  0.80727  1.0000
  H   H9        1.0  0.76725  0.35140  0.15146  1.0000
  H   H10       1.0  0.61603  0.64853  0.84845  1.0000
  H   H11       1.0  0.61590  0.19993  0.84858  1.0000
  H   H12       1.0  0.76739  0.79998  0.15134  1.0000
  H   H13       1.0  0.99983  0.29037  0.26358  1.0000
  H   H14       1.0  0.73645  0.70955  0.73631  1.0000
  H   H15       1.0  0.73635  0.02671  0.73639  1.0000
  H   H16       1.0  0.99990  0.97324  0.26351  1.0000
  H   H17       1.0  0.04822  0.94377  0.88760  1.0000
  H   H18       1.0  0.16054  0.05618  0.11232  1.0000
  H   H19       1.0  0.45392  0.11754  0.99998  1.0000
  H   H20       1.0  0.45402  0.88232  0.99990  1.0000
  C   C1        1.0  0.38479  0.49808  0.33172  1.0000
  C   C2        1.0  0.05306  0.50199  0.66837  1.0000
  C   C3        1.0  0.05285  0.16619  0.66838  1.0000
  C   C4        1.0  0.38457  0.83388  0.33173  1.0000
  C   C5        1.0  0.30245  0.61635  0.23255  1.0000
  C   C6        1.0  0.06992  0.38376  0.76755  1.0000
  C   C7        1.0  0.85568  0.23344  0.14988  1.0000
  C   C8        1.0  0.70598  0.76650  0.85002  1.0000
  C   C9        1.0  0.70589  0.08351  0.85009  1.0000
  C   C10       1.0  0.85575  0.91641  0.14980  1.0000
  C   C11       1.0  0.01509  0.99999  0.99997  1.0000
  C   C12       1.0  0.54202  0.99994  0.99993  1.0000
  N   N1        1.0  0.73554  0.07756  0.15513  1.0000
  N   N2        1.0  0.58044  0.92235  0.84476  1.0000
  N   N3        1.0  0.89954  0.16023  0.99999  1.0000
  N   N4        1.0  0.89963  0.83972  0.99992  1.0000
  O   O1        1.0  0.95160  0.70490  0.40995  1.0000
  O   O2        1.0  0.54170  0.29513  0.59012  1.0000
  O   O3        1.0  0.36316  0.54325  0.46939  1.0000
  O   O4        1.0  0.89374  0.45684  0.53070  1.0000
  O   O5        1.0  0.89367  0.07375  0.53063  1.0000
  O   O6        1.0  0.36296  0.92639  0.46944  1.0000
  O   O7        1.0  0.46809  0.35733  0.27101  1.0000
  O   O8        1.0  0.19697  0.64264  0.72899  1.0000
  O   O9        1.0  0.19659  0.08602  0.72914  1.0000
  O   O10       1.0  0.46775  0.91394  0.27105  1.0000
