data_image0
_chemical_formula_structural       Hg2H44C56S4N8O8
_chemical_formula_sum              "Hg2 H44 C56 S4 N8 O8"
_cell_length_a       8.49039
_cell_length_b       12.2296
_cell_length_c       12.8149
_cell_angle_alpha    90.0001
_cell_angle_beta     98.0382
_cell_angle_gamma    89.9999

_space_group_name_H-M_alt    "P 1"
_space_group_IT_number       1

loop_
  _space_group_symop_operation_xyz
  'x, y, z'

loop_
  _atom_site_type_symbol
  _atom_site_label
  _atom_site_symmetry_multiplicity
  _atom_site_fract_x
  _atom_site_fract_y
  _atom_site_fract_z
  _atom_site_occupancy
  Hg  Hg1       1.0  0.50000  0.50000  0.00000  1.0000
  Hg  Hg2       1.0  0.50000  0.00000  0.50000  1.0000
  H   H1        1.0  0.49795  0.76162  0.76200  1.0000
  H   H2        1.0  0.50205  0.26163  0.73800  1.0000
  H   H3        1.0  0.50205  0.23838  0.23800  1.0000
  H   H4        1.0  0.49795  0.73838  0.26200  1.0000
  H   H5        1.0  0.54218  0.59127  0.66683  1.0000
  H   H6        1.0  0.45783  0.09127  0.83317  1.0000
  H   H7        1.0  0.45783  0.40873  0.33317  1.0000
  H   H8        1.0  0.54217  0.90873  0.16683  1.0000
  H   H9        1.0  0.73945  0.45346  0.74964  1.0000
  H   H10       1.0  0.26055  0.95346  0.75036  1.0000
  H   H11       1.0  0.26055  0.54654  0.25036  1.0000
  H   H12       1.0  0.73945  0.04654  0.24964  1.0000
  H   H13       1.0  0.88498  0.48704  0.92844  1.0000
  H   H14       1.0  0.11501  0.98704  0.57156  1.0000
  H   H15       1.0  0.11501  0.51296  0.07156  1.0000
  H   H16       1.0  0.88499  0.01296  0.42844  1.0000
  H   H17       1.0  0.99235  0.80879  0.18070  1.0000
  H   H18       1.0  0.00765  0.30880  0.31930  1.0000
  H   H19       1.0  0.00765  0.19121  0.81930  1.0000
  H   H20       1.0  0.99235  0.69121  0.68070  1.0000
  H   H21       1.0  0.17126  0.85334  0.34820  1.0000
  H   H22       1.0  0.82875  0.35335  0.15180  1.0000
  H   H23       1.0  0.82875  0.14665  0.65180  1.0000
  H   H24       1.0  0.17125  0.64665  0.84820  1.0000
  H   H25       1.0  0.08940  0.53257  0.46658  1.0000
  H   H26       1.0  0.91060  0.03257  0.03342  1.0000
  H   H27       1.0  0.91060  0.46743  0.53342  1.0000
  H   H28       1.0  0.08940  0.96743  0.96658  1.0000
  H   H29       1.0  0.89877  0.49177  0.30461  1.0000
  H   H30       1.0  0.10123  0.99177  0.19539  1.0000
  H   H31       1.0  0.10123  0.50823  0.69539  1.0000
  H   H32       1.0  0.89877  0.00823  0.80461  1.0000
  H   H33       1.0  0.58460  0.80443  0.03205  1.0000
  H   H34       1.0  0.41540  0.30443  0.46795  1.0000
  H   H35       1.0  0.41540  0.19557  0.96795  1.0000
  H   H36       1.0  0.58460  0.69557  0.53205  1.0000
  H   H37       1.0  0.55012  0.87892  0.91105  1.0000
  H   H38       1.0  0.44988  0.37893  0.58895  1.0000
  H   H39       1.0  0.44988  0.12108  0.08894  1.0000
  H   H40       1.0  0.55012  0.62108  0.41105  1.0000
  H   H41       1.0  0.74435  0.86964  0.98355  1.0000
  H   H42       1.0  0.25565  0.36964  0.51645  1.0000
  H   H43       1.0  0.25565  0.13036  0.01645  1.0000
  H   H44       1.0  0.74435  0.63036  0.48355  1.0000
  C   C1        1.0  0.77318  0.64337  0.94681  1.0000
  C   C2        1.0  0.22682  0.14337  0.55319  1.0000
  C   C3        1.0  0.22682  0.35663  0.05319  1.0000
  C   C4        1.0  0.77318  0.85663  0.44681  1.0000
  C   C5        1.0  0.66368  0.72268  0.89977  1.0000
  C   C6        1.0  0.33632  0.22268  0.60023  1.0000
  C   C7        1.0  0.33632  0.27732  0.10023  1.0000
  C   C8        1.0  0.66368  0.77732  0.39977  1.0000
  C   C9        1.0  0.58385  0.70185  0.79858  1.0000
  C   C10       1.0  0.41615  0.20185  0.70142  1.0000
  C   C11       1.0  0.41615  0.29815  0.20142  1.0000
  C   C12       1.0  0.58385  0.79815  0.29858  1.0000
  C   C13       1.0  0.61043  0.60628  0.74392  1.0000
  C   C14       1.0  0.38957  0.10628  0.75608  1.0000
  C   C15       1.0  0.38957  0.39372  0.25608  1.0000
  C   C16       1.0  0.61043  0.89372  0.24392  1.0000
  C   C17       1.0  0.71957  0.52934  0.79030  1.0000
  C   C18       1.0  0.28043  0.02934  0.70969  1.0000
  C   C19       1.0  0.28043  0.47066  0.20970  1.0000
  C   C20       1.0  0.71957  0.97066  0.29030  1.0000
  C   C21       1.0  0.80111  0.54757  0.89115  1.0000
  C   C22       1.0  0.19889  0.04757  0.60885  1.0000
  C   C23       1.0  0.19889  0.45243  0.10885  1.0000
  C   C24       1.0  0.80111  0.95243  0.39115  1.0000
  C   C25       1.0  0.82391  0.62416  0.13311  1.0000
  C   C26       1.0  0.17609  0.12416  0.36689  1.0000
  C   C27       1.0  0.17610  0.37584  0.86688  1.0000
  C   C28       1.0  0.82391  0.87584  0.63311  1.0000
  C   C29       1.0  0.93309  0.64848  0.23225  1.0000
  C   C30       1.0  0.06691  0.14848  0.26775  1.0000
  C   C31       1.0  0.06691  0.35153  0.76775  1.0000
  C   C32       1.0  0.93309  0.85152  0.73225  1.0000
  C   C33       1.0  0.01249  0.74937  0.24433  1.0000
  C   C34       1.0  0.98751  0.24937  0.25567  1.0000
  C   C35       1.0  0.98751  0.25063  0.75567  1.0000
  C   C36       1.0  0.01249  0.75063  0.74433  1.0000
  C   C37       1.0  0.11203  0.77432  0.33696  1.0000
  C   C38       1.0  0.88797  0.27432  0.16304  1.0000
  C   C39       1.0  0.88797  0.22568  0.66304  1.0000
  C   C40       1.0  0.11203  0.72568  0.83696  1.0000
  C   C41       1.0  0.13471  0.69518  0.41622  1.0000
  C   C42       1.0  0.86529  0.19518  0.08378  1.0000
  C   C43       1.0  0.86529  0.30482  0.58378  1.0000
  C   C44       1.0  0.13471  0.80482  0.91622  1.0000
  C   C45       1.0  0.06225  0.59285  0.40447  1.0000
  C   C46       1.0  0.93775  0.09285  0.09553  1.0000
  C   C47       1.0  0.93775  0.40715  0.59553  1.0000
  C   C48       1.0  0.06225  0.90715  0.90447  1.0000
  C   C49       1.0  0.95891  0.57050  0.31336  1.0000
  C   C50       1.0  0.04109  0.07050  0.18665  1.0000
  C   C51       1.0  0.04109  0.42951  0.68665  1.0000
  C   C52       1.0  0.95891  0.92950  0.81336  1.0000
  C   C53       1.0  0.63330  0.82441  0.95928  1.0000
  C   C54       1.0  0.36670  0.32442  0.54071  1.0000
  C   C55       1.0  0.36670  0.17558  0.04071  1.0000
  C   C56       1.0  0.63330  0.67559  0.45928  1.0000
  S   S1        1.0  0.65927  0.54618  0.16096  1.0000
  S   S2        1.0  0.34072  0.04618  0.33904  1.0000
  S   S3        1.0  0.34073  0.45382  0.83904  1.0000
  S   S4        1.0  0.65928  0.95383  0.66096  1.0000
  N   N1        1.0  0.85998  0.66268  0.04614  1.0000
  N   N2        1.0  0.14002  0.16269  0.45386  1.0000
  N   N3        1.0  0.14002  0.33731  0.95386  1.0000
  N   N4        1.0  0.85998  0.83732  0.54614  1.0000
  N   N5        1.0  0.23481  0.71872  0.51601  1.0000
  N   N6        1.0  0.76519  0.21872  0.98400  1.0000
  N   N7        1.0  0.76519  0.28129  0.48399  1.0000
  N   N8        1.0  0.23481  0.78128  0.01601  1.0000
  O   O1        1.0  0.25731  0.64426  0.58274  1.0000
  O   O2        1.0  0.74269  0.14426  0.91726  1.0000
  O   O3        1.0  0.74270  0.35574  0.41726  1.0000
  O   O4        1.0  0.25731  0.85574  0.08274  1.0000
  O   O5        1.0  0.29194  0.81191  0.53002  1.0000
  O   O6        1.0  0.70806  0.31192  0.96998  1.0000
  O   O7        1.0  0.70806  0.18809  0.46998  1.0000
  O   O8        1.0  0.29194  0.68809  0.03002  1.0000
