data_image0
_chemical_formula_structural       Hg2H32C52S4N8Cl4O8
_chemical_formula_sum              "Hg2 H32 C52 S4 N8 Cl4 O8"
_cell_length_a       8.27498
_cell_length_b       12.1685
_cell_length_c       13.0868
_cell_angle_alpha    90.0008
_cell_angle_beta     98.613
_cell_angle_gamma    89.9996

_space_group_name_H-M_alt    "P 1"
_space_group_IT_number       1

loop_
  _space_group_symop_operation_xyz
  'x, y, z'

loop_
  _atom_site_type_symbol
  _atom_site_label
  _atom_site_symmetry_multiplicity
  _atom_site_fract_x
  _atom_site_fract_y
  _atom_site_fract_z
  _atom_site_occupancy
  Hg  Hg1       1.0  0.50000  0.00000  0.00000  1.0000
  Hg  Hg2       1.0  0.50000  0.50000  0.50000  1.0000
  H   H1        1.0  0.49921  0.28375  0.77415  1.0000
  H   H2        1.0  0.50079  0.78375  0.72585  1.0000
  H   H3        1.0  0.50080  0.71625  0.22586  1.0000
  H   H4        1.0  0.49920  0.21625  0.27414  1.0000
  H   H5        1.0  0.53728  0.11538  0.67451  1.0000
  H   H6        1.0  0.46272  0.61538  0.82549  1.0000
  H   H7        1.0  0.46272  0.88463  0.32549  1.0000
  H   H8        1.0  0.53728  0.38462  0.17450  1.0000
  H   H9        1.0  0.73194  0.96953  0.75268  1.0000
  H   H10       1.0  0.26806  0.46953  0.74732  1.0000
  H   H11       1.0  0.26807  0.03048  0.24732  1.0000
  H   H12       1.0  0.73194  0.53047  0.25268  1.0000
  H   H13       1.0  0.88158  0.99341  0.93016  1.0000
  H   H14       1.0  0.11842  0.49341  0.56983  1.0000
  H   H15       1.0  0.11842  0.00660  0.06984  1.0000
  H   H16       1.0  0.88158  0.50659  0.43016  1.0000
  H   H17       1.0  0.00152  0.30839  0.18666  1.0000
  H   H18       1.0  0.99849  0.80839  0.31335  1.0000
  H   H19       1.0  0.99849  0.69161  0.81335  1.0000
  H   H20       1.0  0.00151  0.19160  0.68665  1.0000
  H   H21       1.0  0.17935  0.35211  0.35466  1.0000
  H   H22       1.0  0.82065  0.85212  0.14535  1.0000
  H   H23       1.0  0.82064  0.64789  0.64535  1.0000
  H   H24       1.0  0.17935  0.14788  0.85465  1.0000
  H   H25       1.0  0.09433  0.02710  0.46489  1.0000
  H   H26       1.0  0.90567  0.52711  0.03511  1.0000
  H   H27       1.0  0.90567  0.97290  0.53511  1.0000
  H   H28       1.0  0.09434  0.47290  0.96489  1.0000
  H   H29       1.0  0.90530  0.98755  0.30198  1.0000
  H   H30       1.0  0.09470  0.48755  0.19801  1.0000
  H   H31       1.0  0.09470  0.01245  0.69802  1.0000
  H   H32       1.0  0.90530  0.51245  0.80198  1.0000
  C   C1        1.0  0.77636  0.15194  0.95409  1.0000
  C   C2        1.0  0.22363  0.65194  0.54591  1.0000
  C   C3        1.0  0.22364  0.84806  0.04592  1.0000
  C   C4        1.0  0.77636  0.34806  0.45408  1.0000
  C   C5        1.0  0.66835  0.23369  0.90728  1.0000
  C   C6        1.0  0.33164  0.73369  0.59272  1.0000
  C   C7        1.0  0.33165  0.76631  0.09272  1.0000
  C   C8        1.0  0.66835  0.26631  0.40728  1.0000
  C   C9        1.0  0.58328  0.22003  0.80767  1.0000
  C   C10       1.0  0.41672  0.72003  0.69233  1.0000
  C   C11       1.0  0.41672  0.77997  0.19233  1.0000
  C   C12       1.0  0.58328  0.27997  0.30767  1.0000
  C   C13       1.0  0.60636  0.12534  0.75148  1.0000
  C   C14       1.0  0.39364  0.62534  0.74852  1.0000
  C   C15       1.0  0.39364  0.87466  0.24852  1.0000
  C   C16       1.0  0.60636  0.37466  0.25148  1.0000
  C   C17       1.0  0.71451  0.04436  0.79536  1.0000
  C   C18       1.0  0.28549  0.54436  0.70464  1.0000
  C   C19       1.0  0.28549  0.95564  0.20464  1.0000
  C   C20       1.0  0.71451  0.45564  0.29536  1.0000
  C   C21       1.0  0.79846  0.05719  0.89539  1.0000
  C   C22       1.0  0.20154  0.55719  0.60461  1.0000
  C   C23       1.0  0.20154  0.94281  0.10461  1.0000
  C   C24       1.0  0.79846  0.44281  0.39539  1.0000
  C   C25       1.0  0.82979  0.12416  0.13566  1.0000
  C   C26       1.0  0.17021  0.62416  0.36434  1.0000
  C   C27       1.0  0.17022  0.87585  0.86434  1.0000
  C   C28       1.0  0.82979  0.37585  0.63566  1.0000
  C   C29       1.0  0.94111  0.14631  0.23419  1.0000
  C   C30       1.0  0.05890  0.64631  0.26581  1.0000
  C   C31       1.0  0.05889  0.85369  0.76581  1.0000
  C   C32       1.0  0.94111  0.35369  0.73419  1.0000
  C   C33       1.0  0.02118  0.24805  0.24862  1.0000
  C   C34       1.0  0.97882  0.74805  0.25138  1.0000
  C   C35       1.0  0.97882  0.75195  0.75138  1.0000
  C   C36       1.0  0.02118  0.25194  0.74862  1.0000
  C   C37       1.0  0.11987  0.27238  0.34153  1.0000
  C   C38       1.0  0.88013  0.77238  0.15848  1.0000
  C   C39       1.0  0.88013  0.72762  0.65848  1.0000
  C   C40       1.0  0.11987  0.22762  0.84152  1.0000
  C   C41       1.0  0.14064  0.19218  0.41875  1.0000
  C   C42       1.0  0.85937  0.69218  0.08125  1.0000
  C   C43       1.0  0.85936  0.80782  0.58125  1.0000
  C   C44       1.0  0.14064  0.30782  0.91875  1.0000
  C   C45       1.0  0.06876  0.08861  0.40449  1.0000
  C   C46       1.0  0.93124  0.58862  0.09551  1.0000
  C   C47       1.0  0.93124  0.91139  0.59551  1.0000
  C   C48       1.0  0.06876  0.41138  0.90449  1.0000
  C   C49       1.0  0.96632  0.06681  0.31278  1.0000
  C   C50       1.0  0.03369  0.56681  0.18722  1.0000
  C   C51       1.0  0.03369  0.93319  0.68722  1.0000
  C   C52       1.0  0.96632  0.43319  0.81278  1.0000
  S   S1        1.0  0.66106  0.04445  0.15972  1.0000
  S   S2        1.0  0.33894  0.54445  0.34028  1.0000
  S   S3        1.0  0.33893  0.95555  0.84028  1.0000
  S   S4        1.0  0.66107  0.45555  0.65972  1.0000
  N   N1        1.0  0.86593  0.16664  0.05190  1.0000
  N   N2        1.0  0.13407  0.66665  0.44810  1.0000
  N   N3        1.0  0.13407  0.83336  0.94811  1.0000
  N   N4        1.0  0.86593  0.33335  0.55190  1.0000
  N   N5        1.0  0.23609  0.21695  0.51956  1.0000
  N   N6        1.0  0.76392  0.71696  0.98044  1.0000
  N   N7        1.0  0.76391  0.78304  0.48044  1.0000
  N   N8        1.0  0.23608  0.28304  0.01956  1.0000
  Cl  Cl1       1.0  0.63975  0.35292  0.97493  1.0000
  Cl  Cl2       1.0  0.36024  0.85292  0.52507  1.0000
  Cl  Cl3       1.0  0.36025  0.64708  0.02507  1.0000
  Cl  Cl4       1.0  0.63975  0.14708  0.47493  1.0000
  O   O1        1.0  0.25293  0.14320  0.58603  1.0000
  O   O2        1.0  0.74707  0.64321  0.91398  1.0000
  O   O3        1.0  0.74707  0.85680  0.41397  1.0000
  O   O4        1.0  0.25292  0.35680  0.08602  1.0000
  O   O5        1.0  0.29356  0.31092  0.53473  1.0000
  O   O6        1.0  0.70644  0.81093  0.96527  1.0000
  O   O7        1.0  0.70644  0.68908  0.46527  1.0000
  O   O8        1.0  0.29356  0.18907  0.03473  1.0000
