data_image0
_chemical_formula_structural       Cu2H12C12N4O8
_chemical_formula_sum              "Cu2 H12 C12 N4 O8"
_cell_length_a       6.84554
_cell_length_b       6.84543
_cell_length_c       8.56474
_cell_angle_alpha    92.294
_cell_angle_beta     92.2928
_cell_angle_gamma    68.8064

_space_group_name_H-M_alt    "P 1"
_space_group_IT_number       1

loop_
  _space_group_symop_operation_xyz
  'x, y, z'

loop_
  _atom_site_type_symbol
  _atom_site_label
  _atom_site_symmetry_multiplicity
  _atom_site_fract_x
  _atom_site_fract_y
  _atom_site_fract_z
  _atom_site_occupancy
  Cu  Cu1       1.0  0.50000  0.00000  0.00000  1.0000
  Cu  Cu2       1.0  1.00000  0.50000  0.50000  1.0000
  H   H1        1.0  0.69508  0.32075  0.97358  1.0000
  H   H2        1.0  0.32074  0.69510  0.47360  1.0000
  H   H3        1.0  0.30491  0.67926  0.02642  1.0000
  H   H4        1.0  0.67926  0.30490  0.52641  1.0000
  H   H5        1.0  0.94007  0.67599  0.03650  1.0000
  H   H6        1.0  0.67598  0.94010  0.53649  1.0000
  H   H7        1.0  0.05991  0.32403  0.96351  1.0000
  H   H8        1.0  0.32402  0.05990  0.46351  1.0000
  H   H9        1.0  0.67669  0.58323  0.15065  1.0000
  H   H10       1.0  0.58323  0.67669  0.65068  1.0000
  H   H11       1.0  0.32331  0.41676  0.84934  1.0000
  H   H12       1.0  0.41677  0.32331  0.34933  1.0000
  C   C1        1.0  0.83101  0.17688  0.98504  1.0000
  C   C2        1.0  0.17689  0.83101  0.48504  1.0000
  C   C3        1.0  0.16898  0.82313  0.01496  1.0000
  C   C4        1.0  0.82311  0.16898  0.51495  1.0000
  C   C5        1.0  0.96668  0.82083  0.02019  1.0000
  C   C6        1.0  0.82081  0.96670  0.52020  1.0000
  C   C7        1.0  0.03331  0.17918  0.97981  1.0000
  C   C8        1.0  0.17920  0.03330  0.47980  1.0000
  C   C9        1.0  0.62348  0.69666  0.24975  1.0000
  C   C10       1.0  0.69667  0.62348  0.74977  1.0000
  C   C11       1.0  0.37652  0.30332  0.75024  1.0000
  C   C12       1.0  0.30333  0.37653  0.25024  1.0000
  N   N1        1.0  0.79837  0.99775  0.00497  1.0000
  N   N2        1.0  0.99773  0.79842  0.50497  1.0000
  N   N3        1.0  0.20161  0.00226  0.99504  1.0000
  N   N4        1.0  0.00227  0.20159  0.49502  1.0000
  O   O1        1.0  0.53939  0.89188  0.21639  1.0000
  O   O2        1.0  0.89189  0.53938  0.71640  1.0000
  O   O3        1.0  0.46060  0.10812  0.78361  1.0000
  O   O4        1.0  0.10813  0.46061  0.28360  1.0000
  O   O5        1.0  0.64600  0.63218  0.38687  1.0000
  O   O6        1.0  0.63220  0.64600  0.88688  1.0000
  O   O7        1.0  0.35400  0.36780  0.61312  1.0000
  O   O8        1.0  0.36782  0.35400  0.11313  1.0000
