data_image0
_chemical_formula_structural       Gd2H20C14O22
_chemical_formula_sum              "Gd2 H20 C14 O22"
_cell_length_a       6.06256
_cell_length_b       8.59752
_cell_length_c       12.9577
_cell_angle_alpha    99.0678
_cell_angle_beta     101.939
_cell_angle_gamma    97.8454

_space_group_name_H-M_alt    "P 1"
_space_group_IT_number       1

loop_
  _space_group_symop_operation_xyz
  'x, y, z'

loop_
  _atom_site_type_symbol
  _atom_site_label
  _atom_site_symmetry_multiplicity
  _atom_site_fract_x
  _atom_site_fract_y
  _atom_site_fract_z
  _atom_site_occupancy
  Gd  Gd1       1.0  0.74584  0.22111  0.71731  1.0000
  Gd  Gd2       1.0  0.25416  0.77889  0.28269  1.0000
  H   H1        1.0  0.66757  0.30126  0.95032  1.0000
  H   H2        1.0  0.33243  0.69874  0.04967  1.0000
  H   H3        1.0  0.11727  0.50972  0.75250  1.0000
  H   H4        1.0  0.88274  0.49028  0.24751  1.0000
  H   H5        1.0  0.66272  0.91102  0.80874  1.0000
  H   H6        1.0  0.33729  0.08899  0.19126  1.0000
  H   H7        1.0  0.43683  0.24975  0.07059  1.0000
  H   H8        1.0  0.56317  0.75025  0.92941  1.0000
  H   H9        1.0  0.00944  0.28316  0.53693  1.0000
  H   H10       1.0  0.99057  0.71683  0.46306  1.0000
  H   H11       1.0  0.17230  0.26133  0.64584  1.0000
  H   H12       1.0  0.82770  0.73866  0.35416  1.0000
  H   H13       1.0  0.31404  0.87568  0.81735  1.0000
  H   H14       1.0  0.68596  0.12431  0.18265  1.0000
  H   H15       1.0  0.24327  0.00859  0.98072  1.0000
  H   H16       1.0  0.75673  0.99141  0.01928  1.0000
  H   H17       1.0  0.78205  0.57248  0.99697  1.0000
  H   H18       1.0  0.21796  0.42752  0.00303  1.0000
  H   H19       1.0  0.05653  0.69897  0.89628  1.0000
  H   H20       1.0  0.94348  0.30102  0.10372  1.0000
  C   C1        1.0  0.40129  0.00073  0.84672  1.0000
  C   C2        1.0  0.59871  0.99927  0.15328  1.0000
  C   C3        1.0  0.25816  0.10546  0.78612  1.0000
  C   C4        1.0  0.74185  0.89453  0.21388  1.0000
  C   C5        1.0  0.41573  0.04395  0.96779  1.0000
  C   C6        1.0  0.58427  0.95605  0.03221  1.0000
  C   C7        1.0  0.89204  0.50332  0.95756  1.0000
  C   C8        1.0  0.10796  0.49668  0.04243  1.0000
  C   C9        1.0  0.55262  0.92912  0.51954  1.0000
  C   C10       1.0  0.44735  0.07088  0.48046  1.0000
  C   C11       1.0  0.72198  0.59219  0.79022  1.0000
  C   C12       1.0  0.27802  0.40783  0.20978  1.0000
  C   C13       1.0  0.94974  0.57998  0.86534  1.0000
  C   C14       1.0  0.05026  0.42002  0.13466  1.0000
  O   O1        1.0  0.48670  0.79359  0.45834  1.0000
  O   O2        1.0  0.51328  0.20641  0.54166  1.0000
  O   O3        1.0  0.05701  0.10519  0.79705  1.0000
  O   O4        1.0  0.94298  0.89481  0.20295  1.0000
  O   O5        1.0  0.77586  0.34474  0.90810  1.0000
  O   O6        1.0  0.22414  0.65526  0.09190  1.0000
  O   O7        1.0  0.06893  0.47036  0.81253  1.0000
  O   O8        1.0  0.93108  0.52964  0.18747  1.0000
  O   O9        1.0  0.64130  0.47986  0.71070  1.0000
  O   O10       1.0  0.35871  0.52015  0.28930  1.0000
  O   O11       1.0  0.62209  0.01923  0.82343  1.0000
  O   O12       1.0  0.37791  0.98077  0.17658  1.0000
  O   O13       1.0  0.48624  0.21343  0.00208  1.0000
  O   O14       1.0  0.51377  0.78657  0.99792  1.0000
  O   O15       1.0  0.62579  0.71037  0.81690  1.0000
  O   O16       1.0  0.37422  0.28964  0.18310  1.0000
  O   O17       1.0  0.35454  0.18556  0.72740  1.0000
  O   O18       1.0  0.64546  0.81443  0.27260  1.0000
  O   O19       1.0  0.02581  0.29711  0.61412  1.0000
  O   O20       1.0  0.97419  0.70288  0.38588  1.0000
  O   O21       1.0  0.69637  0.96189  0.60958  1.0000
  O   O22       1.0  0.30360  0.03811  0.39042  1.0000
