data_image0
_chemical_formula_structural       Dy2H20C14O22
_chemical_formula_sum              "Dy2 H20 C14 O22"
_cell_length_a       8.54343
_cell_length_b       8.84848
_cell_length_c       9.7245
_cell_angle_alpha    96.7924
_cell_angle_beta     112.579
_cell_angle_gamma    110.158

_space_group_name_H-M_alt    "P 1"
_space_group_IT_number       1

loop_
  _space_group_symop_operation_xyz
  'x, y, z'

loop_
  _atom_site_type_symbol
  _atom_site_label
  _atom_site_symmetry_multiplicity
  _atom_site_fract_x
  _atom_site_fract_y
  _atom_site_fract_z
  _atom_site_occupancy
  Dy  Dy1       1.0  0.28835  0.55277  0.36741  1.0000
  Dy  Dy2       1.0  0.71165  0.44723  0.63259  1.0000
  H   H1        1.0  0.61834  0.59255  0.30337  1.0000
  H   H2        1.0  0.38166  0.40745  0.69663  1.0000
  H   H3        1.0  0.46308  0.87764  0.56229  1.0000
  H   H4        1.0  0.53692  0.12236  0.43772  1.0000
  H   H5        1.0  0.27350  0.87689  0.45280  1.0000
  H   H6        1.0  0.72650  0.12311  0.54720  1.0000
  H   H7        1.0  0.15321  0.41716  0.83813  1.0000
  H   H8        1.0  0.84679  0.58285  0.16187  1.0000
  H   H9        1.0  0.94203  0.26734  0.11350  1.0000
  H   H10       1.0  0.05798  0.73266  0.88650  1.0000
  H   H11       1.0  0.22073  0.22590  0.00386  1.0000
  H   H12       1.0  0.77927  0.77410  0.99614  1.0000
  H   H13       1.0  0.43125  0.60353  0.89447  1.0000
  H   H14       1.0  0.56875  0.39648  0.10553  1.0000
  H   H15       1.0  0.58986  0.78176  0.14944  1.0000
  H   H16       1.0  0.41013  0.21824  0.85057  1.0000
  H   H17       1.0  0.97924  0.06099  0.23020  1.0000
  H   H18       1.0  0.02077  0.93902  0.76980  1.0000
  H   H19       1.0  0.12603  0.93165  0.10756  1.0000
  H   H20       1.0  0.87398  0.06836  0.89244  1.0000
  C   C1        1.0  0.06242  0.47722  0.56901  1.0000
  C   C2        1.0  0.93757  0.52276  0.43098  1.0000
  C   C3        1.0  0.29653  0.70289  0.08702  1.0000
  C   C4        1.0  0.70347  0.29711  0.91299  1.0000
  C   C5        1.0  0.42657  0.53511  0.98159  1.0000
  C   C6        1.0  0.57343  0.46489  0.01841  1.0000
  C   C7        1.0  0.27920  0.18253  0.35217  1.0000
  C   C8        1.0  0.72081  0.81747  0.64783  1.0000
  C   C9        1.0  0.46804  0.66578  0.12525  1.0000
  C   C10       1.0  0.53195  0.33422  0.87475  1.0000
  C   C11       1.0  0.09655  0.14050  0.21151  1.0000
  C   C12       1.0  0.90346  0.85950  0.78849  1.0000
  C   C13       1.0  0.09642  0.03625  0.07150  1.0000
  C   C14       1.0  0.90358  0.96375  0.92850  1.0000
  O   O1        1.0  0.20186  0.46092  0.56274  1.0000
  O   O2        1.0  0.79813  0.53906  0.43725  1.0000
  O   O3        1.0  0.49988  0.60613  0.26028  1.0000
  O   O4        1.0  0.50012  0.39387  0.73973  1.0000
  O   O5        1.0  0.24805  0.75685  0.97094  1.0000
  O   O6        1.0  0.75194  0.24315  0.02907  1.0000
  O   O7        1.0  0.01455  0.45951  0.67596  1.0000
  O   O8        1.0  0.98545  0.54048  0.32403  1.0000
  O   O9        1.0  0.39817  0.33960  0.41583  1.0000
  O   O10       1.0  0.60183  0.66040  0.58417  1.0000
  O   O11       1.0  0.31202  0.06481  0.39695  1.0000
  O   O12       1.0  0.68798  0.93519  0.60305  1.0000
  O   O13       1.0  0.32492  0.80777  0.51212  1.0000
  O   O14       1.0  0.67508  0.19223  0.48788  1.0000
  O   O15       1.0  0.21244  0.67120  0.17144  1.0000
  O   O16       1.0  0.78756  0.32880  0.82857  1.0000
  O   O17       1.0  0.24751  0.39660  0.92270  1.0000
  O   O18       1.0  0.75248  0.60340  0.07730  1.0000
  O   O19       1.0  0.08192  0.29212  0.18863  1.0000
  O   O20       1.0  0.91809  0.70789  0.81137  1.0000
  O   O21       1.0  0.24251  0.13120  0.03937  1.0000
  O   O22       1.0  0.75749  0.86880  0.96063  1.0000
