data_image0
_chemical_formula_structural       CaH28C38O8
_chemical_formula_sum              "Ca1 H28 C38 O8"
_cell_length_a       5.1883
_cell_length_b       10.6022
_cell_length_c       15.2564
_cell_angle_alpha    82.441
_cell_angle_beta     85.132
_cell_angle_gamma    82.4943

_space_group_name_H-M_alt    "P 1"
_space_group_IT_number       1

loop_
  _space_group_symop_operation_xyz
  'x, y, z'

loop_
  _atom_site_type_symbol
  _atom_site_label
  _atom_site_symmetry_multiplicity
  _atom_site_fract_x
  _atom_site_fract_y
  _atom_site_fract_z
  _atom_site_occupancy
  Ca  Ca1       1.0  0.00000  0.00000  1.00000  1.0000
  H   H1        1.0  0.96304  0.73675  0.47745  1.0000
  H   H2        1.0  0.03696  0.26325  0.52255  1.0000
  H   H3        1.0  0.52283  0.25230  0.59967  1.0000
  H   H4        1.0  0.47717  0.74770  0.40033  1.0000
  H   H5        1.0  0.68313  0.14005  0.74328  1.0000
  H   H6        1.0  0.31687  0.85995  0.25672  1.0000
  H   H7        1.0  0.01386  0.32185  0.88417  1.0000
  H   H8        1.0  0.98614  0.67815  0.11584  1.0000
  H   H9        1.0  0.86399  0.44049  0.74275  1.0000
  H   H10       1.0  0.13602  0.55951  0.25725  1.0000
  H   H11       1.0  0.51860  0.51566  0.65595  1.0000
  H   H12       1.0  0.48140  0.48434  0.34405  1.0000
  H   H13       1.0  0.63654  0.62918  0.77640  1.0000
  H   H14       1.0  0.36347  0.37082  0.22360  1.0000
  H   H15       1.0  0.95005  0.89972  0.74332  1.0000
  H   H16       1.0  0.04995  0.10028  0.25669  1.0000
  H   H17       1.0  0.82967  0.78736  0.62213  1.0000
  H   H18       1.0  0.17033  0.21264  0.37787  1.0000
  H   H19       1.0  0.60873  0.82511  0.93654  1.0000
  H   H20       1.0  0.39126  0.17488  0.06346  1.0000
  H   H21       1.0  0.38840  0.01662  0.59600  1.0000
  H   H22       1.0  0.61160  0.98338  0.40400  1.0000
  H   H23       1.0  0.33230  0.88910  0.53015  1.0000
  H   H24       1.0  0.66769  0.11090  0.46985  1.0000
  H   H25       1.0  0.73135  0.43826  0.05524  1.0000
  H   H26       1.0  0.26864  0.56174  0.94476  1.0000
  H   H27       1.0  0.73391  0.57315  0.96412  1.0000
  H   H28       1.0  0.26608  0.42685  0.03588  1.0000
  C   C1        1.0  0.97529  0.63236  0.48837  1.0000
  C   C2        1.0  0.02471  0.36764  0.51163  1.0000
  C   C3        1.0  0.07667  0.56699  0.56636  1.0000
  C   C4        1.0  0.92333  0.43301  0.43364  1.0000
  C   C5        1.0  0.09896  0.43116  0.57837  1.0000
  C   C6        1.0  0.90103  0.56884  0.42164  1.0000
  C   C7        1.0  0.18456  0.35515  0.66187  1.0000
  C   C8        1.0  0.81544  0.64485  0.33813  1.0000
  C   C9        1.0  0.41078  0.26650  0.66218  1.0000
  C   C10       1.0  0.58922  0.73350  0.33782  1.0000
  C   C11       1.0  0.50047  0.20387  0.74192  1.0000
  C   C12       1.0  0.49953  0.79614  0.25808  1.0000
  C   C13       1.0  0.35972  0.22494  0.82238  1.0000
  C   C14       1.0  0.64028  0.77506  0.17762  1.0000
  C   C15       1.0  0.12625  0.30795  0.82191  1.0000
  C   C16       1.0  0.87375  0.69205  0.17810  1.0000
  C   C17       1.0  0.04209  0.37356  0.74252  1.0000
  C   C18       1.0  0.95791  0.62644  0.25748  1.0000
  C   C19       1.0  0.46393  0.16363  0.90817  1.0000
  C   C20       1.0  0.53608  0.83637  0.09183  1.0000
  C   C21       1.0  0.16073  0.64054  0.63258  1.0000
  C   C22       1.0  0.83927  0.35946  0.36742  1.0000
  C   C23       1.0  0.39236  0.59920  0.67523  1.0000
  C   C24       1.0  0.60765  0.40080  0.32477  1.0000
  C   C25       1.0  0.45996  0.66259  0.74228  1.0000
  C   C26       1.0  0.54005  0.33741  0.25772  1.0000
  C   C27       1.0  0.29834  0.77007  0.76802  1.0000
  C   C28       1.0  0.70165  0.22993  0.23198  1.0000
  C   C29       1.0  0.07413  0.81615  0.72290  1.0000
  C   C30       1.0  0.92587  0.18385  0.27710  1.0000
  C   C31       1.0  0.00769  0.75275  0.65538  1.0000
  C   C32       1.0  0.99231  0.24725  0.34462  1.0000
  C   C33       1.0  0.35539  0.83188  0.84464  1.0000
  C   C34       1.0  0.64461  0.16812  0.15536  1.0000
  C   C35       1.0  0.42524  0.97470  0.53377  1.0000
  C   C36       1.0  0.57476  0.02529  0.46623  1.0000
  C   C37       1.0  0.62542  0.50288  0.00509  1.0000
  C   C38       1.0  0.37458  0.49711  0.99492  1.0000
  O   O1        1.0  0.29925  0.15445  0.97702  1.0000
  O   O2        1.0  0.70075  0.84555  0.02298  1.0000
  O   O3        1.0  0.70350  0.12576  0.91010  1.0000
  O   O4        1.0  0.29650  0.87425  0.08991  1.0000
  O   O5        1.0  0.19552  0.91593  0.87537  1.0000
  O   O6        1.0  0.80448  0.08407  0.12463  1.0000
  O   O7        1.0  0.58214  0.78954  0.87718  1.0000
  O   O8        1.0  0.41786  0.21046  0.12282  1.0000
