data_image0
_chemical_formula_structural       Pr2H38C64N8O10
_chemical_formula_sum              "Pr2 H38 C64 N8 O10"
_cell_length_a       8.79795
_cell_length_b       8.79797
_cell_length_c       17.3417
_cell_angle_alpha    91.7842
_cell_angle_beta     91.7838
_cell_angle_gamma    106.28

_space_group_name_H-M_alt    "P 1"
_space_group_IT_number       1

loop_
  _space_group_symop_operation_xyz
  'x, y, z'

loop_
  _atom_site_type_symbol
  _atom_site_label
  _atom_site_symmetry_multiplicity
  _atom_site_fract_x
  _atom_site_fract_y
  _atom_site_fract_z
  _atom_site_occupancy
  Pr  Pr1       1.0  0.29036  0.70964  0.75000  1.0000
  Pr  Pr2       1.0  0.70964  0.29036  0.25000  1.0000
  H   H1        1.0  0.22031  0.17527  0.78515  1.0000
  H   H2        1.0  0.82473  0.77969  0.71485  1.0000
  H   H3        1.0  0.77969  0.82473  0.21485  1.0000
  H   H4        1.0  0.17527  0.22031  0.28515  1.0000
  H   H5        1.0  0.75643  0.24357  0.75000  1.0000
  H   H6        1.0  0.24357  0.75643  0.25000  1.0000
  H   H7        1.0  0.08783  0.85672  0.88562  1.0000
  H   H8        1.0  0.14328  0.91217  0.61438  1.0000
  H   H9        1.0  0.91217  0.14328  0.11438  1.0000
  H   H10       1.0  0.85672  0.08783  0.38562  1.0000
  H   H11       1.0  0.06987  0.92622  0.02630  1.0000
  H   H12       1.0  0.07377  0.93013  0.47370  1.0000
  H   H13       1.0  0.93013  0.07377  0.97370  1.0000
  H   H14       1.0  0.92623  0.06987  0.52630  1.0000
  H   H15       1.0  0.28380  0.89925  0.11973  1.0000
  H   H16       1.0  0.10075  0.71620  0.38027  1.0000
  H   H17       1.0  0.71620  0.10075  0.88027  1.0000
  H   H18       1.0  0.89925  0.28380  0.61973  1.0000
  H   H19       1.0  0.52543  0.81765  0.14368  1.0000
  H   H20       1.0  0.18235  0.47457  0.35632  1.0000
  H   H21       1.0  0.47457  0.18235  0.85632  1.0000
  H   H22       1.0  0.81765  0.52543  0.64368  1.0000
  H   H23       1.0  0.72699  0.68964  0.09572  1.0000
  H   H24       1.0  0.31036  0.27301  0.40428  1.0000
  H   H25       1.0  0.27300  0.31036  0.90428  1.0000
  H   H26       1.0  0.68964  0.72699  0.59572  1.0000
  H   H27       1.0  0.85000  0.59017  0.98593  1.0000
  H   H28       1.0  0.40982  0.15000  0.51407  1.0000
  H   H29       1.0  0.15000  0.40983  0.01407  1.0000
  H   H30       1.0  0.59017  0.85000  0.48593  1.0000
  H   H31       1.0  0.85056  0.53281  0.84163  1.0000
  H   H32       1.0  0.46719  0.14945  0.65837  1.0000
  H   H33       1.0  0.14945  0.46719  0.15837  1.0000
  H   H34       1.0  0.53281  0.85056  0.34163  1.0000
  H   H35       1.0  0.63910  0.58614  0.75767  1.0000
  H   H36       1.0  0.41386  0.36091  0.74233  1.0000
  H   H37       1.0  0.36091  0.41386  0.24233  1.0000
  H   H38       1.0  0.58614  0.63909  0.25767  1.0000
  C   C1        1.0  0.07238  0.40211  0.77709  1.0000
  C   C2        1.0  0.59789  0.92762  0.72291  1.0000
  C   C3        1.0  0.92762  0.59789  0.22291  1.0000
  C   C4        1.0  0.40211  0.07238  0.27709  1.0000
  C   C5        1.0  0.99675  0.22773  0.76703  1.0000
  C   C6        1.0  0.77227  0.00325  0.73297  1.0000
  C   C7        1.0  0.00325  0.77227  0.23298  1.0000
  C   C8        1.0  0.22773  0.99675  0.26703  1.0000
  C   C9        1.0  0.09483  0.12736  0.76985  1.0000
  C   C10       1.0  0.87264  0.90517  0.73015  1.0000
  C   C11       1.0  0.90517  0.87264  0.23015  1.0000
  C   C12       1.0  0.12736  0.09483  0.26985  1.0000
  C   C13       1.0  0.03618  0.96383  0.75000  1.0000
  C   C14       1.0  0.96382  0.03617  0.25000  1.0000
  C   C15       1.0  0.83379  0.16621  0.75000  1.0000
  C   C16       1.0  0.16621  0.83379  0.25000  1.0000
  C   C17       1.0  0.17585  0.84247  0.92840  1.0000
  C   C18       1.0  0.15752  0.82415  0.57160  1.0000
  C   C19       1.0  0.82415  0.15753  0.07160  1.0000
  C   C20       1.0  0.84247  0.17585  0.42840  1.0000
  C   C21       1.0  0.16735  0.88279  0.00697  1.0000
  C   C22       1.0  0.11721  0.83265  0.49303  1.0000
  C   C23       1.0  0.83265  0.11721  0.99303  1.0000
  C   C24       1.0  0.88279  0.16735  0.50697  1.0000
  C   C25       1.0  0.28413  0.86695  0.05855  1.0000
  C   C26       1.0  0.13305  0.71587  0.44145  1.0000
  C   C27       1.0  0.71587  0.13305  0.94145  1.0000
  C   C28       1.0  0.86695  0.28413  0.55855  1.0000
  C   C29       1.0  0.40612  0.80604  0.03170  1.0000
  C   C30       1.0  0.19395  0.59388  0.46830  1.0000
  C   C31       1.0  0.59388  0.19395  0.96830  1.0000
  C   C32       1.0  0.80604  0.40612  0.53170  1.0000
  C   C33       1.0  0.52691  0.78156  0.08296  1.0000
  C   C34       1.0  0.21844  0.47309  0.41704  1.0000
  C   C35       1.0  0.47309  0.21844  0.91704  1.0000
  C   C36       1.0  0.78156  0.52691  0.58296  1.0000
  C   C37       1.0  0.63938  0.71576  0.05618  1.0000
  C   C38       1.0  0.28423  0.36062  0.44382  1.0000
  C   C39       1.0  0.36062  0.28424  0.94382  1.0000
  C   C40       1.0  0.71576  0.63938  0.55618  1.0000
  C   C41       1.0  0.64251  0.67557  0.97579  1.0000
  C   C42       1.0  0.32443  0.35750  0.52421  1.0000
  C   C43       1.0  0.35749  0.32443  0.02421  1.0000
  C   C44       1.0  0.67557  0.64250  0.47579  1.0000
  C   C45       1.0  0.76026  0.61158  0.94614  1.0000
  C   C46       1.0  0.38842  0.23974  0.55386  1.0000
  C   C47       1.0  0.23974  0.38842  0.05386  1.0000
  C   C48       1.0  0.61158  0.76026  0.44615  1.0000
  C   C49       1.0  0.76034  0.57854  0.86781  1.0000
  C   C50       1.0  0.42145  0.23967  0.63219  1.0000
  C   C51       1.0  0.23967  0.42145  0.13219  1.0000
  C   C52       1.0  0.57855  0.76033  0.36781  1.0000
  C   C53       1.0  0.64127  0.60917  0.81990  1.0000
  C   C54       1.0  0.39083  0.35874  0.68010  1.0000
  C   C55       1.0  0.35874  0.39083  0.18010  1.0000
  C   C56       1.0  0.60917  0.64126  0.31990  1.0000
  C   C57       1.0  0.52657  0.70183  0.92257  1.0000
  C   C58       1.0  0.29817  0.47343  0.57743  1.0000
  C   C59       1.0  0.47343  0.29817  0.07743  1.0000
  C   C60       1.0  0.70183  0.52657  0.42257  1.0000
  C   C61       1.0  0.40404  0.76593  0.95142  1.0000
  C   C62       1.0  0.23407  0.59596  0.54858  1.0000
  C   C63       1.0  0.59596  0.23407  0.04858  1.0000
  C   C64       1.0  0.76593  0.40404  0.45142  1.0000
  N   N1        1.0  0.29037  0.78651  0.90103  1.0000
  N   N2        1.0  0.21349  0.70964  0.59897  1.0000
  N   N3        1.0  0.70963  0.21349  0.09897  1.0000
  N   N4        1.0  0.78651  0.29037  0.40103  1.0000
  N   N5        1.0  0.52772  0.66852  0.84553  1.0000
  N   N6        1.0  0.33148  0.47229  0.65447  1.0000
  N   N7        1.0  0.47228  0.33148  0.15447  1.0000
  N   N8        1.0  0.66852  0.52772  0.34553  1.0000
  O   O1        1.0  0.20333  0.45204  0.81696  1.0000
  O   O2        1.0  0.54796  0.79667  0.68304  1.0000
  O   O3        1.0  0.79667  0.54796  0.18304  1.0000
  O   O4        1.0  0.45204  0.20333  0.31696  1.0000
  O   O5        1.0  0.01150  0.49786  0.74188  1.0000
  O   O6        1.0  0.50214  0.98850  0.75811  1.0000
  O   O7        1.0  0.98850  0.50214  0.25811  1.0000
  O   O8        1.0  0.49786  0.01150  0.24188  1.0000
  O   O9        1.0  0.12940  0.87060  0.75000  1.0000
  O   O10       1.0  0.87060  0.12940  0.25000  1.0000
