data_image0
_chemical_formula_structural       Sm2H38C64N8O10
_chemical_formula_sum              "Sm2 H38 C64 N8 O10"
_cell_length_a       8.72125
_cell_length_b       8.72125
_cell_length_c       17.3175
_cell_angle_alpha    92.2652
_cell_angle_beta     92.2651
_cell_angle_gamma    105.947

_space_group_name_H-M_alt    "P 1"
_space_group_IT_number       1

loop_
  _space_group_symop_operation_xyz
  'x, y, z'

loop_
  _atom_site_type_symbol
  _atom_site_label
  _atom_site_symmetry_multiplicity
  _atom_site_fract_x
  _atom_site_fract_y
  _atom_site_fract_z
  _atom_site_occupancy
  Sm  Sm1       1.0  0.70790  0.29210  0.75000  1.0000
  Sm  Sm2       1.0  0.29210  0.70790  0.25000  1.0000
  H   H1        1.0  0.24417  0.75583  0.75000  1.0000
  H   H2        1.0  0.75583  0.24417  0.25000  1.0000
  H   H3        1.0  0.17469  0.22465  0.78444  1.0000
  H   H4        1.0  0.77535  0.82531  0.71556  1.0000
  H   H5        1.0  0.82531  0.77535  0.21556  1.0000
  H   H6        1.0  0.22465  0.17469  0.28444  1.0000
  H   H7        1.0  0.35868  0.41701  0.74436  1.0000
  H   H8        1.0  0.58299  0.64132  0.75564  1.0000
  H   H9        1.0  0.64132  0.58299  0.25564  1.0000
  H   H10       1.0  0.41700  0.35868  0.24436  1.0000
  H   H11       1.0  0.14517  0.47128  0.65975  1.0000
  H   H12       1.0  0.52871  0.85483  0.84025  1.0000
  H   H13       1.0  0.85483  0.52872  0.34025  1.0000
  H   H14       1.0  0.47129  0.14517  0.15975  1.0000
  H   H15       1.0  0.14530  0.41345  0.51503  1.0000
  H   H16       1.0  0.58654  0.85471  0.98496  1.0000
  H   H17       1.0  0.85471  0.58654  0.48496  1.0000
  H   H18       1.0  0.41346  0.14530  0.01504  1.0000
  H   H19       1.0  0.26860  0.31086  0.40521  1.0000
  H   H20       1.0  0.68913  0.73141  0.09479  1.0000
  H   H21       1.0  0.73140  0.68913  0.59479  1.0000
  H   H22       1.0  0.31086  0.26860  0.90521  1.0000
  H   H23       1.0  0.47300  0.18254  0.35749  1.0000
  H   H24       1.0  0.81746  0.52701  0.14251  1.0000
  H   H25       1.0  0.52701  0.81746  0.64251  1.0000
  H   H26       1.0  0.18254  0.47299  0.85749  1.0000
  H   H27       1.0  0.71855  0.10294  0.38168  1.0000
  H   H28       1.0  0.89706  0.28146  0.11832  1.0000
  H   H29       1.0  0.28146  0.89706  0.61832  1.0000
  H   H30       1.0  0.10294  0.71854  0.88168  1.0000
  H   H31       1.0  0.93576  0.07820  0.47602  1.0000
  H   H32       1.0  0.92180  0.06425  0.02399  1.0000
  H   H33       1.0  0.06425  0.92180  0.52398  1.0000
  H   H34       1.0  0.07820  0.93575  0.97601  1.0000
  H   H35       1.0  0.91702  0.14731  0.61701  1.0000
  H   H36       1.0  0.85269  0.08298  0.88300  1.0000
  H   H37       1.0  0.08298  0.85269  0.38300  1.0000
  H   H38       1.0  0.14731  0.91702  0.11700  1.0000
  C   C1        1.0  0.22805  0.99890  0.76609  1.0000
  C   C2        1.0  0.00110  0.77195  0.73391  1.0000
  C   C3        1.0  0.77195  0.00110  0.23391  1.0000
  C   C4        1.0  0.99890  0.22805  0.26609  1.0000
  C   C5        1.0  0.16592  0.83408  0.75000  1.0000
  C   C6        1.0  0.83408  0.16593  0.25000  1.0000
  C   C7        1.0  0.12647  0.09795  0.76937  1.0000
  C   C8        1.0  0.90205  0.87353  0.73063  1.0000
  C   C9        1.0  0.87353  0.90205  0.23063  1.0000
  C   C10       1.0  0.09795  0.12647  0.26937  1.0000
  C   C11       1.0  0.96113  0.03887  0.75000  1.0000
  C   C12       1.0  0.03887  0.96113  0.25000  1.0000
  C   C13       1.0  0.40381  0.07600  0.77475  1.0000
  C   C14       1.0  0.92400  0.59619  0.72525  1.0000
  C   C15       1.0  0.59619  0.92401  0.22525  1.0000
  C   C16       1.0  0.07599  0.40381  0.27475  1.0000
  C   C17       1.0  0.35639  0.39388  0.68197  1.0000
  C   C18       1.0  0.60612  0.64360  0.81803  1.0000
  C   C19       1.0  0.64361  0.60612  0.31803  1.0000
  C   C20       1.0  0.39388  0.35640  0.18197  1.0000
  C   C21       1.0  0.23616  0.42498  0.63366  1.0000
  C   C22       1.0  0.57501  0.76384  0.86633  1.0000
  C   C23       1.0  0.76385  0.57502  0.36634  1.0000
  C   C24       1.0  0.42499  0.23616  0.13366  1.0000
  C   C25       1.0  0.23586  0.39145  0.55509  1.0000
  C   C26       1.0  0.60854  0.76415  0.94491  1.0000
  C   C27       1.0  0.76415  0.60854  0.44491  1.0000
  C   C28       1.0  0.39145  0.23585  0.05509  1.0000
  C   C29       1.0  0.35453  0.32638  0.52565  1.0000
  C   C30       1.0  0.67361  0.64547  0.97435  1.0000
  C   C31       1.0  0.64546  0.67361  0.47435  1.0000
  C   C32       1.0  0.32638  0.35453  0.02565  1.0000
  C   C33       1.0  0.35755  0.28542  0.44505  1.0000
  C   C34       1.0  0.71458  0.64246  0.05495  1.0000
  C   C35       1.0  0.64245  0.71457  0.55495  1.0000
  C   C36       1.0  0.28542  0.35754  0.94505  1.0000
  C   C37       1.0  0.47156  0.21943  0.41837  1.0000
  C   C38       1.0  0.78058  0.52845  0.08163  1.0000
  C   C39       1.0  0.52845  0.78057  0.58163  1.0000
  C   C40       1.0  0.21942  0.47155  0.91837  1.0000
  C   C41       1.0  0.59400  0.19541  0.47001  1.0000
  C   C42       1.0  0.80459  0.40601  0.03000  1.0000
  C   C43       1.0  0.40600  0.80459  0.53000  1.0000
  C   C44       1.0  0.19540  0.59399  0.97000  1.0000
  C   C45       1.0  0.71796  0.13519  0.44313  1.0000
  C   C46       1.0  0.86482  0.28206  0.05688  1.0000
  C   C47       1.0  0.28206  0.86481  0.55688  1.0000
  C   C48       1.0  0.13518  0.71795  0.94312  1.0000
  C   C49       1.0  0.83645  0.12058  0.49520  1.0000
  C   C50       1.0  0.87942  0.16356  0.00480  1.0000
  C   C51       1.0  0.16356  0.87942  0.50480  1.0000
  C   C52       1.0  0.12058  0.83644  0.99520  1.0000
  C   C53       1.0  0.82768  0.16104  0.57404  1.0000
  C   C54       1.0  0.83896  0.17232  0.92597  1.0000
  C   C55       1.0  0.17232  0.83896  0.42597  1.0000
  C   C56       1.0  0.16104  0.82768  0.07403  1.0000
  C   C57       1.0  0.59606  0.23602  0.55056  1.0000
  C   C58       1.0  0.76397  0.40394  0.94945  1.0000
  C   C59       1.0  0.40394  0.76397  0.44944  1.0000
  C   C60       1.0  0.23603  0.59607  0.05055  1.0000
  C   C61       1.0  0.47195  0.30018  0.57923  1.0000
  C   C62       1.0  0.69981  0.52806  0.92076  1.0000
  C   C63       1.0  0.52805  0.69981  0.42077  1.0000
  C   C64       1.0  0.30019  0.47194  0.07923  1.0000
  N   N1        1.0  0.47116  0.33390  0.65652  1.0000
  N   N2        1.0  0.66609  0.52884  0.84348  1.0000
  N   N3        1.0  0.52884  0.66609  0.34348  1.0000
  N   N4        1.0  0.33390  0.47116  0.15652  1.0000
  N   N5        1.0  0.71139  0.21638  0.60143  1.0000
  N   N6        1.0  0.78361  0.28861  0.89858  1.0000
  N   N7        1.0  0.28861  0.78361  0.39857  1.0000
  N   N8        1.0  0.21639  0.71140  0.10142  1.0000
  O   O1        1.0  0.45519  0.20751  0.81560  1.0000
  O   O2        1.0  0.79249  0.54481  0.68440  1.0000
  O   O3        1.0  0.54481  0.79249  0.18440  1.0000
  O   O4        1.0  0.20751  0.45520  0.31560  1.0000
  O   O5        1.0  0.49934  0.01657  0.73750  1.0000
  O   O6        1.0  0.98343  0.50066  0.76250  1.0000
  O   O7        1.0  0.50066  0.98343  0.26250  1.0000
  O   O8        1.0  0.01657  0.49933  0.23750  1.0000
  O   O9        1.0  0.86694  0.13306  0.75000  1.0000
  O   O10       1.0  0.13306  0.86694  0.25000  1.0000
