data_image0
_chemical_formula_structural       CaH32C38O8
_chemical_formula_sum              "Ca1 H32 C38 O8"
_cell_length_a       5.21237
_cell_length_b       10.6311
_cell_length_c       15.0687
_cell_angle_alpha    83.2304
_cell_angle_beta     83.7094
_cell_angle_gamma    81.3651

_space_group_name_H-M_alt    "P 1"
_space_group_IT_number       1

loop_
  _space_group_symop_operation_xyz
  'x, y, z'

loop_
  _atom_site_type_symbol
  _atom_site_label
  _atom_site_symmetry_multiplicity
  _atom_site_fract_x
  _atom_site_fract_y
  _atom_site_fract_z
  _atom_site_occupancy
  Ca  Ca1       1.0  0.99999  0.00000  1.00000  1.0000
  H   H1        1.0  0.96611  0.73578  0.47871  1.0000
  H   H2        1.0  0.03386  0.26422  0.52128  1.0000
  H   H3        1.0  0.54658  0.25408  0.59355  1.0000
  H   H4        1.0  0.45343  0.74594  0.40645  1.0000
  H   H5        1.0  0.70500  0.14175  0.73683  1.0000
  H   H6        1.0  0.29499  0.85828  0.26317  1.0000
  H   H7        1.0  0.02053  0.31838  0.88455  1.0000
  H   H8        1.0  0.97946  0.68163  0.11544  1.0000
  H   H9        1.0  0.87122  0.43773  0.74363  1.0000
  H   H10       1.0  0.12876  0.56227  0.25636  1.0000
  H   H11       1.0  0.53971  0.51074  0.64733  1.0000
  H   H12       1.0  0.46025  0.48927  0.35267  1.0000
  H   H13       1.0  0.66490  0.62221  0.76883  1.0000
  H   H14       1.0  0.33506  0.37778  0.23117  1.0000
  H   H15       1.0  0.97758  0.89805  0.74753  1.0000
  H   H16       1.0  0.02238  0.10195  0.25246  1.0000
  H   H17       1.0  0.84804  0.78674  0.62646  1.0000
  H   H18       1.0  0.15195  0.21326  0.37353  1.0000
  H   H19       1.0  0.62729  0.81907  0.93619  1.0000
  H   H20       1.0  0.37267  0.18094  0.06379  1.0000
  H   H21       1.0  0.41360  0.87138  0.54285  1.0000
  H   H22       1.0  0.58636  0.12863  0.45714  1.0000
  H   H23       1.0  0.20703  0.00004  0.49101  1.0000
  H   H24       1.0  0.79294  0.99996  0.50898  1.0000
  H   H25       1.0  0.33970  0.01745  0.59171  1.0000
  H   H26       1.0  0.66026  0.98255  0.40827  1.0000
  H   H27       1.0  0.77642  0.53637  0.97068  1.0000
  H   H28       1.0  0.22378  0.46362  0.02939  1.0000
  H   H29       1.0  0.69986  0.37763  0.99139  1.0000
  H   H30       1.0  0.30032  0.62234  0.00868  1.0000
  H   H31       1.0  0.66894  0.47481  0.08058  1.0000
  H   H32       1.0  0.33128  0.52516  0.91950  1.0000
  C   C1        1.0  0.97703  0.63184  0.48919  1.0000
  C   C2        1.0  0.02295  0.36815  0.51080  1.0000
  C   C3        1.0  0.08837  0.56585  0.56500  1.0000
  C   C4        1.0  0.91161  0.43414  0.43499  1.0000
  C   C5        1.0  0.10894  0.43048  0.57622  1.0000
  C   C6        1.0  0.89103  0.56952  0.42377  1.0000
  C   C7        1.0  0.19920  0.35449  0.65906  1.0000
  C   C8        1.0  0.80078  0.64552  0.34093  1.0000
  C   C9        1.0  0.43046  0.26746  0.65738  1.0000
  C   C10       1.0  0.56952  0.73255  0.34261  1.0000
  C   C11       1.0  0.51914  0.20448  0.73710  1.0000
  C   C12       1.0  0.48084  0.79554  0.26290  1.0000
  C   C13       1.0  0.37223  0.22339  0.81935  1.0000
  C   C14       1.0  0.62776  0.77661  0.18064  1.0000
  C   C15       1.0  0.13570  0.30563  0.82073  1.0000
  C   C16       1.0  0.86429  0.69438  0.17926  1.0000
  C   C17       1.0  0.05239  0.37168  0.74160  1.0000
  C   C18       1.0  0.94760  0.62832  0.25839  1.0000
  C   C19       1.0  0.46934  0.16114  0.90589  1.0000
  C   C20       1.0  0.53065  0.83887  0.09410  1.0000
  C   C21       1.0  0.17984  0.63817  0.63055  1.0000
  C   C22       1.0  0.82014  0.36182  0.36944  1.0000
  C   C23       1.0  0.41472  0.59487  0.66963  1.0000
  C   C24       1.0  0.58528  0.40514  0.33036  1.0000
  C   C25       1.0  0.48654  0.65727  0.73702  1.0000
  C   C26       1.0  0.51343  0.34273  0.26297  1.0000
  C   C27       1.0  0.32652  0.76563  0.76623  1.0000
  C   C28       1.0  0.67344  0.23436  0.23376  1.0000
  C   C29       1.0  0.09978  0.81369  0.72429  1.0000
  C   C30       1.0  0.90018  0.18631  0.27570  1.0000
  C   C31       1.0  0.02881  0.75116  0.65677  1.0000
  C   C32       1.0  0.97116  0.24882  0.34322  1.0000
  C   C33       1.0  0.38299  0.82634  0.84410  1.0000
  C   C34       1.0  0.61694  0.17367  0.15590  1.0000
  C   C35       1.0  0.38239  0.97580  0.52744  1.0000
  C   C36       1.0  0.61759  0.02420  0.47255  1.0000
  C   C37       1.0  0.64113  0.47585  0.00923  1.0000
  C   C38       1.0  0.35912  0.52412  0.99086  1.0000
  O   O1        1.0  0.29848  0.15342  0.97505  1.0000
  O   O2        1.0  0.70152  0.84658  0.02494  1.0000
  O   O3        1.0  0.70894  0.12208  0.90784  1.0000
  O   O4        1.0  0.29107  0.87793  0.09215  1.0000
  O   O5        1.0  0.22290  0.91207  0.87655  1.0000
  O   O6        1.0  0.77705  0.08793  0.12343  1.0000
  O   O7        1.0  0.60754  0.78165  0.87634  1.0000
  O   O8        1.0  0.39242  0.21835  0.12365  1.0000
