data_image0
_chemical_formula_structural       Na2Co2H36C48N10O8
_chemical_formula_sum              "Na2 Co2 H36 C48 N10 O8"
_cell_length_a       8.49776
_cell_length_b       11.6081
_cell_length_c       11.7881
_cell_angle_alpha    72.5721
_cell_angle_beta     77.8318
_cell_angle_gamma    90.6065

_space_group_name_H-M_alt    "P 1"
_space_group_IT_number       1

loop_
  _space_group_symop_operation_xyz
  'x, y, z'

loop_
  _atom_site_type_symbol
  _atom_site_label
  _atom_site_symmetry_multiplicity
  _atom_site_fract_x
  _atom_site_fract_y
  _atom_site_fract_z
  _atom_site_occupancy
  Na  Na1       1.0  0.58756  0.11788  0.07252  1.0000
  Na  Na2       1.0  0.41244  0.88211  0.92748  1.0000
  Co  Co1       1.0  0.28281  0.28023  0.16750  1.0000
  Co  Co2       1.0  0.71720  0.71977  0.83250  1.0000
  H   H1        1.0  0.88246  0.30339  0.72336  1.0000
  H   H2        1.0  0.11754  0.69661  0.27664  1.0000
  H   H3        1.0  0.72654  0.23480  0.67611  1.0000
  H   H4        1.0  0.27346  0.76518  0.32390  1.0000
  H   H5        1.0  0.81687  0.14520  0.79412  1.0000
  H   H6        1.0  0.18314  0.85480  0.20588  1.0000
  H   H7        1.0  0.21546  0.59682  0.97086  1.0000
  H   H8        1.0  0.78454  0.40318  0.02914  1.0000
  H   H9        1.0  0.03349  0.18901  0.49678  1.0000
  H   H10       1.0  0.96649  0.81099  0.50322  1.0000
  H   H11       1.0  0.08913  0.00854  0.62748  1.0000
  H   H12       1.0  0.91086  0.99145  0.37252  1.0000
  H   H13       1.0  0.58851  0.63760  0.60898  1.0000
  H   H14       1.0  0.41150  0.36240  0.39102  1.0000
  H   H15       1.0  0.24487  0.82802  0.67164  1.0000
  H   H16       1.0  0.75513  0.17198  0.32837  1.0000
  H   H17       1.0  0.88560  0.32032  0.48474  1.0000
  H   H18       1.0  0.11442  0.67970  0.51527  1.0000
  H   H19       1.0  0.72403  0.44565  0.63820  1.0000
  H   H20       1.0  0.27599  0.55434  0.36180  1.0000
  H   H21       1.0  0.79512  0.65372  0.23334  1.0000
  H   H22       1.0  0.20490  0.34630  0.76666  1.0000
  H   H23       1.0  0.71203  0.85082  0.20673  1.0000
  H   H24       1.0  0.28795  0.14916  0.79327  1.0000
  H   H25       1.0  0.55200  0.75613  0.32315  1.0000
  H   H26       1.0  0.44798  0.24386  0.67686  1.0000
  H   H27       1.0  0.69872  0.83971  0.36443  1.0000
  H   H28       1.0  0.30128  0.16029  0.63557  1.0000
  H   H29       1.0  0.45523  0.79142  0.50733  1.0000
  H   H30       1.0  0.54477  0.20859  0.49267  1.0000
  H   H31       1.0  0.73241  0.50225  0.44035  1.0000
  H   H32       1.0  0.26762  0.49777  0.55965  1.0000
  H   H33       1.0  0.37527  0.66526  0.77801  1.0000
  H   H34       1.0  0.62472  0.33473  0.22199  1.0000
  H   H35       1.0  0.01404  0.62618  0.07153  1.0000
  H   H36       1.0  0.98596  0.37382  0.92847  1.0000
  C   C1        1.0  0.77892  0.23523  0.75382  1.0000
  C   C2        1.0  0.22108  0.76476  0.24618  1.0000
  C   C3        1.0  0.26329  0.50759  0.99419  1.0000
  C   C4        1.0  0.73671  0.49241  0.00581  1.0000
  C   C5        1.0  0.34004  0.06305  0.34316  1.0000
  C   C6        1.0  0.65995  0.93694  0.65684  1.0000
  C   C7        1.0  0.46810  0.37812  0.92177  1.0000
  C   C8        1.0  0.53190  0.62188  0.07824  1.0000
  C   C9        1.0  0.12350  0.18366  0.41751  1.0000
  C   C10       1.0  0.87650  0.81634  0.58249  1.0000
  C   C11       1.0  0.07546  0.45656  0.18574  1.0000
  C   C12       1.0  0.92454  0.54343  0.81425  1.0000
  C   C13       1.0  0.03912  0.36942  0.30266  1.0000
  C   C14       1.0  0.96089  0.63058  0.69734  1.0000
  C   C15       1.0  0.18399  0.99393  0.55602  1.0000
  C   C16       1.0  0.81600  0.00607  0.44398  1.0000
  C   C17       1.0  0.55310  0.56569  0.69574  1.0000
  C   C18       1.0  0.44691  0.43431  0.30426  1.0000
  C   C19       1.0  0.26899  0.89245  0.58026  1.0000
  C   C20       1.0  0.73101  0.10755  0.41974  1.0000
  C   C21       1.0  0.91650  0.38709  0.39462  1.0000
  C   C22       1.0  0.08351  0.61292  0.60538  1.0000
  C   C23       1.0  0.62929  0.45614  0.71167  1.0000
  C   C24       1.0  0.37072  0.54385  0.28833  1.0000
  C   C25       1.0  0.21618  0.08097  0.43772  1.0000
  C   C26       1.0  0.78381  0.91903  0.56227  1.0000
  C   C27       1.0  0.38887  0.48784  0.90267  1.0000
  C   C28       1.0  0.61113  0.51215  0.09732  1.0000
  C   C29       1.0  0.96681  0.17919  0.10515  1.0000
  C   C30       1.0  0.03320  0.82081  0.89486  1.0000
  C   C31       1.0  0.86576  0.57538  0.25357  1.0000
  C   C32       1.0  0.13425  0.42463  0.74643  1.0000
  C   C33       1.0  0.62998  0.84094  0.29475  1.0000
  C   C34       1.0  0.37000  0.15906  0.70525  1.0000
  C   C35       1.0  0.42429  0.95510  0.37100  1.0000
  C   C36       1.0  0.57571  0.04490  0.62900  1.0000
  C   C37       1.0  0.38924  0.87224  0.48683  1.0000
  C   C38       1.0  0.61075  0.12776  0.51317  1.0000
  C   C39       1.0  0.58920  0.36462  0.82224  1.0000
  C   C40       1.0  0.41081  0.63537  0.17776  1.0000
  C   C41       1.0  0.83045  0.48990  0.36978  1.0000
  C   C42       1.0  0.16957  0.51011  0.63022  1.0000
  C   C43       1.0  0.43633  0.58180  0.78946  1.0000
  C   C44       1.0  0.56367  0.41820  0.21054  1.0000
  C   C45       1.0  0.98754  0.55900  0.16145  1.0000
  C   C46       1.0  0.01246  0.44100  0.83854  1.0000
  C   C47       1.0  0.19949  0.08985  0.05499  1.0000
  C   C48       1.0  0.80050  0.91015  0.94501  1.0000
  N   N1        1.0  0.20280  0.42862  0.10222  1.0000
  N   N2        1.0  0.79720  0.57138  0.89778  1.0000
  N   N3        1.0  0.13655  0.27055  0.31329  1.0000
  N   N4        1.0  0.86345  0.72945  0.68671  1.0000
  N   N5        1.0  0.11833  0.16316  0.10608  1.0000
  N   N6        1.0  0.88166  0.83685  0.89392  1.0000
  N   N7        1.0  0.28488  0.02687  0.01259  1.0000
  N   N8        1.0  0.71511  0.97313  0.98741  1.0000
  N   N9        1.0  0.83101  0.20157  0.10868  1.0000
  N   N10       1.0  0.16898  0.79843  0.89132  1.0000
  O   O1        1.0  0.44047  0.29010  0.02463  1.0000
  O   O2        1.0  0.55954  0.70989  0.97537  1.0000
  O   O3        1.0  0.38282  0.13878  0.23295  1.0000
  O   O4        1.0  0.61717  0.86121  0.76705  1.0000
  O   O5        1.0  0.53762  0.94434  0.27388  1.0000
  O   O6        1.0  0.46236  0.05565  0.72612  1.0000
  O   O7        1.0  0.65962  0.25709  0.84903  1.0000
  O   O8        1.0  0.34039  0.74291  0.15098  1.0000
