data_image0
_chemical_formula_structural       Cd2H30C50N4O14
_chemical_formula_sum              "Cd2 H30 C50 N4 O14"
_cell_length_a       9.0834
_cell_length_b       11.4451
_cell_length_c       11.6358
_cell_angle_alpha    93.6045
_cell_angle_beta     102.037
_cell_angle_gamma    103.871

_space_group_name_H-M_alt    "P 1"
_space_group_IT_number       1

loop_
  _space_group_symop_operation_xyz
  'x, y, z'

loop_
  _atom_site_type_symbol
  _atom_site_label
  _atom_site_symmetry_multiplicity
  _atom_site_fract_x
  _atom_site_fract_y
  _atom_site_fract_z
  _atom_site_occupancy
  Cd  Cd1       1.0  0.03009  0.09490  0.29400  1.0000
  Cd  Cd2       1.0  0.96988  0.90516  0.70604  1.0000
  H   H1        1.0  0.15266  0.70019  0.15711  1.0000
  H   H2        1.0  0.84731  0.29985  0.84291  1.0000
  H   H3        1.0  0.24051  0.51366  0.21000  1.0000
  H   H4        1.0  0.75948  0.48639  0.79002  1.0000
  H   H5        1.0  0.24351  0.45054  0.41175  1.0000
  H   H6        1.0  0.75649  0.54950  0.58827  1.0000
  H   H7        1.0  0.43771  0.70241  0.58594  1.0000
  H   H8        1.0  0.56228  0.29765  0.41410  1.0000
  H   H9        1.0  0.63896  0.60285  0.92061  1.0000
  H   H10       1.0  0.36102  0.39710  0.07939  1.0000
  H   H11       1.0  0.37564  0.47060  0.92869  1.0000
  H   H12       1.0  0.62433  0.52932  0.07127  1.0000
  H   H13       1.0  0.14653  0.45330  0.76161  1.0000
  H   H14       1.0  0.85345  0.54665  0.23835  1.0000
  H   H15       1.0  0.84340  0.92129  0.04910  1.0000
  H   H16       1.0  0.15662  0.07875  0.95095  1.0000
  H   H17       1.0  0.64746  0.92641  0.86455  1.0000
  H   H18       1.0  0.35259  0.07359  0.13547  1.0000
  H   H19       1.0  0.64705  0.28413  0.00833  1.0000
  H   H20       1.0  0.35287  0.71586  0.99164  1.0000
  H   H21       1.0  0.83736  0.26241  0.18572  1.0000
  H   H22       1.0  0.16254  0.73760  0.81429  1.0000
  H   H23       1.0  0.56872  0.97859  0.69706  1.0000
  H   H24       1.0  0.43141  0.02139  0.30294  1.0000
  H   H25       1.0  0.38143  0.00693  0.51748  1.0000
  H   H26       1.0  0.61872  0.99299  0.48249  1.0000
  H   H27       1.0  0.25824  0.27664  0.69824  1.0000
  H   H28       1.0  0.74175  0.72325  0.30162  1.0000
  H   H29       1.0  0.42933  0.25561  0.88929  1.0000
  H   H30       1.0  0.57063  0.74434  0.11061  1.0000
  C   C1        1.0  0.06468  0.85454  0.29383  1.0000
  C   C2        1.0  0.93528  0.14549  0.70616  1.0000
  C   C3        1.0  0.06930  0.77309  0.53810  1.0000
  C   C4        1.0  0.93075  0.22697  0.46194  1.0000
  C   C5        1.0  0.11058  0.70511  0.44053  1.0000
  C   C6        1.0  0.88940  0.29494  0.55949  1.0000
  C   C7        1.0  0.11000  0.74099  0.32704  1.0000
  C   C8        1.0  0.88999  0.25905  0.67299  1.0000
  C   C9        1.0  0.15677  0.67151  0.24503  1.0000
  C   C10       1.0  0.84322  0.32852  0.75499  1.0000
  C   C11       1.0  0.20725  0.56862  0.27496  1.0000
  C   C12       1.0  0.79274  0.43142  0.72505  1.0000
  C   C13       1.0  0.21054  0.53270  0.38744  1.0000
  C   C14       1.0  0.78947  0.46734  0.61257  1.0000
  C   C15       1.0  0.16025  0.60067  0.46780  1.0000
  C   C16       1.0  0.83973  0.39938  0.53223  1.0000
  C   C17       1.0  0.28071  0.57273  0.66289  1.0000
  C   C18       1.0  0.71929  0.42729  0.33712  1.0000
  C   C19       1.0  0.42476  0.64855  0.65884  1.0000
  C   C20       1.0  0.57524  0.35148  0.34119  1.0000
  C   C21       1.0  0.55208  0.65842  0.75300  1.0000
  C   C22       1.0  0.44791  0.34158  0.24701  1.0000
  C   C23       1.0  0.53591  0.59309  0.84955  1.0000
  C   C24       1.0  0.46406  0.40688  0.15044  1.0000
  C   C25       1.0  0.39017  0.52001  0.85320  1.0000
  C   C26       1.0  0.60980  0.47994  0.14678  1.0000
  C   C27       1.0  0.26147  0.50923  0.76033  1.0000
  C   C28       1.0  0.73851  0.49075  0.23966  1.0000
  C   C29       1.0  0.70733  0.74048  0.75138  1.0000
  C   C30       1.0  0.29266  0.25952  0.24866  1.0000
  C   C31       1.0  0.79399  0.99882  0.03606  1.0000
  C   C32       1.0  0.20602  0.00120  0.96397  1.0000
  C   C33       1.0  0.68513  0.00283  0.93370  1.0000
  C   C34       1.0  0.31489  0.99718  0.06631  1.0000
  C   C35       1.0  0.62798  0.10579  0.91944  1.0000
  C   C36       1.0  0.37202  0.89421  0.08055  1.0000
  C   C37       1.0  0.68418  0.20053  0.01286  1.0000
  C   C38       1.0  0.31577  0.79947  0.98712  1.0000
  C   C39       1.0  0.79192  0.18970  0.11266  1.0000
  C   C40       1.0  0.20802  0.81031  0.88734  1.0000
  C   C41       1.0  0.51781  0.11671  0.80994  1.0000
  C   C42       1.0  0.48223  0.88326  0.19003  1.0000
  C   C43       1.0  0.50261  0.04598  0.70307  1.0000
  C   C44       1.0  0.49749  0.95399  0.29691  1.0000
  C   C45       1.0  0.39983  0.06237  0.60156  1.0000
  C   C46       1.0  0.60027  0.93756  0.39840  1.0000
  C   C47       1.0  0.32948  0.21181  0.70267  1.0000
  C   C48       1.0  0.67054  0.78810  0.29721  1.0000
  C   C49       1.0  0.42685  0.20046  0.80874  1.0000
  C   C50       1.0  0.57315  0.79949  0.19118  1.0000
  N   N1        1.0  0.84666  0.09068  0.12450  1.0000
  N   N2        1.0  0.15331  0.90935  0.87552  1.0000
  N   N3        1.0  0.31802  0.14446  0.60201  1.0000
  N   N4        1.0  0.68204  0.85543  0.39789  1.0000
  O   O1        1.0  0.03206  0.87094  0.18632  1.0000
  O   O2        1.0  0.96791  0.12908  0.81369  1.0000
  O   O3        1.0  0.06566  0.93085  0.37993  1.0000
  O   O4        1.0  0.93426  0.06919  0.62008  1.0000
  O   O5        1.0  0.92727  0.75759  0.54209  1.0000
  O   O6        1.0  0.07280  0.24248  0.45801  1.0000
  O   O7        1.0  0.18013  0.83753  0.61886  1.0000
  O   O8        1.0  0.81992  0.16253  0.38116  1.0000
  O   O9        1.0  0.70717  0.83389  0.69601  1.0000
  O   O10       1.0  0.29284  0.16611  0.30402  1.0000
  O   O11       1.0  0.82948  0.71431  0.80387  1.0000
  O   O12       1.0  0.17051  0.28569  0.19619  1.0000
  O   O13       1.0  0.14835  0.56357  0.57734  1.0000
  O   O14       1.0  0.85164  0.43648  0.42268  1.0000
