data_image0
_chemical_formula_structural       MnH12C22O8
_chemical_formula_sum              "Mn1 H12 C22 O8"
_cell_length_a       4.68464
_cell_length_b       9.72428
_cell_length_c       9.87455
_cell_angle_alpha    75.3353
_cell_angle_beta     80.7896
_cell_angle_gamma    79.962

_space_group_name_H-M_alt    "P 1"
_space_group_IT_number       1

loop_
  _space_group_symop_operation_xyz
  'x, y, z'

loop_
  _atom_site_type_symbol
  _atom_site_label
  _atom_site_symmetry_multiplicity
  _atom_site_fract_x
  _atom_site_fract_y
  _atom_site_fract_z
  _atom_site_occupancy
  Mn  Mn1       1.0  0.00000  0.00000  0.50000  1.0000
  H   H1        1.0  0.52054  0.76642  0.49185  1.0000
  H   H2        1.0  0.47946  0.23358  0.50815  1.0000
  H   H3        1.0  0.68083  0.80507  0.87520  1.0000
  H   H4        1.0  0.31917  0.19492  0.12481  1.0000
  H   H5        1.0  0.92700  0.17788  0.75355  1.0000
  H   H6        1.0  0.07299  0.82212  0.24645  1.0000
  H   H7        1.0  0.70293  0.40984  0.61963  1.0000
  H   H8        1.0  0.29706  0.59016  0.38037  1.0000
  H   H9        1.0  0.18155  0.63298  0.81213  1.0000
  H   H10       1.0  0.81845  0.36702  0.18786  1.0000
  H   H11       1.0  0.41488  0.39895  0.94607  1.0000
  H   H12       1.0  0.58513  0.60105  0.05393  1.0000
  C   C1        1.0  0.42346  0.03280  0.70702  1.0000
  C   C2        1.0  0.57655  0.96720  0.29298  1.0000
  C   C3        1.0  0.59605  0.88925  0.93186  1.0000
  C   C4        1.0  0.40394  0.11075  0.06814  1.0000
  C   C5        1.0  0.45067  0.01803  0.86001  1.0000
  C   C6        1.0  0.54933  0.98197  0.13999  1.0000
  C   C7        1.0  0.35026  0.13212  0.92811  1.0000
  C   C8        1.0  0.64975  0.86787  0.07188  1.0000
  C   C9        1.0  0.19609  0.27082  0.85633  1.0000
  C   C10       1.0  0.80392  0.72918  0.14367  1.0000
  C   C11       1.0  0.98981  0.27631  0.76546  1.0000
  C   C12       1.0  0.01019  0.72369  0.23454  1.0000
  C   C13       1.0  0.85974  0.40695  0.69088  1.0000
  C   C14       1.0  0.14026  0.59305  0.30913  1.0000
  C   C15       1.0  0.93185  0.53600  0.70564  1.0000
  C   C16       1.0  0.06815  0.46400  0.29436  1.0000
  C   C17       1.0  0.12785  0.53214  0.80067  1.0000
  C   C18       1.0  0.87215  0.46786  0.19933  1.0000
  C   C19       1.0  0.25611  0.40116  0.87575  1.0000
  C   C20       1.0  0.74388  0.59884  0.12424  1.0000
  C   C21       1.0  0.80829  0.67485  0.62019  1.0000
  C   C22       1.0  0.19171  0.32515  0.37981  1.0000
  O   O1        1.0  0.61107  0.10056  0.61552  1.0000
  O   O2        1.0  0.38893  0.89944  0.38448  1.0000
  O   O3        1.0  0.22489  0.97716  0.67781  1.0000
  O   O4        1.0  0.77511  0.02284  0.32219  1.0000
  O   O5        1.0  0.59434  0.66763  0.55113  1.0000
  O   O6        1.0  0.40567  0.33238  0.44886  1.0000
  O   O7        1.0  0.90104  0.78930  0.61489  1.0000
  O   O8        1.0  0.09896  0.21070  0.38511  1.0000
