data_image0
_chemical_formula_structural       NiH8C16N6Cl2O4
_chemical_formula_sum              "Ni1 H8 C16 N6 Cl2 O4"
_cell_length_a       4.54398
_cell_length_b       5.55956
_cell_length_c       17.3791
_cell_angle_alpha    93.0012
_cell_angle_beta     110.923
_cell_angle_gamma    94.9176

_space_group_name_H-M_alt    "P 1"
_space_group_IT_number       1

loop_
  _space_group_symop_operation_xyz
  'x, y, z'

loop_
  _atom_site_type_symbol
  _atom_site_label
  _atom_site_symmetry_multiplicity
  _atom_site_fract_x
  _atom_site_fract_y
  _atom_site_fract_z
  _atom_site_occupancy
  Ni  Ni1       1.0  1.00000  0.00000  0.00000  1.0000
  H   H1        1.0  0.37037  0.52625  0.24560  1.0000
  H   H2        1.0  0.62963  0.47375  0.75440  1.0000
  H   H3        1.0  0.86544  0.15288  0.16033  1.0000
  H   H4        1.0  0.13456  0.84712  0.83967  1.0000
  H   H5        1.0  0.29662  0.59197  0.09737  1.0000
  H   H6        1.0  0.70337  0.40803  0.90263  1.0000
  H   H7        1.0  0.31742  0.64726  0.55134  1.0000
  H   H8        1.0  0.68258  0.35274  0.44866  1.0000
  C   C1        1.0  0.18001  0.79787  0.52940  1.0000
  C   C2        1.0  0.82000  0.20213  0.47061  1.0000
  C   C3        1.0  0.10868  0.86816  0.44945  1.0000
  C   C4        1.0  0.89133  0.13184  0.55055  1.0000
  C   C5        1.0  0.06472  0.93700  0.57911  1.0000
  C   C6        1.0  0.93529  0.06300  0.42089  1.0000
  C   C7        1.0  0.19800  0.76356  0.38168  1.0000
  C   C8        1.0  0.80200  0.23644  0.61832  1.0000
  C   C9        1.0  0.09536  0.91434  0.66656  1.0000
  C   C10       1.0  0.90465  0.08566  0.33344  1.0000
  C   C11       1.0  0.10491  0.85876  0.23746  1.0000
  C   C12       1.0  0.89509  0.14124  0.76254  1.0000
  C   C13       1.0  0.25440  0.67409  0.21383  1.0000
  C   C14       1.0  0.74560  0.32591  0.78617  1.0000
  C   C15       1.0  0.00006  0.99862  0.16920  1.0000
  C   C16       1.0  0.99994  0.00138  0.83080  1.0000
  N   N1        1.0  0.06970  0.90003  0.31374  1.0000
  N   N2        1.0  0.93031  0.09997  0.68626  1.0000
  N   N3        1.0  0.23486  0.70972  0.13607  1.0000
  N   N4        1.0  0.76513  0.29028  0.86393  1.0000
  N   N5        1.0  0.08132  0.90283  0.10827  1.0000
  N   N6        1.0  0.91868  0.09718  0.89173  1.0000
  Cl  Cl1       1.0  0.59668  0.72075  0.95357  1.0000
  Cl  Cl2       1.0  0.40332  0.27925  0.04643  1.0000
  O   O1        1.0  0.35650  0.59540  0.38265  1.0000
  O   O2        1.0  0.64350  0.40460  0.61735  1.0000
  O   O3        1.0  0.23169  0.76965  0.71350  1.0000
  O   O4        1.0  0.76831  0.23035  0.28650  1.0000
