data_image0
_chemical_formula_structural       Ni2H16C24N4O8
_chemical_formula_sum              "Ni2 H16 C24 N4 O8"
_cell_length_a       6.76759
_cell_length_b       8.2946
_cell_length_c       10.1081
_cell_angle_alpha    101.695
_cell_angle_beta     95.0187
_cell_angle_gamma    104.519

_space_group_name_H-M_alt    "P 1"
_space_group_IT_number       1

loop_
  _space_group_symop_operation_xyz
  'x, y, z'

loop_
  _atom_site_type_symbol
  _atom_site_label
  _atom_site_symmetry_multiplicity
  _atom_site_fract_x
  _atom_site_fract_y
  _atom_site_fract_z
  _atom_site_occupancy
  Ni  Ni1       1.0  0.88192  0.82572  0.12198  1.0000
  Ni  Ni2       1.0  0.11771  0.17164  0.87445  1.0000
  H   H1        1.0  0.96425  0.85274  0.58235  1.0000
  H   H2        1.0  0.03675  0.15403  0.41477  1.0000
  H   H3        1.0  0.66638  0.35217  0.32958  1.0000
  H   H4        1.0  0.33521  0.64617  0.68133  1.0000
  H   H5        1.0  0.58282  0.24230  0.53781  1.0000
  H   H6        1.0  0.42196  0.76593  0.47815  1.0000
  H   H7        1.0  0.68652  0.44339  0.76731  1.0000
  H   H8        1.0  0.32299  0.57370  0.24470  1.0000
  H   H9        1.0  0.47800  0.61824  0.95484  1.0000
  H   H10       1.0  0.51918  0.37408  0.04200  1.0000
  H   H11       1.0  0.11154  0.61457  0.95747  1.0000
  H   H12       1.0  0.88889  0.37867  0.03668  1.0000
  H   H13       1.0  0.27994  0.03052  0.29433  1.0000
  H   H14       1.0  0.71826  0.96690  0.69806  1.0000
  H   H15       1.0  0.65510  0.03219  0.29112  1.0000
  H   H16       1.0  0.34123  0.96390  0.70379  1.0000
  C   C1        1.0  0.83574  0.65838  0.68971  1.0000
  C   C2        1.0  0.16936  0.35375  0.31441  1.0000
  C   C3        1.0  0.88061  0.71908  0.57279  1.0000
  C   C4        1.0  0.12195  0.28797  0.42804  1.0000
  C   C5        1.0  0.81534  0.60843  0.44350  1.0000
  C   C6        1.0  0.18539  0.39241  0.55981  1.0000
  C   C7        1.0  0.71236  0.43566  0.43159  1.0000
  C   C8        1.0  0.28933  0.56597  0.57805  1.0000
  C   C9        1.0  0.66701  0.37564  0.54745  1.0000
  C   C10       1.0  0.33714  0.63186  0.46477  1.0000
  C   C11       1.0  0.72529  0.48711  0.67603  1.0000
  C   C12       1.0  0.28141  0.52561  0.33381  1.0000
  C   C13       1.0  0.90709  0.77729  0.82808  1.0000
  C   C14       1.0  0.09555  0.23891  0.17420  1.0000
  C   C15       1.0  0.84460  0.66802  0.31482  1.0000
  C   C16       1.0  0.14922  0.31369  0.67821  1.0000
  C   C17       1.0  0.43577  0.71080  0.03161  1.0000
  C   C18       1.0  0.56348  0.28395  0.96445  1.0000
  C   C19       1.0  0.23006  0.71036  0.03251  1.0000
  C   C20       1.0  0.76831  0.28471  0.96218  1.0000
  C   C21       1.0  0.32526  0.93897  0.21811  1.0000
  C   C22       1.0  0.67165  0.05648  0.77516  1.0000
  C   C23       1.0  0.53119  0.93939  0.21748  1.0000
  C   C24       1.0  0.46660  0.05534  0.77721  1.0000
  N   N1        1.0  0.58763  0.82556  0.12339  1.0000
  N   N2        1.0  0.41320  0.16873  0.87267  1.0000
  N   N3        1.0  0.17311  0.82533  0.12452  1.0000
  N   N4        1.0  0.82210  0.17010  0.86888  1.0000
  O   O1        1.0  0.81213  0.73333  0.92564  1.0000
  O   O2        1.0  0.19178  0.28405  0.07765  1.0000
  O   O3        1.0  0.05652  0.90872  0.84078  1.0000
  O   O4        1.0  0.94330  0.10940  0.16025  1.0000
  O   O5        1.0  0.80120  0.55977  0.20208  1.0000
  O   O6        1.0  0.19034  0.40621  0.80061  1.0000
  O   O7        1.0  0.90685  0.83149  0.32127  1.0000
  O   O8        1.0  0.08349  0.15065  0.65758  1.0000
