data_image0
_chemical_formula_structural       Zn4H28C24S4N12O16
_chemical_formula_sum              "Zn4 H28 C24 S4 N12 O16"
_cell_length_a       6.55959
_cell_length_b       9.69466
_cell_length_c       16.5193
_cell_angle_alpha    90
_cell_angle_beta     89.9995
_cell_angle_gamma    90

_space_group_name_H-M_alt    "P 1"
_space_group_IT_number       1

loop_
  _space_group_symop_operation_xyz
  'x, y, z'

loop_
  _atom_site_type_symbol
  _atom_site_label
  _atom_site_symmetry_multiplicity
  _atom_site_fract_x
  _atom_site_fract_y
  _atom_site_fract_z
  _atom_site_occupancy
  Zn  Zn1       1.0  0.21577  0.65381  0.63534  1.0000
  Zn  Zn2       1.0  0.28422  0.34619  0.13533  1.0000
  Zn  Zn3       1.0  0.78423  0.15381  0.86467  1.0000
  Zn  Zn4       1.0  0.71577  0.84619  0.36466  1.0000
  H   H1        1.0  0.78589  0.29716  0.69413  1.0000
  H   H2        1.0  0.71411  0.70284  0.19413  1.0000
  H   H3        1.0  0.21411  0.79716  0.80587  1.0000
  H   H4        1.0  0.28589  0.20284  0.30587  1.0000
  H   H5        1.0  0.38016  0.31999  0.88776  1.0000
  H   H6        1.0  0.11984  0.68001  0.38775  1.0000
  H   H7        1.0  0.61985  0.81999  0.61224  1.0000
  H   H8        1.0  0.88015  0.18001  0.11225  1.0000
  H   H9        1.0  0.16252  0.48692  0.80866  1.0000
  H   H10       1.0  0.33749  0.51308  0.30866  1.0000
  H   H11       1.0  0.83748  0.98692  0.69134  1.0000
  H   H12       1.0  0.66251  0.01308  0.19134  1.0000
  H   H13       1.0  0.18989  0.46470  0.52090  1.0000
  H   H14       1.0  0.31011  0.53530  0.02090  1.0000
  H   H15       1.0  0.81011  0.96470  0.97910  1.0000
  H   H16       1.0  0.68989  0.03530  0.47910  1.0000
  H   H17       1.0  0.95973  0.50002  0.54221  1.0000
  H   H18       1.0  0.54028  0.49998  0.04221  1.0000
  H   H19       1.0  0.04028  0.00002  0.95779  1.0000
  H   H20       1.0  0.45972  0.99998  0.45779  1.0000
  H   H21       1.0  0.08606  0.85003  0.51726  1.0000
  H   H22       1.0  0.41394  0.14997  0.01726  1.0000
  H   H23       1.0  0.91394  0.35003  0.98274  1.0000
  H   H24       1.0  0.58606  0.64997  0.48274  1.0000
  H   H25       1.0  0.17093  0.92493  0.59595  1.0000
  H   H26       1.0  0.32907  0.07507  0.09595  1.0000
  H   H27       1.0  0.82906  0.42494  0.90405  1.0000
  H   H28       1.0  0.67094  0.57507  0.40405  1.0000
  C   C1        1.0  0.60126  0.49167  0.59780  1.0000
  C   C2        1.0  0.89873  0.50832  0.09780  1.0000
  C   C3        1.0  0.39874  0.99167  0.90220  1.0000
  C   C4        1.0  0.10126  0.00832  0.40220  1.0000
  C   C5        1.0  0.53284  0.43762  0.67874  1.0000
  C   C6        1.0  0.96715  0.56238  0.17874  1.0000
  C   C7        1.0  0.46716  0.93762  0.82126  1.0000
  C   C8        1.0  0.03284  0.06237  0.32126  1.0000
  C   C9        1.0  0.64768  0.34004  0.72068  1.0000
  C   C10       1.0  0.85232  0.65996  0.22068  1.0000
  C   C11       1.0  0.35232  0.84005  0.77932  1.0000
  C   C12       1.0  0.14768  0.15995  0.27932  1.0000
  C   C13       1.0  0.42261  0.35254  0.82702  1.0000
  C   C14       1.0  0.07739  0.64745  0.32702  1.0000
  C   C15       1.0  0.57739  0.85255  0.67298  1.0000
  C   C16       1.0  0.92261  0.14746  0.17298  1.0000
  C   C17       1.0  0.30395  0.44624  0.78366  1.0000
  C   C18       1.0  0.19605  0.55376  0.28366  1.0000
  C   C19       1.0  0.69605  0.94624  0.71634  1.0000
  C   C20       1.0  0.80394  0.05376  0.21634  1.0000
  C   C21       1.0  0.88993  0.64688  0.77395  1.0000
  C   C22       1.0  0.61006  0.35312  0.27396  1.0000
  C   C23       1.0  0.11007  0.14689  0.72605  1.0000
  C   C24       1.0  0.38993  0.85310  0.22604  1.0000
  S   S1        1.0  0.78539  0.64576  0.86279  1.0000
  S   S2        1.0  0.71462  0.35425  0.36279  1.0000
  S   S3        1.0  0.21462  0.14575  0.63721  1.0000
  S   S4        1.0  0.28539  0.85425  0.13721  1.0000
  N   N1        1.0  0.36045  0.48904  0.71012  1.0000
  N   N2        1.0  0.13956  0.51095  0.21012  1.0000
  N   N3        1.0  0.63956  0.98905  0.78988  1.0000
  N   N4        1.0  0.86044  0.01096  0.28988  1.0000
  N   N5        1.0  0.59285  0.29871  0.79489  1.0000
  N   N6        1.0  0.90715  0.70130  0.29489  1.0000
  N   N7        1.0  0.40715  0.79871  0.70511  1.0000
  N   N8        1.0  0.09285  0.20129  0.20511  1.0000
  N   N9        1.0  0.96785  0.64814  0.70889  1.0000
  N   N10       1.0  0.53216  0.35186  0.20889  1.0000
  N   N11       1.0  0.03217  0.14813  0.79111  1.0000
  N   N12       1.0  0.46784  0.85187  0.29111  1.0000
  O   O1        1.0  0.50285  0.59656  0.57078  1.0000
  O   O2        1.0  0.99715  0.40344  0.07078  1.0000
  O   O3        1.0  0.49715  0.09656  0.92922  1.0000
  O   O4        1.0  0.00284  0.90344  0.42922  1.0000
  O   O5        1.0  0.74736  0.43118  0.56413  1.0000
  O   O6        1.0  0.75264  0.56882  0.06413  1.0000
  O   O7        1.0  0.25263  0.93118  0.93587  1.0000
  O   O8        1.0  0.24736  0.06882  0.43587  1.0000
  O   O9        1.0  0.09995  0.54104  0.53449  1.0000
  O   O10       1.0  0.40005  0.45896  0.03449  1.0000
  O   O11       1.0  0.90005  0.04104  0.96551  1.0000
  O   O12       1.0  0.59995  0.95896  0.46551  1.0000
  O   O13       1.0  0.13552  0.83343  0.57394  1.0000
  O   O14       1.0  0.36447  0.16657  0.07394  1.0000
  O   O15       1.0  0.86447  0.33343  0.92606  1.0000
  O   O16       1.0  0.63553  0.66657  0.42606  1.0000
