data_image0
_chemical_formula_structural       Ag2H24C44S2N8O6F6
_chemical_formula_sum              "Ag2 H24 C44 S2 N8 O6 F6"
_cell_length_a       10.5874
_cell_length_b       10.6492
_cell_length_c       13.0127
_cell_angle_alpha    79.11
_cell_angle_beta     81.2277
_cell_angle_gamma    91.3193

_space_group_name_H-M_alt    "P 1"
_space_group_IT_number       1

loop_
  _space_group_symop_operation_xyz
  'x, y, z'

loop_
  _atom_site_type_symbol
  _atom_site_label
  _atom_site_symmetry_multiplicity
  _atom_site_fract_x
  _atom_site_fract_y
  _atom_site_fract_z
  _atom_site_occupancy
  Ag  Ag1       1.0  0.45042  0.50195  0.36590  1.0000
  Ag  Ag2       1.0  0.54959  0.49805  0.63411  1.0000
  H   H1        1.0  0.13710  0.83950  0.47894  1.0000
  H   H2        1.0  0.86290  0.16050  0.52105  1.0000
  H   H3        1.0  0.94569  0.92833  0.56772  1.0000
  H   H4        1.0  0.05431  0.07167  0.43228  1.0000
  H   H5        1.0  0.80334  0.54714  0.72635  1.0000
  H   H6        1.0  0.19666  0.45285  0.27365  1.0000
  H   H7        1.0  0.00269  0.45924  0.64583  1.0000
  H   H8        1.0  0.99730  0.54076  0.35416  1.0000
  H   H9        1.0  0.74777  0.83965  0.48290  1.0000
  H   H10       1.0  0.25222  0.16034  0.51710  1.0000
  H   H11       1.0  0.67222  0.03196  0.37734  1.0000
  H   H12       1.0  0.32777  0.96803  0.62267  1.0000
  H   H13       1.0  0.56168  0.18514  0.66055  1.0000
  H   H14       1.0  0.43833  0.81486  0.33945  1.0000
  H   H15       1.0  0.64361  0.99471  0.76694  1.0000
  H   H16       1.0  0.35639  0.00530  0.23306  1.0000
  H   H17       1.0  0.49557  0.78202  0.75559  1.0000
  H   H18       1.0  0.50443  0.21797  0.24443  1.0000
  H   H19       1.0  0.38100  0.70253  0.93736  1.0000
  H   H20       1.0  0.61900  0.29746  0.06266  1.0000
  H   H21       1.0  0.74102  0.61389  0.04497  1.0000
  H   H22       1.0  0.25899  0.38610  0.95503  1.0000
  H   H23       1.0  0.85595  0.69574  0.86211  1.0000
  H   H24       1.0  0.14405  0.30426  0.13789  1.0000
  C   C1        1.0  0.19096  0.59621  0.50361  1.0000
  C   C2        1.0  0.80905  0.40379  0.49637  1.0000
  C   C3        1.0  0.08070  0.64359  0.55629  1.0000
  C   C4        1.0  0.91929  0.35641  0.44370  1.0000
  C   C5        1.0  0.06445  0.77629  0.53395  1.0000
  C   C6        1.0  0.93554  0.22371  0.46605  1.0000
  C   C7        1.0  0.95693  0.82553  0.58284  1.0000
  C   C8        1.0  0.04307  0.17448  0.41716  1.0000
  C   C9        1.0  0.86068  0.74356  0.65094  1.0000
  C   C10       1.0  0.13932  0.25644  0.34906  1.0000
  C   C11       1.0  0.87777  0.61129  0.67406  1.0000
  C   C12       1.0  0.12223  0.38871  0.32593  1.0000
  C   C13       1.0  0.98774  0.56147  0.62828  1.0000
  C   C14       1.0  0.01226  0.43852  0.37172  1.0000
  C   C15       1.0  0.70162  0.90473  0.63237  1.0000
  C   C16       1.0  0.29837  0.09527  0.36764  1.0000
  C   C17       1.0  0.70935  0.91584  0.52198  1.0000
  C   C18       1.0  0.29065  0.08415  0.47803  1.0000
  C   C19       1.0  0.66665  0.02383  0.46246  1.0000
  C   C20       1.0  0.33335  0.97616  0.53754  1.0000
  C   C21       1.0  0.61357  0.12137  0.51215  1.0000
  C   C22       1.0  0.38643  0.87862  0.48785  1.0000
  C   C23       1.0  0.56994  0.23109  0.45096  1.0000
  C   C24       1.0  0.43006  0.76891  0.54904  1.0000
  C   C25       1.0  0.60410  0.10992  0.62272  1.0000
  C   C26       1.0  0.39590  0.89009  0.37728  1.0000
  C   C27       1.0  0.64903  0.00277  0.68170  1.0000
  C   C28       1.0  0.35097  0.99723  0.31831  1.0000
  C   C29       1.0  0.68344  0.74602  0.79695  1.0000
  C   C30       1.0  0.31657  0.25397  0.20306  1.0000
  C   C31       1.0  0.54925  0.74735  0.81916  1.0000
  C   C32       1.0  0.45075  0.25265  0.18084  1.0000
  C   C33       1.0  0.48502  0.70229  0.92082  1.0000
  C   C34       1.0  0.51499  0.29770  0.07919  1.0000
  C   C35       1.0  0.55407  0.65350  0.00260  1.0000
  C   C36       1.0  0.44595  0.34649  0.99741  1.0000
  C   C37       1.0  0.48774  0.60951  0.10675  1.0000
  C   C38       1.0  0.51226  0.39048  0.89327  1.0000
  C   C39       1.0  0.68826  0.64985  0.98070  1.0000
  C   C40       1.0  0.31175  0.35014  0.01931  1.0000
  C   C41       1.0  0.75199  0.69627  0.87867  1.0000
  C   C42       1.0  0.24801  0.30372  0.12133  1.0000
  C   C43       1.0  0.75538  0.83489  0.19508  1.0000
  C   C44       1.0  0.24463  0.16512  0.80490  1.0000
  S   S1        1.0  0.74244  0.68376  0.29821  1.0000
  S   S2        1.0  0.25755  0.31625  0.70177  1.0000
  N   N1        1.0  0.28314  0.56392  0.45664  1.0000
  N   N2        1.0  0.71685  0.43609  0.54335  1.0000
  N   N3        1.0  0.74746  0.79602  0.69335  1.0000
  N   N4        1.0  0.25253  0.20397  0.30666  1.0000
  N   N5        1.0  0.53507  0.32219  0.40038  1.0000
  N   N6        1.0  0.46494  0.67781  0.59962  1.0000
  N   N7        1.0  0.43142  0.57390  0.19221  1.0000
  N   N8        1.0  0.56859  0.42609  0.80779  1.0000
  O   O1        1.0  0.61104  0.68488  0.35481  1.0000
  O   O2        1.0  0.38895  0.31516  0.64517  1.0000
  O   O3        1.0  0.76276  0.58419  0.23566  1.0000
  O   O4        1.0  0.23722  0.41583  0.76434  1.0000
  O   O5        1.0  0.84185  0.70525  0.36005  1.0000
  O   O6        1.0  0.15815  0.29475  0.63995  1.0000
  F   F1        1.0  0.75589  0.94141  0.23950  1.0000
  F   F2        1.0  0.24410  0.05861  0.76050  1.0000
  F   F3        1.0  0.86478  0.84237  0.12408  1.0000
  F   F4        1.0  0.13524  0.15767  0.87593  1.0000
  F   F5        1.0  0.65497  0.84208  0.14024  1.0000
  F   F6        1.0  0.34506  0.15793  0.85973  1.0000
