data_image0
_chemical_formula_structural       Zn2H26C46N8O16
_chemical_formula_sum              "Zn2 H26 C46 N8 O16"
_cell_length_a       8.17152
_cell_length_b       11.5684
_cell_length_c       14.4041
_cell_angle_alpha    69.9963
_cell_angle_beta     82.6004
_cell_angle_gamma    74.8698

_space_group_name_H-M_alt    "P 1"
_space_group_IT_number       1

loop_
  _space_group_symop_operation_xyz
  'x, y, z'

loop_
  _atom_site_type_symbol
  _atom_site_label
  _atom_site_symmetry_multiplicity
  _atom_site_fract_x
  _atom_site_fract_y
  _atom_site_fract_z
  _atom_site_occupancy
  Zn  Zn1       1.0  0.41417  0.84285  0.05413  1.0000
  Zn  Zn2       1.0  0.58582  0.15714  0.94588  1.0000
  H   H1        1.0  0.35707  0.45962  0.30160  1.0000
  H   H2        1.0  0.64292  0.54038  0.69841  1.0000
  H   H3        1.0  0.83513  0.35179  0.62297  1.0000
  H   H4        1.0  0.16488  0.64821  0.37703  1.0000
  H   H5        1.0  0.99537  0.74218  0.64954  1.0000
  H   H6        1.0  0.00463  0.25782  0.35046  1.0000
  H   H7        1.0  0.36852  0.14410  0.17749  1.0000
  H   H8        1.0  0.63148  0.85591  0.82251  1.0000
  H   H9        1.0  0.70566  0.81942  0.36290  1.0000
  H   H10       1.0  0.29434  0.18058  0.63709  1.0000
  H   H11       1.0  0.59429  0.17528  0.41946  1.0000
  H   H12       1.0  0.40570  0.82472  0.58054  1.0000
  H   H13       1.0  0.75957  0.16451  0.62606  1.0000
  H   H14       1.0  0.24044  0.83549  0.37393  1.0000
  H   H15       1.0  0.01036  0.11382  0.88907  1.0000
  H   H16       1.0  0.98963  0.88618  0.11094  1.0000
  H   H17       1.0  0.10694  0.81152  0.76762  1.0000
  H   H18       1.0  0.89306  0.18848  0.23238  1.0000
  H   H19       1.0  0.49446  0.58040  0.05442  1.0000
  H   H20       1.0  0.50554  0.41959  0.94556  1.0000
  H   H21       1.0  0.75108  0.41811  0.03752  1.0000
  H   H22       1.0  0.24891  0.58190  0.96245  1.0000
  H   H23       1.0  0.04112  0.70135  0.98463  1.0000
  H   H24       1.0  0.95887  0.29865  0.01538  1.0000
  H   H25       1.0  0.77125  0.85064  0.00695  1.0000
  H   H26       1.0  0.22874  0.14935  0.99307  1.0000
  C   C1        1.0  0.37066  0.30739  0.27316  1.0000
  C   C2        1.0  0.62935  0.69262  0.72684  1.0000
  C   C3        1.0  0.47120  0.17449  0.29577  1.0000
  C   C4        1.0  0.52880  0.82551  0.70423  1.0000
  C   C5        1.0  0.45181  0.10191  0.23946  1.0000
  C   C6        1.0  0.54819  0.89809  0.76053  1.0000
  C   C7        1.0  0.53864  0.97493  0.26317  1.0000
  C   C8        1.0  0.46136  0.02507  0.73683  1.0000
  C   C9        1.0  0.64244  0.91933  0.34460  1.0000
  C   C10       1.0  0.35757  0.08068  0.65539  1.0000
  C   C11       1.0  0.66438  0.99183  0.40041  1.0000
  C   C12       1.0  0.33563  0.00817  0.59959  1.0000
  C   C13       1.0  0.57887  0.11989  0.37494  1.0000
  C   C14       1.0  0.42113  0.88011  0.62506  1.0000
  C   C15       1.0  0.51749  0.89594  0.20374  1.0000
  C   C16       1.0  0.48251  0.10406  0.79626  1.0000
  C   C17       1.0  0.77136  0.94151  0.48609  1.0000
  C   C18       1.0  0.22864  0.05850  0.51391  1.0000
  C   C19       1.0  0.88401  0.94147  0.61167  1.0000
  C   C20       1.0  0.11600  0.05853  0.38833  1.0000
  C   C21       1.0  0.92764  0.98351  0.68799  1.0000
  C   C22       1.0  0.07236  0.01650  0.31201  1.0000
  C   C23       1.0  0.84867  0.10840  0.68411  1.0000
  C   C24       1.0  0.15133  0.89160  0.31589  1.0000
  C   C25       1.0  0.87572  0.15411  0.75738  1.0000
  C   C26       1.0  0.12428  0.84589  0.24262  1.0000
  C   C27       1.0  0.98741  0.07841  0.83233  1.0000
  C   C28       1.0  0.01259  0.92159  0.16767  1.0000
  C   C29       1.0  0.07248  0.95668  0.83356  1.0000
  C   C30       1.0  0.92752  0.04332  0.16644  1.0000
  C   C31       1.0  0.03989  0.90800  0.76300  1.0000
  C   C32       1.0  0.96011  0.09200  0.23700  1.0000
  C   C33       1.0  0.78024  0.27978  0.76165  1.0000
  C   C34       1.0  0.21977  0.72021  0.23836  1.0000
  C   C35       1.0  0.20166  0.87982  0.90991  1.0000
  C   C36       1.0  0.79833  0.12018  0.09009  1.0000
  C   C37       1.0  0.61877  0.60246  0.03873  1.0000
  C   C38       1.0  0.38123  0.39754  0.96125  1.0000
  C   C39       1.0  0.76371  0.51287  0.02821  1.0000
  C   C40       1.0  0.23629  0.48713  0.97178  1.0000
  C   C41       1.0  0.92131  0.54582  0.00707  1.0000
  C   C42       1.0  0.07868  0.45419  0.99292  1.0000
  C   C43       1.0  0.92351  0.66951  0.00018  1.0000
  C   C44       1.0  0.07649  0.33049  0.99982  1.0000
  C   C45       1.0  0.77359  0.75391  0.01221  1.0000
  C   C46       1.0  0.22640  0.24608  0.98779  1.0000
  N   N1        1.0  0.78403  0.01745  0.53804  1.0000
  N   N2        1.0  0.21598  0.98255  0.46196  1.0000
  N   N3        1.0  0.86096  0.82140  0.52289  1.0000
  N   N4        1.0  0.13904  0.17860  0.47711  1.0000
  N   N5        1.0  0.93145  0.82429  0.60213  1.0000
  N   N6        1.0  0.06855  0.17571  0.39787  1.0000
  N   N7        1.0  0.62289  0.72129  0.03027  1.0000
  N   N8        1.0  0.37710  0.27871  0.96973  1.0000
  O   O1        1.0  0.43392  0.37519  0.31385  1.0000
  O   O2        1.0  0.56607  0.62481  0.68616  1.0000
  O   O3        1.0  0.24246  0.35116  0.22471  1.0000
  O   O4        1.0  0.75755  0.64884  0.77529  1.0000
  O   O5        1.0  0.44098  0.95865  0.12037  1.0000
  O   O6        1.0  0.55902  0.04135  0.87962  1.0000
  O   O7        1.0  0.56739  0.77850  0.23515  1.0000
  O   O8        1.0  0.43260  0.22150  0.76485  1.0000
  O   O9        1.0  0.76806  0.37859  0.67659  1.0000
  O   O10       1.0  0.23194  0.62141  0.32342  1.0000
  O   O11       1.0  0.71289  0.30055  0.83775  1.0000
  O   O12       1.0  0.28711  0.69944  0.16225  1.0000
  O   O13       1.0  0.23069  0.93957  0.96549  1.0000
  O   O14       1.0  0.76930  0.06042  0.03451  1.0000
  O   O15       1.0  0.27297  0.76791  0.91648  1.0000
  O   O16       1.0  0.72703  0.23208  0.08352  1.0000
