data_image0
_chemical_formula_structural       K4H28C24O20
_chemical_formula_sum              "K4 H28 C24 O20"
_cell_length_a       7.88395
_cell_length_b       9.77449
_cell_length_c       10.1283
_cell_angle_alpha    104.502
_cell_angle_beta     93.2594
_cell_angle_gamma    94.9304

_space_group_name_H-M_alt    "P 1"
_space_group_IT_number       1

loop_
  _space_group_symop_operation_xyz
  'x, y, z'

loop_
  _atom_site_type_symbol
  _atom_site_label
  _atom_site_symmetry_multiplicity
  _atom_site_fract_x
  _atom_site_fract_y
  _atom_site_fract_z
  _atom_site_occupancy
  K   K1        1.0  0.18865  0.25067  0.24468  1.0000
  K   K2        1.0  0.81158  0.74965  0.75545  1.0000
  K   K3        1.0  0.72227  0.22269  0.35597  1.0000
  K   K4        1.0  0.27768  0.77719  0.64386  1.0000
  H   H1        1.0  0.79567  0.93341  0.42656  1.0000
  H   H2        1.0  0.20441  0.06652  0.57336  1.0000
  H   H3        1.0  0.28509  0.39498  0.91242  1.0000
  H   H4        1.0  0.71496  0.60498  0.08761  1.0000
  H   H5        1.0  0.10337  0.29723  0.57533  1.0000
  H   H6        1.0  0.89648  0.70276  0.42469  1.0000
  H   H7        1.0  0.06252  0.45457  0.60924  1.0000
  H   H8        1.0  0.93736  0.54544  0.39092  1.0000
  H   H9        1.0  0.25228  0.46276  0.48061  1.0000
  H   H10       1.0  0.74739  0.53737  0.51932  1.0000
  H   H11       1.0  0.43073  0.48004  0.41656  1.0000
  H   H12       1.0  0.56984  0.52048  0.58492  1.0000
  H   H13       1.0  0.07424  0.69448  0.24747  1.0000
  H   H14       1.0  0.92579  0.30552  0.75252  1.0000
  H   H15       1.0  0.34703  0.76401  0.32634  1.0000
  H   H16       1.0  0.65301  0.23595  0.67361  1.0000
  H   H17       1.0  0.54505  0.88261  0.19141  1.0000
  H   H18       1.0  0.45498  0.11737  0.80855  1.0000
  H   H19       1.0  0.44593  0.62461  0.12986  1.0000
  H   H20       1.0  0.55412  0.37539  0.87005  1.0000
  H   H21       1.0  0.16918  0.55828  0.07046  1.0000
  H   H22       1.0  0.83088  0.44173  0.92953  1.0000
  H   H23       1.0  0.96474  0.73179  0.02303  1.0000
  H   H24       1.0  0.03528  0.26820  0.97696  1.0000
  H   H25       1.0  0.10038  0.94506  0.95762  1.0000
  H   H26       1.0  0.89964  0.05497  0.04240  1.0000
  H   H27       1.0  0.40609  0.03172  0.05781  1.0000
  H   H28       1.0  0.59392  0.96830  0.94219  1.0000
  C   C1        1.0  0.11116  0.79491  0.22201  1.0000
  C   C2        1.0  0.88888  0.20507  0.77797  1.0000
  C   C3        1.0  0.30326  0.84379  0.27604  1.0000
  C   C4        1.0  0.69679  0.15618  0.72393  1.0000
  C   C5        1.0  0.41123  0.84641  0.15391  1.0000
  C   C6        1.0  0.58881  0.15357  0.84604  1.0000
  C   C7        1.0  0.39937  0.68925  0.06373  1.0000
  C   C8        1.0  0.60066  0.31075  0.93619  1.0000
  C   C9        1.0  0.20760  0.63889  0.01573  1.0000
  C   C10       1.0  0.79243  0.36110  0.98425  1.0000
  C   C11       1.0  0.09831  0.76412  0.06237  1.0000
  C   C12       1.0  0.90172  0.23587  0.93762  1.0000
  C   C13       1.0  0.98310  0.89677  0.28456  1.0000
  C   C14       1.0  0.01696  0.10325  0.71542  1.0000
  C   C15       1.0  0.32223  0.98371  0.38634  1.0000
  C   C16       1.0  0.67779  0.01627  0.61362  1.0000
  C   C17       1.0  0.52118  0.68293  0.95053  1.0000
  C   C18       1.0  0.47885  0.31699  0.04936  1.0000
  C   C19       1.0  0.17532  0.55972  0.86546  1.0000
  C   C20       1.0  0.82466  0.44025  0.13453  1.0000
  C   C21       1.0  0.17285  0.89264  0.02175  1.0000
  C   C22       1.0  0.82718  0.10736  0.97824  1.0000
  C   C23       1.0  0.33459  0.93706  0.07182  1.0000
  C   C24       1.0  0.66545  0.06293  0.92816  1.0000
  O   O1        1.0  0.98027  0.01783  0.26495  1.0000
  O   O2        1.0  0.01978  0.98217  0.73503  1.0000
  O   O3        1.0  0.87532  0.84498  0.35755  1.0000
  O   O4        1.0  0.12473  0.15502  0.64244  1.0000
  O   O5        1.0  0.38696  0.09814  0.36914  1.0000
  O   O6        1.0  0.61307  0.90183  0.63086  1.0000
  O   O7        1.0  0.25948  0.96785  0.49858  1.0000
  O   O8        1.0  0.74049  0.03212  0.50138  1.0000
  O   O9        1.0  0.47318  0.70340  0.83748  1.0000
  O   O10       1.0  0.52682  0.29633  0.16231  1.0000
  O   O11       1.0  0.67755  0.66299  0.98096  1.0000
  O   O12       1.0  0.32248  0.33702  0.01897  1.0000
  O   O13       1.0  0.08525  0.60183  0.78090  1.0000
  O   O14       1.0  0.91467  0.39813  0.21911  1.0000
  O   O15       1.0  0.23877  0.43768  0.82823  1.0000
  O   O16       1.0  0.76124  0.56232  0.17176  1.0000
  O   O17       1.0  0.07925  0.37459  0.53076  1.0000
  O   O18       1.0  0.92046  0.62542  0.46933  1.0000
  O   O19       1.0  0.33080  0.52881  0.44481  1.0000
  O   O20       1.0  0.66855  0.47103  0.55456  1.0000
