data_image0
_chemical_formula_structural       Cs2H26C24O18
_chemical_formula_sum              "Cs2 H26 C24 O18"
_cell_length_a       8.1866
_cell_length_b       9.68558
_cell_length_c       9.92962
_cell_angle_alpha    116.289
_cell_angle_beta     95.2483
_cell_angle_gamma    97.3863

_space_group_name_H-M_alt    "P 1"
_space_group_IT_number       1

loop_
  _space_group_symop_operation_xyz
  'x, y, z'

loop_
  _atom_site_type_symbol
  _atom_site_label
  _atom_site_symmetry_multiplicity
  _atom_site_fract_x
  _atom_site_fract_y
  _atom_site_fract_z
  _atom_site_occupancy
  Cs  Cs1       1.0  0.76202  0.45389  0.18530  1.0000
  Cs  Cs2       1.0  0.23798  0.54611  0.81470  1.0000
  H   H1        1.0  0.15399  0.63509  0.48848  1.0000
  H   H2        1.0  0.84601  0.36491  0.51152  1.0000
  H   H3        1.0  0.26142  0.16945  0.82516  1.0000
  H   H4        1.0  0.73858  0.83055  0.17483  1.0000
  H   H5        1.0  0.66457  0.41614  0.72827  1.0000
  H   H6        1.0  0.33544  0.58386  0.27173  1.0000
  H   H7        1.0  0.76980  0.67100  0.94809  1.0000
  H   H8        1.0  0.23020  0.32900  0.05191  1.0000
  H   H9        1.0  0.92698  0.69635  0.07400  1.0000
  H   H10       1.0  0.07302  0.30365  0.92600  1.0000
  H   H11       1.0  0.82368  0.81087  0.47727  1.0000
  H   H12       1.0  0.17632  0.18913  0.52273  1.0000
  H   H13       1.0  0.58450  0.69514  0.51176  1.0000
  H   H14       1.0  0.41550  0.30485  0.48824  1.0000
  H   H15       1.0  0.49024  0.80750  0.76598  1.0000
  H   H16       1.0  0.50976  0.19250  0.23401  1.0000
  H   H17       1.0  0.47834  0.91526  0.57733  1.0000
  H   H18       1.0  0.52166  0.08475  0.42267  1.0000
  H   H19       1.0  0.71777  0.03186  0.54363  1.0000
  H   H20       1.0  0.28223  0.96815  0.45638  1.0000
  H   H21       1.0  0.99223  0.05484  0.69428  1.0000
  H   H22       1.0  0.00777  0.94516  0.30572  1.0000
  H   H23       1.0  0.98305  0.08424  0.95702  1.0000
  H   H24       1.0  0.01695  0.91576  0.04298  1.0000
  H   H25       1.0  0.71217  0.95290  0.99517  1.0000
  H   H26       1.0  0.28782  0.04710  0.00483  1.0000
  C   C1        1.0  0.84095  0.81946  0.59192  1.0000
  C   C2        1.0  0.15905  0.18054  0.40808  1.0000
  C   C3        1.0  0.67583  0.73890  0.61686  1.0000
  C   C4        1.0  0.32417  0.26110  0.38313  1.0000
  C   C5        1.0  0.60475  0.86339  0.74681  1.0000
  C   C6        1.0  0.39525  0.13661  0.25319  1.0000
  C   C7        1.0  0.56141  0.98221  0.68749  1.0000
  C   C8        1.0  0.43859  0.01779  0.31251  1.0000
  C   C9        1.0  0.72803  0.06294  0.66549  1.0000
  C   C10       1.0  0.27198  0.93706  0.33451  1.0000
  C   C11       1.0  0.87555  0.99720  0.70834  1.0000
  C   C12       1.0  0.12445  0.00281  0.29166  1.0000
  C   C13       1.0  0.99167  0.74765  0.60687  1.0000
  C   C14       1.0  0.00833  0.25235  0.39313  1.0000
  C   C15       1.0  0.69571  0.59041  0.63053  1.0000
  C   C16       1.0  0.30429  0.40960  0.36947  1.0000
  C   C17       1.0  0.46928  0.09691  0.79775  1.0000
  C   C18       1.0  0.53073  0.90309  0.20225  1.0000
  C   C19       1.0  0.75802  0.24092  0.74506  1.0000
  C   C20       1.0  0.24198  0.75908  0.25494  1.0000
  C   C21       1.0  0.87662  0.01699  0.86694  1.0000
  C   C22       1.0  0.12338  0.98301  0.13306  1.0000
  C   C23       1.0  0.73502  0.94813  0.88725  1.0000
  C   C24       1.0  0.26498  0.05187  0.11275  1.0000
  O   O1        1.0  0.06057  0.69487  0.48060  1.0000
  O   O2        1.0  0.93943  0.30513  0.51940  1.0000
  O   O3        1.0  0.04513  0.74029  0.72299  1.0000
  O   O4        1.0  0.95488  0.25971  0.27701  1.0000
  O   O5        1.0  0.73105  0.48137  0.51258  1.0000
  O   O6        1.0  0.26895  0.51864  0.48743  1.0000
  O   O7        1.0  0.67130  0.57900  0.75121  1.0000
  O   O8        1.0  0.32870  0.42100  0.24880  1.0000
  O   O9        1.0  0.53267  0.19133  0.93002  1.0000
  O   O10       1.0  0.46733  0.80867  0.06998  1.0000
  O   O11       1.0  0.31106  0.08506  0.74055  1.0000
  O   O12       1.0  0.68894  0.91494  0.25945  1.0000
  O   O13       1.0  0.88160  0.32726  0.84199  1.0000
  O   O14       1.0  0.11841  0.67274  0.15800  1.0000
  O   O15       1.0  0.63860  0.29419  0.69406  1.0000
  O   O16       1.0  0.36140  0.70581  0.30594  1.0000
  O   O17       1.0  0.80590  0.69537  0.05538  1.0000
  O   O18       1.0  0.19409  0.30463  0.94462  1.0000
