data_image0
_chemical_formula_structural       Rb2H26C24O18
_chemical_formula_sum              "Rb2 H26 C24 O18"
_cell_length_a       8.19478
_cell_length_b       9.66999
_cell_length_c       9.68769
_cell_angle_alpha    116.892
_cell_angle_beta     95.0147
_cell_angle_gamma    98.5825

_space_group_name_H-M_alt    "P 1"
_space_group_IT_number       1

loop_
  _space_group_symop_operation_xyz
  'x, y, z'

loop_
  _atom_site_type_symbol
  _atom_site_label
  _atom_site_symmetry_multiplicity
  _atom_site_fract_x
  _atom_site_fract_y
  _atom_site_fract_z
  _atom_site_occupancy
  Rb  Rb1       1.0  0.77817  0.44119  0.18142  1.0000
  Rb  Rb2       1.0  0.22183  0.55881  0.81858  1.0000
  H   H1        1.0  0.15407  0.63300  0.48853  1.0000
  H   H2        1.0  0.84593  0.36700  0.51147  1.0000
  H   H3        1.0  0.27000  0.17451  0.82268  1.0000
  H   H4        1.0  0.73000  0.82549  0.17732  1.0000
  H   H5        1.0  0.66666  0.41449  0.72722  1.0000
  H   H6        1.0  0.33334  0.58552  0.27278  1.0000
  H   H7        1.0  0.75857  0.65884  0.95442  1.0000
  H   H8        1.0  0.24143  0.34116  0.04559  1.0000
  H   H9        1.0  0.91655  0.68844  0.08304  1.0000
  H   H10       1.0  0.08345  0.31156  0.91696  1.0000
  H   H11       1.0  0.82629  0.80533  0.46953  1.0000
  H   H12       1.0  0.17371  0.19467  0.53047  1.0000
  H   H13       1.0  0.58458  0.69249  0.50805  1.0000
  H   H14       1.0  0.41542  0.30752  0.49195  1.0000
  H   H15       1.0  0.49673  0.80764  0.77327  1.0000
  H   H16       1.0  0.50327  0.19237  0.22674  1.0000
  H   H17       1.0  0.48016  0.90949  0.57603  1.0000
  H   H18       1.0  0.51984  0.09051  0.42397  1.0000
  H   H19       1.0  0.71805  0.02712  0.53677  1.0000
  H   H20       1.0  0.28195  0.97289  0.46322  1.0000
  H   H21       1.0  0.99633  0.05797  0.69022  1.0000
  H   H22       1.0  0.00367  0.94203  0.30977  1.0000
  H   H23       1.0  0.99325  0.09463  0.96329  1.0000
  H   H24       1.0  0.00676  0.90537  0.03671  1.0000
  H   H25       1.0  0.72454  0.96258  0.00737  1.0000
  H   H26       1.0  0.27547  0.03742  0.99263  1.0000
  C   C1        1.0  0.84380  0.81852  0.58893  1.0000
  C   C2        1.0  0.15620  0.18148  0.41107  1.0000
  C   C3        1.0  0.67783  0.73769  0.61569  1.0000
  C   C4        1.0  0.32217  0.26231  0.38432  1.0000
  C   C5        1.0  0.61029  0.86416  0.75114  1.0000
  C   C6        1.0  0.38972  0.13584  0.24886  1.0000
  C   C7        1.0  0.56542  0.98036  0.68895  1.0000
  C   C8        1.0  0.43458  0.01963  0.31105  1.0000
  C   C9        1.0  0.73156  0.06181  0.66298  1.0000
  C   C10       1.0  0.26844  0.93819  0.33702  1.0000
  C   C11       1.0  0.88015  0.99952  0.70672  1.0000
  C   C12       1.0  0.11985  0.00048  0.29327  1.0000
  C   C13       1.0  0.99271  0.74758  0.60669  1.0000
  C   C14       1.0  0.00729  0.25242  0.39331  1.0000
  C   C15       1.0  0.69601  0.58841  0.62768  1.0000
  C   C16       1.0  0.30399  0.41159  0.37232  1.0000
  C   C17       1.0  0.47538  0.09783  0.80143  1.0000
  C   C18       1.0  0.52462  0.90217  0.19857  1.0000
  C   C19       1.0  0.76286  0.24163  0.74443  1.0000
  C   C20       1.0  0.23714  0.75837  0.25557  1.0000
  C   C21       1.0  0.88472  0.02449  0.87138  1.0000
  C   C22       1.0  0.11528  0.97551  0.12862  1.0000
  C   C23       1.0  0.74383  0.95446  0.89461  1.0000
  C   C24       1.0  0.25618  0.04555  0.10539  1.0000
  O   O1        1.0  0.06063  0.69020  0.47675  1.0000
  O   O2        1.0  0.93937  0.30980  0.52325  1.0000
  O   O3        1.0  0.04526  0.74347  0.72748  1.0000
  O   O4        1.0  0.95474  0.25653  0.27252  1.0000
  O   O5        1.0  0.73074  0.47871  0.50550  1.0000
  O   O6        1.0  0.26926  0.52129  0.49450  1.0000
  O   O7        1.0  0.67156  0.57678  0.75109  1.0000
  O   O8        1.0  0.32844  0.42321  0.24891  1.0000
  O   O9        1.0  0.53968  0.19648  0.93779  1.0000
  O   O10       1.0  0.46032  0.80352  0.06221  1.0000
  O   O11       1.0  0.31763  0.08378  0.74037  1.0000
  O   O12       1.0  0.68237  0.91622  0.25963  1.0000
  O   O13       1.0  0.88748  0.33234  0.84473  1.0000
  O   O14       1.0  0.11252  0.66766  0.15527  1.0000
  O   O15       1.0  0.64239  0.29133  0.69175  1.0000
  O   O16       1.0  0.35761  0.70867  0.30825  1.0000
  O   O17       1.0  0.79410  0.68261  0.06457  1.0000
  O   O18       1.0  0.20590  0.31739  0.93543  1.0000
