data_image0
_chemical_formula_structural       Ag2H24C24S2N6O6
_chemical_formula_sum              "Ag2 H24 C24 S2 N6 O6"
_cell_length_a       7.49039
_cell_length_b       7.96497
_cell_length_c       12.2273
_cell_angle_alpha    88.524
_cell_angle_beta     78.0101
_cell_angle_gamma    70.3007

_space_group_name_H-M_alt    "P 1"
_space_group_IT_number       1

loop_
  _space_group_symop_operation_xyz
  'x, y, z'

loop_
  _atom_site_type_symbol
  _atom_site_label
  _atom_site_symmetry_multiplicity
  _atom_site_fract_x
  _atom_site_fract_y
  _atom_site_fract_z
  _atom_site_occupancy
  Ag  Ag1       1.0  0.29224  0.16316  0.27586  1.0000
  Ag  Ag2       1.0  0.70777  0.83684  0.72414  1.0000
  H   H1        1.0  0.24624  0.61474  0.05337  1.0000
  H   H2        1.0  0.75375  0.38527  0.94663  1.0000
  H   H3        1.0  0.48710  0.59468  0.87395  1.0000
  H   H4        1.0  0.51291  0.40532  0.12605  1.0000
  H   H5        1.0  0.37890  0.14069  0.88934  1.0000
  H   H6        1.0  0.62112  0.85930  0.11065  1.0000
  H   H7        1.0  0.13666  0.18212  0.06667  1.0000
  H   H8        1.0  0.86336  0.81789  0.93332  1.0000
  H   H9        1.0  0.98346  0.80353  0.19556  1.0000
  H   H10       1.0  0.01655  0.19647  0.80443  1.0000
  H   H11       1.0  0.91127  0.04256  0.19115  1.0000
  H   H12       1.0  0.08873  0.95744  0.80885  1.0000
  H   H13       1.0  0.25040  0.62255  0.31959  1.0000
  H   H14       1.0  0.74959  0.37746  0.68040  1.0000
  H   H15       1.0  0.42197  0.70019  0.22702  1.0000
  H   H16       1.0  0.57803  0.29981  0.77298  1.0000
  H   H17       1.0  0.19954  0.69147  0.53594  1.0000
  H   H18       1.0  0.80045  0.30853  0.46406  1.0000
  H   H19       1.0  0.37304  0.71265  0.68324  1.0000
  H   H20       1.0  0.62695  0.28735  0.31676  1.0000
  H   H21       1.0  0.81800  0.80603  0.45293  1.0000
  H   H22       1.0  0.18199  0.19398  0.54707  1.0000
  H   H23       1.0  0.66450  0.78127  0.29407  1.0000
  H   H24       1.0  0.33549  0.21873  0.70593  1.0000
  C   C1        1.0  0.27638  0.73316  0.02048  1.0000
  C   C2        1.0  0.72362  0.26684  0.97952  1.0000
  C   C3        1.0  0.40868  0.72235  0.92002  1.0000
  C   C4        1.0  0.59133  0.27764  0.07998  1.0000
  C   C5        1.0  0.34856  0.02574  0.92788  1.0000
  C   C6        1.0  0.65145  0.97426  0.07212  1.0000
  C   C7        1.0  0.21354  0.04881  0.02798  1.0000
  C   C8        1.0  0.78648  0.95119  0.97201  1.0000
  C   C9        1.0  0.17728  0.89967  0.07714  1.0000
  C   C10       1.0  0.82272  0.10033  0.92286  1.0000
  C   C11       1.0  0.03467  0.91792  0.18562  1.0000
  C   C12       1.0  0.96533  0.08208  0.81437  1.0000
  C   C13       1.0  0.31930  0.72551  0.30821  1.0000
  C   C14       1.0  0.68070  0.27450  0.69179  1.0000
  C   C15       1.0  0.41811  0.73535  0.40144  1.0000
  C   C16       1.0  0.58188  0.26465  0.59856  1.0000
  C   C17       1.0  0.33628  0.71717  0.51287  1.0000
  C   C18       1.0  0.66372  0.28283  0.48713  1.0000
  C   C19       1.0  0.43310  0.72970  0.59625  1.0000
  C   C20       1.0  0.56689  0.27030  0.40375  1.0000
  C   C21       1.0  0.68148  0.77917  0.46784  1.0000
  C   C22       1.0  0.31851  0.22084  0.53216  1.0000
  C   C23       1.0  0.59429  0.76800  0.37966  1.0000
  C   C24       1.0  0.40570  0.23201  0.62035  1.0000
  S   S1        1.0  0.12700  0.94185  0.30945  1.0000
  S   S2        1.0  0.87300  0.05816  0.69055  1.0000
  N   N1        1.0  0.44720  0.86512  0.87415  1.0000
  N   N2        1.0  0.55280  0.13487  0.12584  1.0000
  N   N3        1.0  0.60306  0.76016  0.57503  1.0000
  N   N4        1.0  0.39694  0.23984  0.42498  1.0000
  N   N5        1.0  0.95384  0.46777  0.19280  1.0000
  N   N6        1.0  0.04616  0.53222  0.80720  1.0000
  O   O1        1.0  0.12300  0.46087  0.20436  1.0000
  O   O2        1.0  0.87700  0.53913  0.79564  1.0000
  O   O3        1.0  0.88703  0.34817  0.23327  1.0000
  O   O4        1.0  0.11297  0.65182  0.76674  1.0000
  O   O5        1.0  0.85782  0.59362  0.14130  1.0000
  O   O6        1.0  0.14218  0.40637  0.85870  1.0000
