data_image0
_chemical_formula_structural       Ag2H28C32S2N4O4
_chemical_formula_sum              "Ag2 H28 C32 S2 N4 O4"
_cell_length_a       7.52431
_cell_length_b       11.9773
_cell_length_c       13.0231
_cell_angle_alpha    73.0239
_cell_angle_beta     84.9049
_cell_angle_gamma    72.9089

_space_group_name_H-M_alt    "P 1"
_space_group_IT_number       1

loop_
  _space_group_symop_operation_xyz
  'x, y, z'

loop_
  _atom_site_type_symbol
  _atom_site_label
  _atom_site_symmetry_multiplicity
  _atom_site_fract_x
  _atom_site_fract_y
  _atom_site_fract_z
  _atom_site_occupancy
  Ag  Ag1       1.0  0.30259  0.25865  0.10160  1.0000
  Ag  Ag2       1.0  0.69741  0.74134  0.89840  1.0000
  H   H1        1.0  0.27778  0.77227  0.82460  1.0000
  H   H2        1.0  0.72222  0.22773  0.17539  1.0000
  H   H3        1.0  0.08020  0.64908  0.80160  1.0000
  H   H4        1.0  0.91980  0.35092  0.19839  1.0000
  H   H5        1.0  0.56275  0.33558  0.87275  1.0000
  H   H6        1.0  0.43726  0.66441  0.12725  1.0000
  H   H7        1.0  0.74134  0.47159  0.89724  1.0000
  H   H8        1.0  0.25866  0.52841  0.10276  1.0000
  H   H9        1.0  0.08123  0.44926  0.76566  1.0000
  H   H10       1.0  0.91877  0.55074  0.23434  1.0000
  H   H11       1.0  0.28181  0.31994  0.80224  1.0000
  H   H12       1.0  0.71818  0.68005  0.19776  1.0000
  H   H13       1.0  0.91259  0.27195  0.85544  1.0000
  H   H14       1.0  0.08742  0.72805  0.14457  1.0000
  H   H15       1.0  0.91151  0.20554  0.99813  1.0000
  H   H16       1.0  0.08849  0.79446  0.00187  1.0000
  H   H17       1.0  0.17717  0.17510  0.74432  1.0000
  H   H18       1.0  0.82283  0.82491  0.25568  1.0000
  H   H19       1.0  0.43284  0.98764  0.73985  1.0000
  H   H20       1.0  0.56717  0.01236  0.26015  1.0000
  H   H21       1.0  0.41713  0.84984  0.06997  1.0000
  H   H22       1.0  0.58287  0.15015  0.93003  1.0000
  H   H23       1.0  0.16159  0.03222  0.08923  1.0000
  H   H24       1.0  0.83842  0.96778  0.91077  1.0000
  H   H25       1.0  0.14591  0.16890  0.46570  1.0000
  H   H26       1.0  0.85407  0.83112  0.53430  1.0000
  H   H27       1.0  0.93723  0.93561  0.34535  1.0000
  H   H28       1.0  0.06275  0.06440  0.65465  1.0000
  C   C1        1.0  0.33789  0.67488  0.83560  1.0000
  C   C2        1.0  0.66211  0.32512  0.16439  1.0000
  C   C3        1.0  0.22664  0.60521  0.82226  1.0000
  C   C4        1.0  0.77337  0.39479  0.17773  1.0000
  C   C5        1.0  0.30561  0.48067  0.83529  1.0000
  C   C6        1.0  0.69439  0.51933  0.16471  1.0000
  C   C7        1.0  0.49445  0.43208  0.86151  1.0000
  C   C8        1.0  0.50556  0.56792  0.13849  1.0000
  C   C9        1.0  0.59489  0.50755  0.87451  1.0000
  C   C10       1.0  0.40512  0.49244  0.12549  1.0000
  C   C11       1.0  0.19315  0.40007  0.82481  1.0000
  C   C12       1.0  0.80685  0.59993  0.17519  1.0000
  C   C13       1.0  0.99930  0.22911  0.92787  1.0000
  C   C14       1.0  0.00070  0.77089  0.07213  1.0000
  C   C15       1.0  0.15001  0.11882  0.91799  1.0000
  C   C16       1.0  0.84999  0.88118  0.08201  1.0000
  C   C17       1.0  0.22804  0.10582  0.81907  1.0000
  C   C18       1.0  0.77197  0.89418  0.18093  1.0000
  C   C19       1.0  0.36927  0.00090  0.81571  1.0000
  C   C20       1.0  0.63072  0.99910  0.18429  1.0000
  C   C21       1.0  0.35881  0.92364  0.99919  1.0000
  C   C22       1.0  0.64119  0.07636  0.00081  1.0000
  C   C23       1.0  0.21798  0.02435  0.01038  1.0000
  C   C24       1.0  0.78202  0.97564  0.98962  1.0000
  C   C25       1.0  0.09457  0.11983  0.28177  1.0000
  C   C26       1.0  0.90544  0.88017  0.71823  1.0000
  C   C27       1.0  0.04601  0.05804  0.39483  1.0000
  C   C28       1.0  0.95399  0.94197  0.60516  1.0000
  C   C29       1.0  0.08176  0.09480  0.48192  1.0000
  C   C30       1.0  0.91823  0.90520  0.51808  1.0000
  C   C31       1.0  0.96399  0.96274  0.41411  1.0000
  C   C32       1.0  0.03600  0.03728  0.58589  1.0000
  S   S1        1.0  0.08369  0.34692  0.95454  1.0000
  S   S2        1.0  0.91631  0.65307  0.04547  1.0000
  N   N1        1.0  0.51883  0.62728  0.86215  1.0000
  N   N2        1.0  0.48117  0.37272  0.13785  1.0000
  N   N3        1.0  0.43479  0.91067  0.90434  1.0000
  N   N4        1.0  0.56521  0.08933  0.09566  1.0000
  O   O1        1.0  0.20401  0.18674  0.27282  1.0000
  O   O2        1.0  0.79599  0.81326  0.72719  1.0000
  O   O3        1.0  0.02434  0.10318  0.20460  1.0000
  O   O4        1.0  0.97567  0.89681  0.79540  1.0000
