data_image0
_chemical_formula_structural       Cd4H20C20S4N20O16
_chemical_formula_sum              "Cd4 H20 C20 S4 N20 O16"
_cell_length_a       6.84969
_cell_length_b       11.1383
_cell_length_c       11.9332
_cell_angle_alpha    90
_cell_angle_beta     89.9999
_cell_angle_gamma    106.284

_space_group_name_H-M_alt    "P 1"
_space_group_IT_number       1

loop_
  _space_group_symop_operation_xyz
  'x, y, z'

loop_
  _atom_site_type_symbol
  _atom_site_label
  _atom_site_symmetry_multiplicity
  _atom_site_fract_x
  _atom_site_fract_y
  _atom_site_fract_z
  _atom_site_occupancy
  Cd  Cd1       1.0  0.27750  0.57131  0.12360  1.0000
  Cd  Cd2       1.0  0.72250  0.92869  0.62360  1.0000
  Cd  Cd3       1.0  0.72250  0.42869  0.87640  1.0000
  Cd  Cd4       1.0  0.27750  0.07131  0.37640  1.0000
  H   H1        1.0  0.18963  0.48623  0.67900  1.0000
  H   H2        1.0  0.81037  0.01377  0.17900  1.0000
  H   H3        1.0  0.81037  0.51377  0.32100  1.0000
  H   H4        1.0  0.18963  0.98623  0.82100  1.0000
  H   H5        1.0  0.28266  0.20013  0.60492  1.0000
  H   H6        1.0  0.71735  0.29987  0.10492  1.0000
  H   H7        1.0  0.71735  0.79987  0.39508  1.0000
  H   H8        1.0  0.28266  0.70013  0.89508  1.0000
  H   H9        1.0  0.26890  0.30426  0.71465  1.0000
  H   H10       1.0  0.73111  0.19574  0.21466  1.0000
  H   H11       1.0  0.73111  0.69574  0.28534  1.0000
  H   H12       1.0  0.26889  0.80426  0.78535  1.0000
  H   H13       1.0  0.31093  0.27715  0.18572  1.0000
  H   H14       1.0  0.68907  0.22285  0.68573  1.0000
  H   H15       1.0  0.68907  0.72285  0.81427  1.0000
  H   H16       1.0  0.31093  0.77715  0.31428  1.0000
  H   H17       1.0  0.21769  0.66567  0.56992  1.0000
  H   H18       1.0  0.78231  0.83433  0.06992  1.0000
  H   H19       1.0  0.78231  0.33433  0.43008  1.0000
  H   H20       1.0  0.21769  0.16567  0.93008  1.0000
  C   C1        1.0  0.29921  0.32683  0.26283  1.0000
  C   C2        1.0  0.70078  0.17317  0.76283  1.0000
  C   C3        1.0  0.70079  0.67317  0.73717  1.0000
  C   C4        1.0  0.29921  0.82683  0.23717  1.0000
  C   C5        1.0  0.26747  0.47178  0.37576  1.0000
  C   C6        1.0  0.73253  0.02822  0.87576  1.0000
  C   C7        1.0  0.73253  0.52822  0.62424  1.0000
  C   C8        1.0  0.26747  0.97178  0.12424  1.0000
  C   C9        1.0  0.23184  0.58185  0.52711  1.0000
  C   C10       1.0  0.76816  0.91815  0.02711  1.0000
  C   C11       1.0  0.76817  0.41815  0.47289  1.0000
  C   C12       1.0  0.23184  0.08185  0.97289  1.0000
  C   C13       1.0  0.25182  0.37008  0.55656  1.0000
  C   C14       1.0  0.74818  0.12992  0.05656  1.0000
  C   C15       1.0  0.74818  0.62992  0.44344  1.0000
  C   C16       1.0  0.25182  0.87008  0.94344  1.0000
  C   C17       1.0  0.26856  0.36460  0.43860  1.0000
  C   C18       1.0  0.73144  0.13540  0.93860  1.0000
  C   C19       1.0  0.73144  0.63540  0.56140  1.0000
  C   C20       1.0  0.26855  0.86460  0.06140  1.0000
  S   S1        1.0  0.22084  0.44183  0.90037  1.0000
  S   S2        1.0  0.77916  0.05817  0.40037  1.0000
  S   S3        1.0  0.77916  0.55817  0.09963  1.0000
  S   S4        1.0  0.22084  0.94183  0.59964  1.0000
  N   N1        1.0  0.28735  0.44593  0.26520  1.0000
  N   N2        1.0  0.71264  0.05407  0.76521  1.0000
  N   N3        1.0  0.71265  0.55407  0.73479  1.0000
  N   N4        1.0  0.28735  0.94593  0.23479  1.0000
  N   N5        1.0  0.29047  0.27373  0.36485  1.0000
  N   N6        1.0  0.70953  0.22627  0.86485  1.0000
  N   N7        1.0  0.70953  0.72627  0.63515  1.0000
  N   N8        1.0  0.29047  0.77373  0.13515  1.0000
  N   N9        1.0  0.25249  0.58233  0.41785  1.0000
  N   N10       1.0  0.74751  0.91767  0.91785  1.0000
  N   N11       1.0  0.74751  0.41767  0.58215  1.0000
  N   N12       1.0  0.25249  0.08233  0.08215  1.0000
  N   N13       1.0  0.22912  0.48233  0.59447  1.0000
  N   N14       1.0  0.77088  0.01767  0.09447  1.0000
  N   N15       1.0  0.77088  0.51767  0.40553  1.0000
  N   N16       1.0  0.22912  0.98233  0.90553  1.0000
  N   N17       1.0  0.25757  0.28290  0.63042  1.0000
  N   N18       1.0  0.74243  0.21710  0.13042  1.0000
  N   N19       1.0  0.74243  0.71710  0.36958  1.0000
  N   N20       1.0  0.25757  0.78290  0.86958  1.0000
  O   O1        1.0  0.10168  0.38666  0.00059  1.0000
  O   O2        1.0  0.89832  0.11334  0.50060  1.0000
  O   O3        1.0  0.89832  0.61334  0.99940  1.0000
  O   O4        1.0  0.10168  0.88666  0.49941  1.0000
  O   O5        1.0  0.36490  0.56638  0.93391  1.0000
  O   O6        1.0  0.63510  0.93362  0.43391  1.0000
  O   O7        1.0  0.63510  0.43362  0.06609  1.0000
  O   O8        1.0  0.36490  0.06638  0.56609  1.0000
  O   O9        1.0  0.34084  0.35904  0.85560  1.0000
  O   O10       1.0  0.65916  0.14096  0.35560  1.0000
  O   O11       1.0  0.65917  0.64096  0.14440  1.0000
  O   O12       1.0  0.34084  0.85904  0.64440  1.0000
  O   O13       1.0  0.08354  0.46339  0.80931  1.0000
  O   O14       1.0  0.91646  0.03661  0.30931  1.0000
  O   O15       1.0  0.91646  0.53661  0.19069  1.0000
  O   O16       1.0  0.08354  0.96339  0.69069  1.0000
