data_image0
_chemical_formula_structural       Cd4H10C4S4N10O16
_chemical_formula_sum              "Cd4 H10 C4 S4 N10 O16"
_cell_length_a       6.76102
_cell_length_b       9.2228
_cell_length_c       9.79637
_cell_angle_alpha    65.0913
_cell_angle_beta     72.3218
_cell_angle_gamma    71.1965

_space_group_name_H-M_alt    "P 1"
_space_group_IT_number       1

loop_
  _space_group_symop_operation_xyz
  'x, y, z'

loop_
  _atom_site_type_symbol
  _atom_site_label
  _atom_site_symmetry_multiplicity
  _atom_site_fract_x
  _atom_site_fract_y
  _atom_site_fract_z
  _atom_site_occupancy
  Cd  Cd1       1.0  0.86723  0.78043  0.60664  1.0000
  Cd  Cd2       1.0  0.13277  0.21957  0.39336  1.0000
  Cd  Cd3       1.0  0.32330  0.39876  0.65828  1.0000
  Cd  Cd4       1.0  0.67671  0.60123  0.34172  1.0000
  H   H1        1.0  0.74395  0.49234  0.92655  1.0000
  H   H2        1.0  0.25605  0.50767  0.07345  1.0000
  H   H3        1.0  0.68459  0.46320  0.11864  1.0000
  H   H4        1.0  0.31538  0.53680  0.88136  1.0000
  H   H5        1.0  0.74492  0.12040  0.02208  1.0000
  H   H6        1.0  0.25508  0.87960  0.97793  1.0000
  H   H7        1.0  0.67791  0.97325  0.20264  1.0000
  H   H8        1.0  0.32210  0.02675  0.79736  1.0000
  H   H9        1.0  0.87283  0.02517  0.78381  1.0000
  H   H10       1.0  0.12718  0.97483  0.21619  1.0000
  C   C1        1.0  0.75883  0.68390  0.97948  1.0000
  C   C2        1.0  0.24118  0.31610  0.02052  1.0000
  C   C3        1.0  0.76033  0.89768  0.02123  1.0000
  C   C4        1.0  0.23967  0.10232  0.97877  1.0000
  S   S1        1.0  0.63871  0.19016  0.42635  1.0000
  S   S2        1.0  0.36129  0.80984  0.57364  1.0000
  S   S3        1.0  0.17246  0.62748  0.30309  1.0000
  S   S4        1.0  0.82755  0.37252  0.69692  1.0000
  N   N1        1.0  0.81230  0.79360  0.84049  1.0000
  N   N2        1.0  0.18770  0.20640  0.15951  1.0000
  N   N3        1.0  0.72649  0.74358  0.09359  1.0000
  N   N4        1.0  0.27351  0.25642  0.90641  1.0000
  N   N5        1.0  0.81082  0.92979  0.86897  1.0000
  N   N6        1.0  0.18918  0.07021  0.13103  1.0000
  N   N7        1.0  0.74096  0.53218  0.00954  1.0000
  N   N8        1.0  0.25904  0.46782  0.99046  1.0000
  N   N9        1.0  0.74760  0.00004  0.08971  1.0000
  N   N10       1.0  0.25240  0.99996  0.91029  1.0000
  O   O1        1.0  0.80027  0.03452  0.43209  1.0000
  O   O2        1.0  0.19972  0.96547  0.56790  1.0000
  O   O3        1.0  0.49582  0.22879  0.32116  1.0000
  O   O4        1.0  0.50418  0.77123  0.67883  1.0000
  O   O5        1.0  0.02956  0.76651  0.34932  1.0000
  O   O6        1.0  0.97044  0.23349  0.65069  1.0000
  O   O7        1.0  0.04409  0.50454  0.33781  1.0000
  O   O8        1.0  0.95591  0.49546  0.66219  1.0000
  O   O9        1.0  0.76416  0.32161  0.36145  1.0000
  O   O10       1.0  0.23584  0.67839  0.63856  1.0000
  O   O11       1.0  0.51502  0.17781  0.58405  1.0000
  O   O12       1.0  0.48498  0.82219  0.41595  1.0000
  O   O13       1.0  0.26898  0.68243  0.13971  1.0000
  O   O14       1.0  0.73102  0.31757  0.86030  1.0000
  O   O15       1.0  0.34525  0.53934  0.39590  1.0000
  O   O16       1.0  0.65476  0.46066  0.60411  1.0000
