data_image0
_chemical_formula_structural       H32Pb2C44Br4N4
_chemical_formula_sum              "H32 Pb2 C44 Br4 N4"
_cell_length_a       4.27843
_cell_length_b       16.1177
_cell_length_c       16.2271
_cell_angle_alpha    117.531
_cell_angle_beta     97.6193
_cell_angle_gamma    89.9794

_space_group_name_H-M_alt    "P 1"
_space_group_IT_number       1

loop_
  _space_group_symop_operation_xyz
  'x, y, z'

loop_
  _atom_site_type_symbol
  _atom_site_label
  _atom_site_symmetry_multiplicity
  _atom_site_fract_x
  _atom_site_fract_y
  _atom_site_fract_z
  _atom_site_occupancy
  H   H1        1.0  0.78867  0.90539  0.93492  1.0000
  H   H2        1.0  0.85427  0.59513  0.06514  1.0000
  H   H3        1.0  0.21127  0.09460  0.06505  1.0000
  H   H4        1.0  0.14555  0.40494  0.93490  1.0000
  H   H5        1.0  0.74257  0.96818  0.82265  1.0000
  H   H6        1.0  0.92044  0.53198  0.17711  1.0000
  H   H7        1.0  0.25797  0.03188  0.17739  1.0000
  H   H8        1.0  0.07960  0.46803  0.82288  1.0000
  H   H9        1.0  0.28344  0.74017  0.65078  1.0000
  H   H10       1.0  0.63357  0.75985  0.34957  1.0000
  H   H11       1.0  0.71667  0.25980  0.34922  1.0000
  H   H12       1.0  0.36654  0.24013  0.65042  1.0000
  H   H13       1.0  0.30006  0.68639  0.77139  1.0000
  H   H14       1.0  0.52985  0.81389  0.22915  1.0000
  H   H15       1.0  0.69980  0.31356  0.22858  1.0000
  H   H16       1.0  0.47037  0.18608  0.77082  1.0000
  H   H17       1.0  0.79812  0.02923  0.74594  1.0000
  H   H18       1.0  0.05021  0.47105  0.25419  1.0000
  H   H19       1.0  0.20202  0.97078  0.25406  1.0000
  H   H20       1.0  0.94951  0.52898  0.74584  1.0000
  H   H21       1.0  0.79544  0.09537  0.63991  1.0000
  H   H22       1.0  0.15387  0.40490  0.36026  1.0000
  H   H23       1.0  0.20437  0.90462  0.36009  1.0000
  H   H24       1.0  0.84590  0.59514  0.63978  1.0000
  H   H25       1.0  0.20044  0.84899  0.44380  1.0000
  H   H26       1.0  0.75740  0.65088  0.55619  1.0000
  H   H27       1.0  0.79932  0.15101  0.55616  1.0000
  H   H28       1.0  0.24272  0.34910  0.44377  1.0000
  H   H29       1.0  0.20366  0.78254  0.54998  1.0000
  H   H30       1.0  0.65422  0.71737  0.45003  1.0000
  H   H31       1.0  0.79655  0.21748  0.45001  1.0000
  H   H32       1.0  0.34582  0.28261  0.54993  1.0000
  Pb  Pb1       1.0  0.07940  0.74986  0.99994  1.0000
  Pb  Pb2       1.0  0.92036  0.25010  0.00009  1.0000
  C   C1        1.0  0.89503  0.87046  0.87062  1.0000
  C   C2        1.0  0.02511  0.62991  0.12948  1.0000
  C   C3        1.0  0.10502  0.12953  0.12938  1.0000
  C   C4        1.0  0.97489  0.37011  0.87052  1.0000
  C   C5        1.0  0.87144  0.90564  0.80669  1.0000
  C   C6        1.0  0.06560  0.59450  0.19320  1.0000
  C   C7        1.0  0.12885  0.09438  0.19331  1.0000
  C   C8        1.0  0.93451  0.40548  0.80678  1.0000
  C   C9        1.0  0.01090  0.86083  0.72452  1.0000
  C   C10       1.0  0.28693  0.63925  0.27553  1.0000
  C   C11       1.0  0.98933  0.13918  0.27548  1.0000
  C   C12       1.0  0.71307  0.36075  0.72446  1.0000
  C   C13       1.0  0.16488  0.77928  0.71169  1.0000
  C   C14       1.0  0.45399  0.72083  0.28859  1.0000
  C   C15       1.0  0.83529  0.22072  0.28831  1.0000
  C   C16       1.0  0.54608  0.27917  0.71142  1.0000
  C   C17       1.0  0.17660  0.74843  0.77916  1.0000
  C   C18       1.0  0.39836  0.75185  0.22124  1.0000
  C   C19       1.0  0.82342  0.25155  0.22084  1.0000
  C   C20       1.0  0.60177  0.24813  0.77876  1.0000
  C   C21       1.0  0.00149  0.89969  0.65786  1.0000
  C   C22       1.0  0.34333  0.60035  0.34219  1.0000
  C   C23       1.0  0.99870  0.10032  0.34215  1.0000
  C   C24       1.0  0.65662  0.39964  0.65780  1.0000
  C   C25       1.0  0.88654  0.98827  0.67971  1.0000
  C   C26       1.0  0.20557  0.51191  0.32038  1.0000
  C   C27       1.0  0.11350  0.01173  0.32029  1.0000
  C   C28       1.0  0.79433  0.48811  0.67963  1.0000
  C   C29       1.0  0.88608  0.02647  0.61864  1.0000
  C   C30       1.0  0.26636  0.47369  0.38145  1.0000
  C   C31       1.0  0.11378  0.97353  0.38135  1.0000
  C   C32       1.0  0.73350  0.52633  0.61857  1.0000
  C   C33       1.0  0.99892  0.97898  0.53195  1.0000
  C   C34       1.0  0.46668  0.52104  0.46805  1.0000
  C   C35       1.0  0.00096  0.02102  0.46803  1.0000
  C   C36       1.0  0.53322  0.47898  0.53195  1.0000
  C   C37       1.0  0.10992  0.88975  0.50971  1.0000
  C   C38       1.0  0.60044  0.61022  0.49030  1.0000
  C   C39       1.0  0.88992  0.11026  0.49026  1.0000
  C   C40       1.0  0.39952  0.38979  0.50969  1.0000
  C   C41       1.0  0.11213  0.85146  0.57095  1.0000
  C   C42       1.0  0.54129  0.64853  0.42909  1.0000
  C   C43       1.0  0.88795  0.14855  0.42904  1.0000
  C   C44       1.0  0.45868  0.35148  0.57091  1.0000
  Br  Br1       1.0  0.61152  0.89445  0.09815  1.0000
  Br  Br2       1.0  0.51314  0.60522  0.90165  1.0000
  Br  Br3       1.0  0.38823  0.10552  0.90182  1.0000
  Br  Br4       1.0  0.48677  0.39471  0.09849  1.0000
  N   N1        1.0  0.04548  0.79312  0.85801  1.0000
  N   N2        1.0  0.18811  0.70736  0.14237  1.0000
  N   N3        1.0  0.95439  0.20684  0.14197  1.0000
  N   N4        1.0  0.81190  0.29266  0.85764  1.0000
