data_image0
_chemical_formula_structural       CoH20C26N2O10
_chemical_formula_sum              "Co1 H20 C26 N2 O10"
_cell_length_a       6.62912
_cell_length_b       8.47777
_cell_length_c       11.0978
_cell_angle_alpha    91.0073
_cell_angle_beta     104.667
_cell_angle_gamma    84.5302

_space_group_name_H-M_alt    "P 1"
_space_group_IT_number       1

loop_
  _space_group_symop_operation_xyz
  'x, y, z'

loop_
  _atom_site_type_symbol
  _atom_site_label
  _atom_site_symmetry_multiplicity
  _atom_site_fract_x
  _atom_site_fract_y
  _atom_site_fract_z
  _atom_site_occupancy
  Co  Co1       1.0  0.49999  0.50000  1.00000  1.0000
  H   H1        1.0  0.81884  0.61607  0.01921  1.0000
  H   H2        1.0  0.18114  0.38391  0.98079  1.0000
  H   H3        1.0  0.81312  0.56463  0.16079  1.0000
  H   H4        1.0  0.18685  0.43537  0.83920  1.0000
  H   H5        1.0  0.36674  0.58343  0.69255  1.0000
  H   H6        1.0  0.63328  0.41657  0.30746  1.0000
  H   H7        1.0  0.63935  0.82432  0.04399  1.0000
  H   H8        1.0  0.36062  0.17568  0.95599  1.0000
  H   H9        1.0  0.57017  0.04804  0.17584  1.0000
  H   H10       1.0  0.42982  0.95195  0.82414  1.0000
  H   H11       1.0  0.07766  0.79839  0.25563  1.0000
  H   H12       1.0  0.92234  0.20161  0.74438  1.0000
  H   H13       1.0  0.16838  0.58466  0.12118  1.0000
  H   H14       1.0  0.83159  0.41534  0.87883  1.0000
  H   H15       1.0  0.29901  0.46126  0.38675  1.0000
  H   H16       1.0  0.70102  0.53874  0.61325  1.0000
  H   H17       1.0  0.18025  0.08818  0.60921  1.0000
  H   H18       1.0  0.81978  0.91183  0.39080  1.0000
  H   H19       1.0  0.23006  0.89249  0.44836  1.0000
  H   H20       1.0  0.76998  0.10751  0.55165  1.0000
  C   C1        1.0  0.51637  0.82239  0.09282  1.0000
  C   C2        1.0  0.48360  0.17760  0.90717  1.0000
  C   C3        1.0  0.47455  0.94866  0.16670  1.0000
  C   C4        1.0  0.52544  0.05134  0.83329  1.0000
  C   C5        1.0  0.31927  0.94362  0.23185  1.0000
  C   C6        1.0  0.68073  0.05638  0.76814  1.0000
  C   C7        1.0  0.20577  0.80986  0.21225  1.0000
  C   C8        1.0  0.79423  0.19014  0.78776  1.0000
  C   C9        1.0  0.25569  0.68828  0.13676  1.0000
  C   C10       1.0  0.74429  0.31172  0.86325  1.0000
  C   C11       1.0  0.28273  0.06584  0.32206  1.0000
  C   C12       1.0  0.71729  0.93416  0.67794  1.0000
  C   C13       1.0  0.30213  0.22828  0.30554  1.0000
  C   C14       1.0  0.69788  0.77172  0.69447  1.0000
  C   C15       1.0  0.28169  0.33660  0.39889  1.0000
  C   C16       1.0  0.71834  0.66339  0.60112  1.0000
  C   C17       1.0  0.23632  0.28694  0.50803  1.0000
  C   C18       1.0  0.76371  0.71306  0.49197  1.0000
  C   C19       1.0  0.21168  0.12680  0.52331  1.0000
  C   C20       1.0  0.78835  0.87320  0.47670  1.0000
  C   C21       1.0  0.23732  0.01804  0.43223  1.0000
  C   C22       1.0  0.76270  0.98196  0.56778  1.0000
  C   C23       1.0  0.22949  0.39673  0.61290  1.0000
  C   C24       1.0  0.77051  0.60327  0.38711  1.0000
  C   C25       1.0  0.32685  0.28933  0.18397  1.0000
  C   C26       1.0  0.67315  0.71067  0.81603  1.0000
  N   N1        1.0  0.41323  0.69021  0.07968  1.0000
  N   N2        1.0  0.58674  0.30978  0.92032  1.0000
  O   O1        1.0  0.79274  0.52715  0.07272  1.0000
  O   O2        1.0  0.20724  0.47284  0.92728  1.0000
  O   O3        1.0  0.48855  0.36284  0.18393  1.0000
  O   O4        1.0  0.51144  0.63716  0.81606  1.0000
  O   O5        1.0  0.18246  0.26626  0.08861  1.0000
  O   O6        1.0  0.81753  0.73373  0.91139  1.0000
  O   O7        1.0  0.15961  0.35807  0.70104  1.0000
  O   O8        1.0  0.84037  0.64195  0.29894  1.0000
  O   O9        1.0  0.30962  0.53254  0.60604  1.0000
  O   O10       1.0  0.69041  0.46747  0.39396  1.0000
