data_image0
_chemical_formula_structural       Zn2H32C20N20
_chemical_formula_sum              "Zn2 H32 C20 N20"
_cell_length_a       8.52063
_cell_length_b       8.88033
_cell_length_c       8.93688
_cell_angle_alpha    89.9995
_cell_angle_beta     90.0001
_cell_angle_gamma    95.9578

_space_group_name_H-M_alt    "P 1"
_space_group_IT_number       1

loop_
  _space_group_symop_operation_xyz
  'x, y, z'

loop_
  _atom_site_type_symbol
  _atom_site_label
  _atom_site_symmetry_multiplicity
  _atom_site_fract_x
  _atom_site_fract_y
  _atom_site_fract_z
  _atom_site_occupancy
  Zn  Zn1       1.0  0.24096  0.92622  0.16780  1.0000
  Zn  Zn2       1.0  0.75905  0.07378  0.66780  1.0000
  H   H1        1.0  0.80955  0.29450  0.48010  1.0000
  H   H2        1.0  0.19046  0.70550  0.98011  1.0000
  H   H3        1.0  0.75200  0.30146  0.84860  1.0000
  H   H4        1.0  0.24800  0.69854  0.34861  1.0000
  H   H5        1.0  0.94984  0.19974  0.31009  1.0000
  H   H6        1.0  0.05015  0.80026  0.81010  1.0000
  H   H7        1.0  0.60188  0.20103  0.02332  1.0000
  H   H8        1.0  0.39812  0.79897  0.52332  1.0000
  H   H9        1.0  0.50722  0.32380  0.62186  1.0000
  H   H10       1.0  0.49278  0.67621  0.12186  1.0000
  H   H11       1.0  0.65910  0.46363  0.67907  1.0000
  H   H12       1.0  0.34090  0.53637  0.17907  1.0000
  H   H13       1.0  0.05037  0.33776  0.71363  1.0000
  H   H14       1.0  0.94964  0.66224  0.21364  1.0000
  H   H15       1.0  0.93056  0.47143  0.63693  1.0000
  H   H16       1.0  0.06944  0.52857  0.13694  1.0000
  H   H17       1.0  0.52291  0.50291  0.91579  1.0000
  H   H18       1.0  0.47709  0.49709  0.41579  1.0000
  H   H19       1.0  0.36469  0.48549  0.78779  1.0000
  H   H20       1.0  0.63531  0.51451  0.28780  1.0000
  H   H21       1.0  0.08733  0.49773  0.41055  1.0000
  H   H22       1.0  0.91267  0.50226  0.91056  1.0000
  H   H23       1.0  0.23580  0.48729  0.54845  1.0000
  H   H24       1.0  0.76419  0.51271  0.04846  1.0000
  H   H25       1.0  0.30308  0.21564  0.84415  1.0000
  H   H26       1.0  0.69692  0.78436  0.34416  1.0000
  H   H27       1.0  0.35112  0.28911  0.02438  1.0000
  H   H28       1.0  0.64888  0.71089  0.52439  1.0000
  H   H29       1.0  0.24128  0.21414  0.50565  1.0000
  H   H30       1.0  0.75872  0.78586  0.00566  1.0000
  H   H31       1.0  0.22189  0.28093  0.32061  1.0000
  H   H32       1.0  0.77811  0.71908  0.82062  1.0000
  C   C1        1.0  0.00156  0.01766  0.44952  1.0000
  C   C2        1.0  0.99844  0.98233  0.94952  1.0000
  C   C3        1.0  0.50311  0.02015  0.88545  1.0000
  C   C4        1.0  0.49689  0.97985  0.38545  1.0000
  C   C5        1.0  0.99981  0.18346  0.42177  1.0000
  C   C6        1.0  0.00019  0.81654  0.92177  1.0000
  C   C7        1.0  0.54308  0.18556  0.91398  1.0000
  C   C8        1.0  0.45691  0.81444  0.41398  1.0000
  C   C9        1.0  0.57182  0.37325  0.71954  1.0000
  C   C10       1.0  0.42818  0.62675  0.21954  1.0000
  C   C11       1.0  0.00143  0.37884  0.60926  1.0000
  C   C12       1.0  0.99857  0.62116  0.10927  1.0000
  C   C13       1.0  0.45855  0.42517  0.83613  1.0000
  C   C14       1.0  0.54144  0.57483  0.33613  1.0000
  C   C15       1.0  0.13201  0.42471  0.49649  1.0000
  C   C16       1.0  0.86799  0.57529  0.99650  1.0000
  C   C17       1.0  0.39756  0.27602  0.91152  1.0000
  C   C18       1.0  0.60244  0.72398  0.41152  1.0000
  C   C19       1.0  0.16513  0.27252  0.43053  1.0000
  C   C20       1.0  0.83487  0.72748  0.93054  1.0000
  N   N1        1.0  0.91696  0.94397  0.55858  1.0000
  N   N2        1.0  0.08304  0.05603  0.05858  1.0000
  N   N3        1.0  0.57169  0.94655  0.77616  1.0000
  N   N4        1.0  0.42831  0.05345  0.27616  1.0000
  N   N5        1.0  0.39331  0.92525  0.95411  1.0000
  N   N6        1.0  0.60669  0.07475  0.45412  1.0000
  N   N7        1.0  0.08798  0.92199  0.37829  1.0000
  N   N8        1.0  0.91202  0.07801  0.87829  1.0000
  N   N9        1.0  0.90079  0.25272  0.53662  1.0000
  N   N10       1.0  0.09921  0.74728  0.03662  1.0000
  N   N11       1.0  0.50138  0.80308  0.77570  1.0000
  N   N12       1.0  0.49861  0.19693  0.27570  1.0000
  N   N13       1.0  0.39494  0.79065  0.88199  1.0000
  N   N14       1.0  0.60506  0.20935  0.38198  1.0000
  N   N15       1.0  0.95319  0.79935  0.55618  1.0000
  N   N16       1.0  0.04681  0.20065  0.05617  1.0000
  N   N17       1.0  0.05532  0.78660  0.44849  1.0000
  N   N18       1.0  0.94468  0.21340  0.94848  1.0000
  N   N19       1.0  0.65262  0.25364  0.79493  1.0000
  N   N20       1.0  0.34738  0.74636  0.29493  1.0000
