data_image0
_chemical_formula_structural       Na4Zn4H8C12O28
_chemical_formula_sum              "Na4 Zn4 H8 C12 O28"
_cell_length_a       5.95535
_cell_length_b       7.04225
_cell_length_c       15.5061
_cell_angle_alpha    89.9954
_cell_angle_beta     89.9984
_cell_angle_gamma    100.252

_space_group_name_H-M_alt    "P 1"
_space_group_IT_number       1

loop_
  _space_group_symop_operation_xyz
  'x, y, z'

loop_
  _atom_site_type_symbol
  _atom_site_label
  _atom_site_symmetry_multiplicity
  _atom_site_fract_x
  _atom_site_fract_y
  _atom_site_fract_z
  _atom_site_occupancy
  Na  Na1       1.0  0.02755  0.68979  0.81704  1.0000
  Na  Na2       1.0  0.97241  0.81027  0.31706  1.0000
  Na  Na3       1.0  0.97247  0.31023  0.18295  1.0000
  Na  Na4       1.0  0.02758  0.18969  0.68297  1.0000
  Zn  Zn1       1.0  0.22707  0.29099  0.90091  1.0000
  Zn  Zn2       1.0  0.77294  0.20905  0.40092  1.0000
  Zn  Zn3       1.0  0.77294  0.70908  0.09909  1.0000
  Zn  Zn4       1.0  0.22705  0.79089  0.59908  1.0000
  H   H1        1.0  0.33111  0.63742  0.97478  1.0000
  H   H2        1.0  0.66884  0.86259  0.47477  1.0000
  H   H3        1.0  0.66894  0.36265  0.02522  1.0000
  H   H4        1.0  0.33116  0.13738  0.52523  1.0000
  H   H5        1.0  0.45191  0.64327  0.87978  1.0000
  H   H6        1.0  0.54805  0.85682  0.37977  1.0000
  H   H7        1.0  0.54814  0.35680  0.12022  1.0000
  H   H8        1.0  0.45192  0.14315  0.62024  1.0000
  C   C1        1.0  0.70117  0.28698  0.84972  1.0000
  C   C2        1.0  0.29884  0.21302  0.34971  1.0000
  C   C3        1.0  0.29883  0.71300  0.15030  1.0000
  C   C4        1.0  0.70114  0.78690  0.65027  1.0000
  C   C5        1.0  0.54878  0.24910  0.76770  1.0000
  C   C6        1.0  0.45126  0.25089  0.26768  1.0000
  C   C7        1.0  0.45121  0.75094  0.23232  1.0000
  C   C8        1.0  0.54878  0.74915  0.73231  1.0000
  C   C9        1.0  0.00555  0.07262  0.03749  1.0000
  C   C10       1.0  0.99438  0.42737  0.53751  1.0000
  C   C11       1.0  0.99443  0.92741  0.96249  1.0000
  C   C12       1.0  0.00559  0.57257  0.46250  1.0000
  O   O1        1.0  0.11394  0.24279  0.02545  1.0000
  O   O2        1.0  0.88614  0.25716  0.52545  1.0000
  O   O3        1.0  0.88608  0.75722  0.97454  1.0000
  O   O4        1.0  0.11386  0.74277  0.47455  1.0000
  O   O5        1.0  0.90474  0.01271  0.10667  1.0000
  O   O6        1.0  0.09524  0.48723  0.60668  1.0000
  O   O7        1.0  0.09523  0.98732  0.89331  1.0000
  O   O8        1.0  0.90468  0.51271  0.39334  1.0000
  O   O9        1.0  0.31209  0.58827  0.91455  1.0000
  O   O10       1.0  0.68786  0.91179  0.41455  1.0000
  O   O11       1.0  0.68795  0.41181  0.08545  1.0000
  O   O12       1.0  0.31213  0.08816  0.58545  1.0000
  O   O13       1.0  0.63915  0.20494  0.69888  1.0000
  O   O14       1.0  0.36088  0.29500  0.19885  1.0000
  O   O15       1.0  0.36083  0.79508  0.30113  1.0000
  O   O16       1.0  0.63915  0.70502  0.80113  1.0000
  O   O17       1.0  0.91428  0.32893  0.83658  1.0000
  O   O18       1.0  0.08575  0.17108  0.33658  1.0000
  O   O19       1.0  0.08573  0.67109  0.16342  1.0000
  O   O20       1.0  0.91425  0.82889  0.66340  1.0000
  O   O21       1.0  0.59779  0.27442  0.92161  1.0000
  O   O22       1.0  0.40223  0.22563  0.42159  1.0000
  O   O23       1.0  0.40225  0.72560  0.07841  1.0000
  O   O24       1.0  0.59772  0.77427  0.57839  1.0000
  O   O25       1.0  0.34044  0.26570  0.77630  1.0000
  O   O26       1.0  0.65962  0.23438  0.27628  1.0000
  O   O27       1.0  0.65957  0.73438  0.22372  1.0000
  O   O28       1.0  0.34041  0.76563  0.72371  1.0000
