data_image0
_chemical_formula_structural       CaH24C18N4O8
_chemical_formula_sum              "Ca1 H24 C18 N4 O8"
_cell_length_a       6.27007
_cell_length_b       7.75976
_cell_length_c       11.657
_cell_angle_alpha    80.0729
_cell_angle_beta     79.1382
_cell_angle_gamma    68.1945

_space_group_name_H-M_alt    "P 1"
_space_group_IT_number       1

loop_
  _space_group_symop_operation_xyz
  'x, y, z'

loop_
  _atom_site_type_symbol
  _atom_site_label
  _atom_site_symmetry_multiplicity
  _atom_site_fract_x
  _atom_site_fract_y
  _atom_site_fract_z
  _atom_site_occupancy
  Ca  Ca1       1.0  0.00000  0.00000  0.50000  1.0000
  H   H1        1.0  0.17098  0.31433  0.48231  1.0000
  H   H2        1.0  0.82901  0.68566  0.51769  1.0000
  H   H3        1.0  0.93444  0.39489  0.42900  1.0000
  H   H4        1.0  0.06555  0.60511  0.57100  1.0000
  H   H5        1.0  0.83957  0.26260  0.72259  1.0000
  H   H6        1.0  0.16044  0.73740  0.27741  1.0000
  H   H7        1.0  0.11779  0.60644  0.96006  1.0000
  H   H8        1.0  0.88221  0.39358  0.03995  1.0000
  H   H9        1.0  0.09546  0.51796  0.76546  1.0000
  H   H10       1.0  0.90454  0.48204  0.23455  1.0000
  H   H11       1.0  0.49956  0.16107  0.36171  1.0000
  H   H12       1.0  0.50044  0.83894  0.63828  1.0000
  H   H13       1.0  0.92811  0.92561  0.13261  1.0000
  H   H14       1.0  0.07189  0.07438  0.86739  1.0000
  H   H15       1.0  0.75744  0.08411  0.02542  1.0000
  H   H16       1.0  0.24256  0.91588  0.97458  1.0000
  H   H17       1.0  0.71645  0.86716  0.08094  1.0000
  H   H18       1.0  0.28353  0.13284  0.91907  1.0000
  H   H19       1.0  0.23566  0.20727  0.25729  1.0000
  H   H20       1.0  0.76433  0.79274  0.74270  1.0000
  H   H21       1.0  0.29087  0.02330  0.17069  1.0000
  H   H22       1.0  0.70913  0.97671  0.82931  1.0000
  H   H23       1.0  0.31563  0.24075  0.10123  1.0000
  H   H24       1.0  0.68437  0.75926  0.89876  1.0000
  C   C1        1.0  0.46673  0.38238  0.72897  1.0000
  C   C2        1.0  0.53328  0.61762  0.27103  1.0000
  C   C3        1.0  0.67596  0.33954  0.77316  1.0000
  C   C4        1.0  0.32405  0.66046  0.22684  1.0000
  C   C5        1.0  0.48990  0.47803  0.94214  1.0000
  C   C6        1.0  0.51012  0.52197  0.05786  1.0000
  C   C7        1.0  0.27275  0.53054  0.90401  1.0000
  C   C8        1.0  0.72727  0.46947  0.09599  1.0000
  C   C9        1.0  0.26174  0.48213  0.79640  1.0000
  C   C10       1.0  0.73827  0.51787  0.20361  1.0000
  C   C11       1.0  0.46330  0.31657  0.61534  1.0000
  C   C12       1.0  0.53669  0.68342  0.38466  1.0000
  C   C13       1.0  0.64668  0.08880  0.29829  1.0000
  C   C14       1.0  0.35333  0.91121  0.70171  1.0000
  C   C15       1.0  0.75704  0.98216  0.10362  1.0000
  C   C16       1.0  0.24296  0.01783  0.89638  1.0000
  C   C17       1.0  0.34316  0.13978  0.18056  1.0000
  C   C18       1.0  0.65683  0.86022  0.81944  1.0000
  N   N1        1.0  0.68920  0.38538  0.87643  1.0000
  N   N2        1.0  0.31081  0.61462  0.12356  1.0000
  N   N3        1.0  0.58560  0.07137  0.19794  1.0000
  N   N4        1.0  0.41440  0.92863  0.80206  1.0000
  O   O1        1.0  0.63579  0.18088  0.57827  1.0000
  O   O2        1.0  0.36422  0.81912  0.42172  1.0000
  O   O3        1.0  0.07433  0.27940  0.43715  1.0000
  O   O4        1.0  0.92567  0.72060  0.56284  1.0000
  O   O5        1.0  0.28219  0.39953  0.56533  1.0000
  O   O6        1.0  0.71779  0.60045  0.43469  1.0000
  O   O7        1.0  0.85150  0.02991  0.32059  1.0000
  O   O8        1.0  0.14847  0.97009  0.67941  1.0000
