data_image0
_chemical_formula_structural       Mn4H40C48N16O20
_chemical_formula_sum              "Mn4 H40 C48 N16 O20"
_cell_length_a       7.83421
_cell_length_b       11.4739
_cell_length_c       16.5588
_cell_angle_alpha    89.9996
_cell_angle_beta     89.9999
_cell_angle_gamma    98.8646

_space_group_name_H-M_alt    "P 1"
_space_group_IT_number       1

loop_
  _space_group_symop_operation_xyz
  'x, y, z'

loop_
  _atom_site_type_symbol
  _atom_site_label
  _atom_site_symmetry_multiplicity
  _atom_site_fract_x
  _atom_site_fract_y
  _atom_site_fract_z
  _atom_site_occupancy
  Mn  Mn1       1.0  0.53368  0.26781  0.70749  1.0000
  Mn  Mn2       1.0  0.96633  0.23219  0.20748  1.0000
  Mn  Mn3       1.0  0.46633  0.73219  0.29252  1.0000
  Mn  Mn4       1.0  0.03365  0.76781  0.79252  1.0000
  H   H1        1.0  0.89789  0.13746  0.65586  1.0000
  H   H2        1.0  0.60211  0.36254  0.15586  1.0000
  H   H3        1.0  0.10211  0.86253  0.34415  1.0000
  H   H4        1.0  0.39787  0.63747  0.84414  1.0000
  H   H5        1.0  0.69583  0.09929  0.51997  1.0000
  H   H6        1.0  0.80418  0.40072  0.01997  1.0000
  H   H7        1.0  0.30418  0.90072  0.48003  1.0000
  H   H8        1.0  0.19581  0.59928  0.98003  1.0000
  H   H9        1.0  0.66849  0.84952  0.77700  1.0000
  H   H10       1.0  0.83151  0.65048  0.27701  1.0000
  H   H11       1.0  0.33149  0.15048  0.22299  1.0000
  H   H12       1.0  0.16850  0.34952  0.72299  1.0000
  H   H13       1.0  0.82148  0.20921  0.83356  1.0000
  H   H14       1.0  0.67853  0.29079  0.33356  1.0000
  H   H15       1.0  0.17852  0.79079  0.16644  1.0000
  H   H16       1.0  0.32149  0.70921  0.66645  1.0000
  H   H17       1.0  0.86507  0.97872  0.87095  1.0000
  H   H18       1.0  0.63493  0.52127  0.37095  1.0000
  H   H19       1.0  0.13491  0.02127  0.12905  1.0000
  H   H20       1.0  0.36509  0.47873  0.62905  1.0000
  H   H21       1.0  0.49503  0.97268  0.68377  1.0000
  H   H22       1.0  0.00498  0.52732  0.18377  1.0000
  H   H23       1.0  0.50497  0.02733  0.31623  1.0000
  H   H24       1.0  0.99503  0.47267  0.81623  1.0000
  H   H25       1.0  0.82860  0.68683  0.63450  1.0000
  H   H26       1.0  0.67139  0.81318  0.13450  1.0000
  H   H27       1.0  0.17139  0.31318  0.36550  1.0000
  H   H28       1.0  0.32861  0.18681  0.86550  1.0000
  H   H29       1.0  0.71398  0.53968  0.74351  1.0000
  H   H30       1.0  0.78600  0.96032  0.24351  1.0000
  H   H31       1.0  0.28601  0.46032  0.25649  1.0000
  H   H32       1.0  0.21400  0.03967  0.75649  1.0000
  H   H33       1.0  0.64891  0.35750  0.52140  1.0000
  H   H34       1.0  0.85109  0.14251  0.02140  1.0000
  H   H35       1.0  0.35108  0.64250  0.47860  1.0000
  H   H36       1.0  0.14891  0.85750  0.97861  1.0000
  H   H37       1.0  0.79802  0.59127  0.49307  1.0000
  H   H38       1.0  0.70199  0.90874  0.99307  1.0000
  H   H39       1.0  0.20198  0.40873  0.50693  1.0000
  H   H40       1.0  0.29801  0.09126  0.00693  1.0000
  C   C1        1.0  0.27090  0.19517  0.61205  1.0000
  C   C2        1.0  0.22910  0.30483  0.11204  1.0000
  C   C3        1.0  0.72910  0.80483  0.38796  1.0000
  C   C4        1.0  0.77089  0.69517  0.88795  1.0000
  C   C5        1.0  0.10832  0.16864  0.56734  1.0000
  C   C6        1.0  0.39168  0.33136  0.06734  1.0000
  C   C7        1.0  0.89168  0.83134  0.43266  1.0000
  C   C8        1.0  0.60832  0.66866  0.93266  1.0000
  C   C9        1.0  0.93956  0.14220  0.59338  1.0000
  C   C10       1.0  0.56045  0.35780  0.09338  1.0000
  C   C11       1.0  0.06044  0.85779  0.40662  1.0000
  C   C12       1.0  0.43955  0.64221  0.90662  1.0000
  C   C13       1.0  0.83536  0.12174  0.52329  1.0000
  C   C14       1.0  0.66465  0.37826  0.02329  1.0000
  C   C15       1.0  0.16464  0.87826  0.47671  1.0000
  C   C16       1.0  0.33535  0.62174  0.97671  1.0000
  C   C17       1.0  0.94639  0.13862  0.45826  1.0000
  C   C18       1.0  0.55362  0.36138  0.95826  1.0000
  C   C19       1.0  0.05362  0.86139  0.54174  1.0000
  C   C20       1.0  0.44638  0.63862  0.04174  1.0000
  C   C21       1.0  0.91252  0.13970  0.37070  1.0000
  C   C22       1.0  0.58749  0.36030  0.87070  1.0000
  C   C23       1.0  0.08749  0.86030  0.62930  1.0000
  C   C24       1.0  0.41252  0.63970  0.12930  1.0000
  C   C25       1.0  0.76124  0.12589  0.80806  1.0000
  C   C26       1.0  0.73877  0.37410  0.30806  1.0000
  C   C27       1.0  0.23876  0.87410  0.19194  1.0000
  C   C28       1.0  0.26124  0.62590  0.69194  1.0000
  C   C29       1.0  0.78223  0.01283  0.82749  1.0000
  C   C30       1.0  0.71778  0.48716  0.32749  1.0000
  C   C31       1.0  0.21777  0.98717  0.17251  1.0000
  C   C32       1.0  0.28223  0.51283  0.67251  1.0000
  C   C33       1.0  0.59153  0.00737  0.72828  1.0000
  C   C34       1.0  0.90848  0.49263  0.22828  1.0000
  C   C35       1.0  0.40847  0.99263  0.27172  1.0000
  C   C36       1.0  0.09153  0.50737  0.77172  1.0000
  C   C37       1.0  0.71576  0.52012  0.67960  1.0000
  C   C38       1.0  0.78423  0.97989  0.17960  1.0000
  C   C39       1.0  0.28423  0.47988  0.32040  1.0000
  C   C40       1.0  0.21577  0.02011  0.82041  1.0000
  C   C41       1.0  0.68569  0.42987  0.56300  1.0000
  C   C42       1.0  0.81431  0.07014  0.06300  1.0000
  C   C43       1.0  0.31431  0.57013  0.43700  1.0000
  C   C44       1.0  0.18569  0.92986  0.93700  1.0000
  C   C45       1.0  0.75724  0.54494  0.54833  1.0000
  C   C46       1.0  0.74276  0.95507  0.04833  1.0000
  C   C47       1.0  0.24276  0.45507  0.45167  1.0000
  C   C48       1.0  0.25724  0.04493  0.95167  1.0000
  N   N1        1.0  0.64129  0.12155  0.74599  1.0000
  N   N2        1.0  0.85872  0.37845  0.24598  1.0000
  N   N3        1.0  0.35872  0.87846  0.25401  1.0000
  N   N4        1.0  0.14129  0.62155  0.75402  1.0000
  N   N5        1.0  0.67424  0.94000  0.77691  1.0000
  N   N6        1.0  0.82577  0.56000  0.27691  1.0000
  N   N7        1.0  0.32575  0.06000  0.22309  1.0000
  N   N8        1.0  0.17424  0.44000  0.72309  1.0000
  N   N9        1.0  0.66062  0.41511  0.64563  1.0000
  N   N10       1.0  0.83938  0.08489  0.14562  1.0000
  N   N11       1.0  0.33938  0.58489  0.35437  1.0000
  N   N12       1.0  0.16062  0.91511  0.85438  1.0000
  N   N13       1.0  0.77405  0.60012  0.62250  1.0000
  N   N14       1.0  0.72594  0.89989  0.12250  1.0000
  N   N15       1.0  0.22595  0.39989  0.37750  1.0000
  N   N16       1.0  0.27406  0.10011  0.87750  1.0000
  O   O1        1.0  0.25770  0.21983  0.68838  1.0000
  O   O2        1.0  0.24229  0.28017  0.18838  1.0000
  O   O3        1.0  0.74229  0.78016  0.31162  1.0000
  O   O4        1.0  0.75769  0.71983  0.81161  1.0000
  O   O5        1.0  0.41628  0.19637  0.57902  1.0000
  O   O6        1.0  0.08373  0.30363  0.07900  1.0000
  O   O7        1.0  0.58373  0.80363  0.42100  1.0000
  O   O8        1.0  0.91626  0.69638  0.92098  1.0000
  O   O9        1.0  0.11413  0.16703  0.48456  1.0000
  O   O10       1.0  0.38588  0.33296  0.98455  1.0000
  O   O11       1.0  0.88587  0.83297  0.51545  1.0000
  O   O12       1.0  0.61412  0.66704  0.01544  1.0000
  O   O13       1.0  0.04070  0.18492  0.32489  1.0000
  O   O14       1.0  0.45931  0.31508  0.82490  1.0000
  O   O15       1.0  0.95932  0.81508  0.67511  1.0000
  O   O16       1.0  0.54069  0.68492  0.17510  1.0000
  O   O17       1.0  0.76345  0.10176  0.34562  1.0000
  O   O18       1.0  0.73656  0.39824  0.84562  1.0000
  O   O19       1.0  0.23656  0.89824  0.65439  1.0000
  O   O20       1.0  0.26345  0.60176  0.15438  1.0000
