data_image0
_chemical_formula_structural       Mg4H48C48N8O28
_chemical_formula_sum              "Mg4 H48 C48 N8 O28"
_cell_length_a       7.43567
_cell_length_b       11.9737
_cell_length_c       14.8617
_cell_angle_alpha    90
_cell_angle_beta     97.1057
_cell_angle_gamma    90

_space_group_name_H-M_alt    "P 1"
_space_group_IT_number       1

loop_
  _space_group_symop_operation_xyz
  'x, y, z'

loop_
  _atom_site_type_symbol
  _atom_site_label
  _atom_site_symmetry_multiplicity
  _atom_site_fract_x
  _atom_site_fract_y
  _atom_site_fract_z
  _atom_site_occupancy
  Mg  Mg1       1.0  0.77913  0.94523  0.78660  1.0000
  Mg  Mg2       1.0  0.72087  0.44523  0.21340  1.0000
  Mg  Mg3       1.0  0.22088  0.05477  0.21340  1.0000
  Mg  Mg4       1.0  0.27912  0.55477  0.78660  1.0000
  H   H1        1.0  0.09766  0.93132  0.73422  1.0000
  H   H2        1.0  0.40234  0.43132  0.26578  1.0000
  H   H3        1.0  0.90234  0.06868  0.26578  1.0000
  H   H4        1.0  0.59766  0.56868  0.73422  1.0000
  H   H5        1.0  0.13522  0.91210  0.83852  1.0000
  H   H6        1.0  0.36478  0.41210  0.16148  1.0000
  H   H7        1.0  0.86478  0.08790  0.16149  1.0000
  H   H8        1.0  0.63522  0.58790  0.83852  1.0000
  H   H9        1.0  0.43033  0.94972  0.71349  1.0000
  H   H10       1.0  0.06967  0.44972  0.28651  1.0000
  H   H11       1.0  0.56967  0.05028  0.28651  1.0000
  H   H12       1.0  0.93033  0.55028  0.71349  1.0000
  H   H13       1.0  0.43392  0.88422  0.80957  1.0000
  H   H14       1.0  0.06608  0.38422  0.19043  1.0000
  H   H15       1.0  0.56608  0.11578  0.19043  1.0000
  H   H16       1.0  0.93392  0.61578  0.80957  1.0000
  H   H17       1.0  0.90201  0.82228  0.65714  1.0000
  H   H18       1.0  0.59798  0.32228  0.34286  1.0000
  H   H19       1.0  0.09798  0.17772  0.34286  1.0000
  H   H20       1.0  0.40202  0.67772  0.65714  1.0000
  H   H21       1.0  0.72278  0.75499  0.67427  1.0000
  H   H22       1.0  0.77723  0.25498  0.32573  1.0000
  H   H23       1.0  0.27722  0.24502  0.32573  1.0000
  H   H24       1.0  0.22278  0.74502  0.67427  1.0000
  H   H25       1.0  0.73553  0.06286  0.97626  1.0000
  H   H26       1.0  0.76446  0.56286  0.02374  1.0000
  H   H27       1.0  0.26447  0.93714  0.02374  1.0000
  H   H28       1.0  0.23553  0.43714  0.97626  1.0000
  H   H29       1.0  0.78045  0.41778  0.93996  1.0000
  H   H30       1.0  0.71955  0.91778  0.06004  1.0000
  H   H31       1.0  0.21955  0.58222  0.06004  1.0000
  H   H32       1.0  0.28045  0.08222  0.93996  1.0000
  H   H33       1.0  0.83073  0.38233  0.78095  1.0000
  H   H34       1.0  0.66927  0.88233  0.21905  1.0000
  H   H35       1.0  0.16928  0.61767  0.21905  1.0000
  H   H36       1.0  0.33073  0.11767  0.78095  1.0000
  H   H37       1.0  0.92079  0.33738  0.65868  1.0000
  H   H38       1.0  0.57921  0.83738  0.34132  1.0000
  H   H39       1.0  0.07921  0.66262  0.34132  1.0000
  H   H40       1.0  0.42079  0.16262  0.65868  1.0000
  H   H41       1.0  0.92092  0.28308  0.49782  1.0000
  H   H42       1.0  0.57908  0.78308  0.50219  1.0000
  H   H43       1.0  0.07908  0.71692  0.50218  1.0000
  H   H44       1.0  0.42092  0.21692  0.49782  1.0000
  H   H45       1.0  0.71600  0.96082  0.56458  1.0000
  H   H46       1.0  0.78400  0.46082  0.43542  1.0000
  H   H47       1.0  0.28400  0.03918  0.43542  1.0000
  H   H48       1.0  0.21600  0.53918  0.56458  1.0000
  C   C1        1.0  0.75700  0.13538  0.93467  1.0000
  C   C2        1.0  0.74299  0.63538  0.06533  1.0000
  C   C3        1.0  0.24300  0.86462  0.06533  1.0000
  C   C4        1.0  0.25700  0.36461  0.93467  1.0000
  C   C5        1.0  0.75408  0.24323  0.97115  1.0000
  C   C6        1.0  0.74591  0.74323  0.02885  1.0000
  C   C7        1.0  0.24591  0.75677  0.02885  1.0000
  C   C8        1.0  0.25409  0.25677  0.97115  1.0000
  C   C9        1.0  0.78298  0.33269  0.91453  1.0000
  C   C10       1.0  0.71701  0.83269  0.08547  1.0000
  C   C11       1.0  0.21702  0.66731  0.08547  1.0000
  C   C12       1.0  0.28298  0.16731  0.91453  1.0000
  C   C13       1.0  0.81179  0.31233  0.82536  1.0000
  C   C14       1.0  0.68821  0.81233  0.17464  1.0000
  C   C15       1.0  0.18821  0.68767  0.17464  1.0000
  C   C16       1.0  0.31179  0.18767  0.82536  1.0000
  C   C17       1.0  0.80999  0.20217  0.79402  1.0000
  C   C18       1.0  0.69001  0.70217  0.20598  1.0000
  C   C19       1.0  0.19002  0.79783  0.20598  1.0000
  C   C20       1.0  0.30999  0.29783  0.79402  1.0000
  C   C21       1.0  0.82523  0.17512  0.69812  1.0000
  C   C22       1.0  0.67477  0.67512  0.30188  1.0000
  C   C23       1.0  0.17477  0.82488  0.30188  1.0000
  C   C24       1.0  0.32523  0.32488  0.69812  1.0000
  C   C25       1.0  0.88004  0.25348  0.63707  1.0000
  C   C26       1.0  0.61996  0.75348  0.36293  1.0000
  C   C27       1.0  0.11996  0.74652  0.36293  1.0000
  C   C28       1.0  0.38004  0.24652  0.63707  1.0000
  C   C29       1.0  0.87798  0.22373  0.54654  1.0000
  C   C30       1.0  0.62202  0.72373  0.45346  1.0000
  C   C31       1.0  0.12202  0.77627  0.45346  1.0000
  C   C32       1.0  0.37798  0.27627  0.54654  1.0000
  C   C33       1.0  0.81327  0.11831  0.51780  1.0000
  C   C34       1.0  0.68673  0.61831  0.48220  1.0000
  C   C35       1.0  0.18672  0.88169  0.48220  1.0000
  C   C36       1.0  0.31328  0.38169  0.51780  1.0000
  C   C37       1.0  0.76444  0.04432  0.58353  1.0000
  C   C38       1.0  0.73556  0.54432  0.41647  1.0000
  C   C39       1.0  0.23556  0.95568  0.41647  1.0000
  C   C40       1.0  0.26444  0.45568  0.58353  1.0000
  C   C41       1.0  0.71615  0.26093  0.06743  1.0000
  C   C42       1.0  0.78385  0.76093  0.93257  1.0000
  C   C43       1.0  0.28385  0.73907  0.93257  1.0000
  C   C44       1.0  0.21615  0.23907  0.06743  1.0000
  C   C45       1.0  0.78612  0.08622  0.41958  1.0000
  C   C46       1.0  0.71388  0.58622  0.58042  1.0000
  C   C47       1.0  0.21388  0.91378  0.58042  1.0000
  C   C48       1.0  0.28613  0.41378  0.41958  1.0000
  N   N1        1.0  0.78284  0.11470  0.84883  1.0000
  N   N2        1.0  0.71716  0.61470  0.15117  1.0000
  N   N3        1.0  0.21717  0.88530  0.15117  1.0000
  N   N4        1.0  0.28284  0.38530  0.84883  1.0000
  N   N5        1.0  0.77521  0.07022  0.67150  1.0000
  N   N6        1.0  0.72479  0.57021  0.32850  1.0000
  N   N7        1.0  0.22479  0.92979  0.32850  1.0000
  N   N8        1.0  0.27521  0.42978  0.67150  1.0000
  O   O1        1.0  0.70506  0.36141  0.09361  1.0000
  O   O2        1.0  0.79494  0.86141  0.90639  1.0000
  O   O3        1.0  0.29494  0.63859  0.90639  1.0000
  O   O4        1.0  0.20506  0.13859  0.09361  1.0000
  O   O5        1.0  0.69639  0.17406  0.11432  1.0000
  O   O6        1.0  0.80360  0.67406  0.88568  1.0000
  O   O7        1.0  0.30361  0.82594  0.88568  1.0000
  O   O8        1.0  0.19639  0.32593  0.11432  1.0000
  O   O9        1.0  0.88309  0.13724  0.36603  1.0000
  O   O10       1.0  0.61691  0.63724  0.63397  1.0000
  O   O11       1.0  0.11691  0.86276  0.63397  1.0000
  O   O12       1.0  0.38309  0.36276  0.36603  1.0000
  O   O13       1.0  0.66531  0.01576  0.39368  1.0000
  O   O14       1.0  0.83469  0.51576  0.60632  1.0000
  O   O15       1.0  0.33469  0.98424  0.60632  1.0000
  O   O16       1.0  0.16532  0.48425  0.39368  1.0000
  O   O17       1.0  0.06009  0.95818  0.79261  1.0000
  O   O18       1.0  0.43991  0.45818  0.20739  1.0000
  O   O19       1.0  0.93991  0.04182  0.20739  1.0000
  O   O20       1.0  0.56009  0.54182  0.79261  1.0000
  O   O21       1.0  0.50336  0.93386  0.77298  1.0000
  O   O22       1.0  0.99664  0.43386  0.22702  1.0000
  O   O23       1.0  0.49664  0.06614  0.22702  1.0000
  O   O24       1.0  0.00336  0.56614  0.77298  1.0000
  O   O25       1.0  0.79129  0.82520  0.68742  1.0000
  O   O26       1.0  0.70870  0.32520  0.31258  1.0000
  O   O27       1.0  0.20870  0.17480  0.31258  1.0000
  O   O28       1.0  0.29130  0.67480  0.68742  1.0000
