data_image0
_chemical_formula_structural       NiH36C40N4O10
_chemical_formula_sum              "Ni1 H36 C40 N4 O10"
_cell_length_a       7.44521
_cell_length_b       7.89722
_cell_length_c       15.9563
_cell_angle_alpha    89.3389
_cell_angle_beta     78.4737
_cell_angle_gamma    69.8268

_space_group_name_H-M_alt    "P 1"
_space_group_IT_number       1

loop_
  _space_group_symop_operation_xyz
  'x, y, z'

loop_
  _atom_site_type_symbol
  _atom_site_label
  _atom_site_symmetry_multiplicity
  _atom_site_fract_x
  _atom_site_fract_y
  _atom_site_fract_z
  _atom_site_occupancy
  Ni  Ni1       1.0  0.00000  0.99999  1.00000  1.0000
  H   H1        1.0  0.06196  0.28868  0.02574  1.0000
  H   H2        1.0  0.93805  0.71132  0.97426  1.0000
  H   H3        1.0  0.06061  0.41735  0.09693  1.0000
  H   H4        1.0  0.93940  0.58264  0.90308  1.0000
  H   H5        1.0  0.88363  0.57907  0.46435  1.0000
  H   H6        1.0  0.11637  0.42093  0.53565  1.0000
  H   H7        1.0  0.00273  0.64669  0.25490  1.0000
  H   H8        1.0  0.99726  0.35332  0.74510  1.0000
  H   H9        1.0  0.72952  0.46340  0.33689  1.0000
  H   H10       1.0  0.27048  0.53660  0.66310  1.0000
  H   H11       1.0  0.57975  0.33660  0.38519  1.0000
  H   H12       1.0  0.42025  0.66340  0.61481  1.0000
  H   H13       1.0  0.51985  0.56066  0.42194  1.0000
  H   H14       1.0  0.48016  0.43934  0.57806  1.0000
  H   H15       1.0  0.67988  0.69096  0.07793  1.0000
  H   H16       1.0  0.32012  0.30904  0.92208  1.0000
  H   H17       1.0  0.52080  0.64426  0.01880  1.0000
  H   H18       1.0  0.47921  0.35575  0.98120  1.0000
  H   H19       1.0  0.70882  0.46654  0.05512  1.0000
  H   H20       1.0  0.29119  0.53346  0.94488  1.0000
  H   H21       1.0  0.58870  0.06307  0.02490  1.0000
  H   H22       1.0  0.41131  0.93691  0.97510  1.0000
  H   H23       1.0  0.32352  0.07105  0.14679  1.0000
  H   H24       1.0  0.67648  0.92893  0.85321  1.0000
  H   H25       1.0  0.72618  0.04672  0.31282  1.0000
  H   H26       1.0  0.27381  0.95328  0.68718  1.0000
  H   H27       1.0  0.96745  0.05736  0.18299  1.0000
  H   H28       1.0  0.03255  0.94263  0.81701  1.0000
  H   H29       1.0  0.10260  0.20031  0.26895  1.0000
  H   H30       1.0  0.89739  0.79969  0.73106  1.0000
  H   H31       1.0  0.86378  0.17412  0.39215  1.0000
  H   H32       1.0  0.13622  0.82588  0.60785  1.0000
  H   H33       1.0  0.33127  0.85403  0.51178  1.0000
  H   H34       1.0  0.66874  0.14598  0.48822  1.0000
  H   H35       1.0  0.56892  0.87845  0.38859  1.0000
  H   H36       1.0  0.43108  0.12155  0.61141  1.0000
  C   C1        1.0  0.46670  0.59957  0.15457  1.0000
  C   C2        1.0  0.53330  0.40043  0.84543  1.0000
  C   C3        1.0  0.26251  0.64347  0.16577  1.0000
  C   C4        1.0  0.73749  0.35653  0.83422  1.0000
  C   C5        1.0  0.15953  0.61943  0.24522  1.0000
  C   C6        1.0  0.84047  0.38057  0.75478  1.0000
  C   C7        1.0  0.25632  0.56124  0.31247  1.0000
  C   C8        1.0  0.74368  0.43877  0.68753  1.0000
  C   C9        1.0  0.46023  0.52683  0.29714  1.0000
  C   C10       1.0  0.53976  0.47318  0.70286  1.0000
  C   C11       1.0  0.14415  0.53834  0.39616  1.0000
  C   C12       1.0  0.85585  0.46166  0.60384  1.0000
  C   C13       1.0  0.14563  0.71829  0.09903  1.0000
  C   C14       1.0  0.85436  0.28170  0.90097  1.0000
  C   C15       1.0  0.58029  0.46926  0.36408  1.0000
  C   C16       1.0  0.41971  0.53075  0.63591  1.0000
  C   C17       1.0  0.59790  0.60207  0.07112  1.0000
  C   C18       1.0  0.40211  0.39793  0.92888  1.0000
  C   C19       1.0  0.61137  0.06052  0.09017  1.0000
  C   C20       1.0  0.38863  0.93947  0.90983  1.0000
  C   C21       1.0  0.46425  0.06353  0.15972  1.0000
  C   C22       1.0  0.53575  0.93646  0.84028  1.0000
  C   C23       1.0  0.50189  0.05188  0.24283  1.0000
  C   C24       1.0  0.49811  0.94812  0.75717  1.0000
  C   C25       1.0  0.68734  0.05026  0.25043  1.0000
  C   C26       1.0  0.31265  0.94974  0.74958  1.0000
  C   C27       1.0  0.82498  0.05413  0.17853  1.0000
  C   C28       1.0  0.17502  0.94586  0.82147  1.0000
  C   C29       1.0  0.35584  0.04028  0.31812  1.0000
  C   C30       1.0  0.64416  0.95972  0.68188  1.0000
  C   C31       1.0  0.15387  0.12106  0.32150  1.0000
  C   C32       1.0  0.84612  0.87894  0.67850  1.0000
  C   C33       1.0  0.01783  0.10590  0.39212  1.0000
  C   C34       1.0  0.98216  0.89410  0.60788  1.0000
  C   C35       1.0  0.07380  0.00895  0.46294  1.0000
  C   C36       1.0  0.92620  0.99106  0.53707  1.0000
  C   C37       1.0  0.27662  0.93094  0.45941  1.0000
  C   C38       1.0  0.72338  0.06906  0.54059  1.0000
  C   C39       1.0  0.41369  0.94618  0.38916  1.0000
  C   C40       1.0  0.58631  0.05382  0.61084  1.0000
  N   N1        1.0  0.79143  0.05129  0.09848  1.0000
  N   N2        1.0  0.20857  0.94870  0.90152  1.0000
  N   N3        1.0  0.55904  0.54397  0.21968  1.0000
  N   N4        1.0  0.44096  0.45604  0.78032  1.0000
  O   O1        1.0  0.09159  0.28747  0.08315  1.0000
  O   O2        1.0  0.90841  0.71253  0.91685  1.0000
  O   O3        1.0  0.17607  0.85754  0.06337  1.0000
  O   O4        1.0  0.82393  0.14245  0.93663  1.0000
  O   O5        1.0  0.02068  0.65509  0.08531  1.0000
  O   O6        1.0  0.97932  0.34490  0.91469  1.0000
  O   O7        1.0  0.95216  0.60818  0.40501  1.0000
  O   O8        1.0  0.04784  0.39182  0.59499  1.0000
  O   O9        1.0  0.22627  0.45777  0.45389  1.0000
  O   O10       1.0  0.77373  0.54223  0.54611  1.0000
