data_image0
_chemical_formula_structural       Na4B8H56C12N4O4
_chemical_formula_sum              "Na4 B8 H56 C12 N4 O4"
_cell_length_a       8.16894
_cell_length_b       9.78577
_cell_length_c       10.5302
_cell_angle_alpha    91.4701
_cell_angle_beta     97.9582
_cell_angle_gamma    114.078

_space_group_name_H-M_alt    "P 1"
_space_group_IT_number       1

loop_
  _space_group_symop_operation_xyz
  'x, y, z'

loop_
  _atom_site_type_symbol
  _atom_site_label
  _atom_site_symmetry_multiplicity
  _atom_site_fract_x
  _atom_site_fract_y
  _atom_site_fract_z
  _atom_site_occupancy
  Na  Na1       1.0  0.45681  0.30272  0.02476  1.0000
  Na  Na2       1.0  0.54319  0.69728  0.97524  1.0000
  Na  Na3       1.0  0.41310  0.00787  0.65200  1.0000
  Na  Na4       1.0  0.58690  0.99213  0.34800  1.0000
  B   B1        1.0  0.62410  0.23018  0.83954  1.0000
  B   B2        1.0  0.37590  0.76982  0.16046  1.0000
  B   B3        1.0  0.63031  0.50150  0.84446  1.0000
  B   B4        1.0  0.36968  0.49850  0.15554  1.0000
  B   B5        1.0  0.64389  0.26604  0.25148  1.0000
  B   B6        1.0  0.35611  0.73396  0.74852  1.0000
  B   B7        1.0  0.51757  0.21261  0.47138  1.0000
  B   B8        1.0  0.48243  0.78739  0.52862  1.0000
  H   H1        1.0  0.45689  0.17806  0.82235  1.0000
  H   H2        1.0  0.54311  0.82194  0.17765  1.0000
  H   H3        1.0  0.68424  0.24648  0.95421  1.0000
  H   H4        1.0  0.31576  0.75352  0.04579  1.0000
  H   H5        1.0  0.67676  0.14736  0.78488  1.0000
  H   H6        1.0  0.32324  0.85264  0.21512  1.0000
  H   H7        1.0  0.46364  0.44624  0.82726  1.0000
  H   H8        1.0  0.53636  0.55376  0.17274  1.0000
  H   H9        1.0  0.69099  0.52543  0.96048  1.0000
  H   H10       1.0  0.30901  0.47457  0.03952  1.0000
  H   H11       1.0  0.68919  0.62230  0.79640  1.0000
  H   H12       1.0  0.31081  0.37770  0.20360  1.0000
  H   H13       1.0  0.64132  0.36739  0.68718  1.0000
  H   H14       1.0  0.35868  0.63261  0.31282  1.0000
  H   H15       1.0  0.94530  0.56274  0.74912  1.0000
  H   H16       1.0  0.05470  0.43726  0.25088  1.0000
  H   H17       1.0  0.93790  0.37673  0.74187  1.0000
  H   H18       1.0  0.06210  0.62327  0.25813  1.0000
  H   H19       1.0  0.95953  0.47385  0.89286  1.0000
  H   H20       1.0  0.04046  0.52615  0.10714  1.0000
  H   H21       1.0  0.92589  0.11075  0.86799  1.0000
  H   H22       1.0  0.07411  0.88925  0.13201  1.0000
  H   H23       1.0  0.03724  0.25670  0.99694  1.0000
  H   H24       1.0  0.96276  0.74330  0.00306  1.0000
  H   H25       1.0  0.25407  0.95162  0.95676  1.0000
  H   H26       1.0  0.74593  0.04838  0.04323  1.0000
  H   H27       1.0  0.05890  0.92880  0.84240  1.0000
  H   H28       1.0  0.94110  0.07120  0.15760  1.0000
  H   H29       1.0  0.76641  0.22998  0.29344  1.0000
  H   H30       1.0  0.23359  0.77002  0.70656  1.0000
  H   H31       1.0  0.51148  0.15716  0.19478  1.0000
  H   H32       1.0  0.48851  0.84284  0.80521  1.0000
  H   H33       1.0  0.70275  0.36558  0.18064  1.0000
  H   H34       1.0  0.29725  0.63442  0.81936  1.0000
  H   H35       1.0  0.47600  0.35164  0.32794  1.0000
  H   H36       1.0  0.52400  0.64836  0.67205  1.0000
  H   H37       1.0  0.68213  0.52031  0.50565  1.0000
  H   H38       1.0  0.31787  0.47969  0.49435  1.0000
  H   H39       1.0  0.76638  0.55317  0.35572  1.0000
  H   H40       1.0  0.23362  0.44683  0.64428  1.0000
  H   H41       1.0  0.84601  0.45349  0.47054  1.0000
  H   H42       1.0  0.15399  0.54651  0.52946  1.0000
  H   H43       1.0  0.39585  0.09481  0.41869  1.0000
  H   H44       1.0  0.60415  0.90519  0.58131  1.0000
  H   H45       1.0  0.64841  0.19071  0.52293  1.0000
  H   H46       1.0  0.35159  0.80929  0.47707  1.0000
  H   H47       1.0  0.45757  0.26210  0.55340  1.0000
  H   H48       1.0  0.54242  0.73790  0.44660  1.0000
  H   H49       1.0  0.02595  0.76601  0.53014  1.0000
  H   H50       1.0  0.97405  0.23399  0.46986  1.0000
  H   H51       1.0  0.84848  0.81460  0.57082  1.0000
  H   H52       1.0  0.15152  0.18540  0.42918  1.0000
  H   H53       1.0  0.93751  0.07533  0.65244  1.0000
  H   H54       1.0  0.06249  0.92466  0.34756  1.0000
  H   H55       1.0  0.17416  0.19963  0.66728  1.0000
  H   H56       1.0  0.82585  0.80037  0.33272  1.0000
  C   C1        1.0  0.89649  0.45467  0.79128  1.0000
  C   C2        1.0  0.10351  0.54533  0.20872  1.0000
  C   C3        1.0  0.99784  0.13758  0.96824  1.0000
  C   C4        1.0  0.00216  0.86242  0.03176  1.0000
  C   C5        1.0  0.12379  0.96128  0.94410  1.0000
  C   C6        1.0  0.87621  0.03872  0.05589  1.0000
  C   C7        1.0  0.72762  0.47319  0.42887  1.0000
  C   C8        1.0  0.27238  0.52681  0.57113  1.0000
  C   C9        1.0  0.97419  0.85351  0.52840  1.0000
  C   C10       1.0  0.02582  0.14649  0.47160  1.0000
  C   C11       1.0  0.06092  0.10608  0.60767  1.0000
  C   C12       1.0  0.93908  0.89392  0.39233  1.0000
  N   N1        1.0  0.69672  0.38895  0.78335  1.0000
  N   N2        1.0  0.30328  0.61105  0.21665  1.0000
  N   N3        1.0  0.58302  0.32862  0.36871  1.0000
  N   N4        1.0  0.41698  0.67138  0.63129  1.0000
  O   O1        1.0  0.16356  0.11696  0.97588  1.0000
  O   O2        1.0  0.83644  0.88304  0.02411  1.0000
  O   O3        1.0  0.11248  0.98189  0.60732  1.0000
  O   O4        1.0  0.88752  0.01811  0.39268  1.0000
