data_image0
_chemical_formula_structural       Na2B4H44C16N2O4
_chemical_formula_sum              "Na2 B4 H44 C16 N2 O4"
_cell_length_a       7.52741
_cell_length_b       8.89143
_cell_length_c       10.042
_cell_angle_alpha    111.309
_cell_angle_beta     100.006
_cell_angle_gamma    101.661

_space_group_name_H-M_alt    "P 1"
_space_group_IT_number       1

loop_
  _space_group_symop_operation_xyz
  'x, y, z'

loop_
  _atom_site_type_symbol
  _atom_site_label
  _atom_site_symmetry_multiplicity
  _atom_site_fract_x
  _atom_site_fract_y
  _atom_site_fract_z
  _atom_site_occupancy
  Na  Na1       1.0  0.09245  0.14823  0.70071  1.0000
  Na  Na2       1.0  0.90755  0.85177  0.29930  1.0000
  B   B1        1.0  0.19163  0.88655  0.54630  1.0000
  B   B2        1.0  0.80836  0.11345  0.45369  1.0000
  B   B3        1.0  0.90470  0.38277  0.69825  1.0000
  B   B4        1.0  0.09530  0.61723  0.30175  1.0000
  H   H1        1.0  0.30111  0.96991  0.67073  1.0000
  H   H2        1.0  0.69889  0.03009  0.32927  1.0000
  H   H3        1.0  0.20127  0.97254  0.47490  1.0000
  H   H4        1.0  0.79873  0.02746  0.52510  1.0000
  H   H5        1.0  0.03076  0.84715  0.55755  1.0000
  H   H6        1.0  0.96924  0.15285  0.44245  1.0000
  H   H7        1.0  0.87845  0.30138  0.77306  1.0000
  H   H8        1.0  0.12155  0.69862  0.22694  1.0000
  H   H9        1.0  0.06463  0.40250  0.68350  1.0000
  H   H10       1.0  0.93536  0.59750  0.31650  1.0000
  H   H11       1.0  0.87728  0.51976  0.75751  1.0000
  H   H12       1.0  0.12272  0.48024  0.24248  1.0000
  H   H13       1.0  0.23909  0.48790  0.47463  1.0000
  H   H14       1.0  0.76091  0.51210  0.52537  1.0000
  H   H15       1.0  0.12643  0.60972  0.59571  1.0000
  H   H16       1.0  0.87357  0.39029  0.40429  1.0000
  H   H17       1.0  0.42534  0.79030  0.77177  1.0000
  H   H18       1.0  0.57466  0.20970  0.22823  1.0000
  H   H19       1.0  0.49442  0.60590  0.69326  1.0000
  H   H20       1.0  0.50558  0.39411  0.30674  1.0000
  H   H21       1.0  0.61675  0.92940  0.66825  1.0000
  H   H22       1.0  0.38325  0.07060  0.33175  1.0000
  H   H23       1.0  0.69166  0.75032  0.58652  1.0000
  H   H24       1.0  0.30834  0.24968  0.41348  1.0000
  H   H25       1.0  0.46719  0.85980  0.41255  1.0000
  H   H26       1.0  0.53281  0.14020  0.58745  1.0000
  H   H27       1.0  0.45098  0.64274  0.36046  1.0000
  H   H28       1.0  0.54902  0.35726  0.63954  1.0000
  H   H29       1.0  0.28062  0.45594  0.07504  1.0000
  H   H30       1.0  0.71937  0.54406  0.92497  1.0000
  H   H31       1.0  0.18335  0.51379  0.93133  1.0000
  H   H32       1.0  0.81665  0.48621  0.06867  1.0000
  H   H33       1.0  0.56146  0.24402  0.85324  1.0000
  H   H34       1.0  0.43854  0.75597  0.14676  1.0000
  H   H35       1.0  0.50391  0.29276  0.02760  1.0000
  H   H36       1.0  0.49609  0.70724  0.97240  1.0000
  H   H37       1.0  0.86312  0.79566  0.82075  1.0000
  H   H38       1.0  0.13688  0.20434  0.17925  1.0000
  H   H39       1.0  0.09201  0.83129  0.79057  1.0000
  H   H40       1.0  0.90800  0.16871  0.20943  1.0000
  H   H41       1.0  0.92166  0.24524  0.98931  1.0000
  H   H42       1.0  0.07835  0.75476  0.01069  1.0000
  H   H43       1.0  0.75954  0.04175  0.93664  1.0000
  H   H44       1.0  0.24046  0.95825  0.06336  1.0000
  C   C1        1.0  0.24807  0.61668  0.55011  1.0000
  C   C2        1.0  0.75193  0.38332  0.44989  1.0000
  C   C3        1.0  0.43919  0.70036  0.66772  1.0000
  C   C4        1.0  0.56081  0.29964  0.33228  1.0000
  C   C5        1.0  0.56635  0.79326  0.59901  1.0000
  C   C6        1.0  0.43365  0.20674  0.40099  1.0000
  C   C7        1.0  0.43893  0.75616  0.44739  1.0000
  C   C8        1.0  0.56107  0.24384  0.55261  1.0000
  C   C9        1.0  0.31143  0.49729  0.98827  1.0000
  C   C10       1.0  0.68857  0.50271  0.01173  1.0000
  C   C11       1.0  0.52878  0.34022  0.94287  1.0000
  C   C12       1.0  0.47122  0.65978  0.05713  1.0000
  C   C13       1.0  0.00941  0.87862  0.86780  1.0000
  C   C14       1.0  0.99059  0.12138  0.13220  1.0000
  C   C15       1.0  0.90956  0.11703  0.98140  1.0000
  C   C16       1.0  0.09045  0.88297  0.01860  1.0000
  N   N1        1.0  0.24175  0.71918  0.46072  1.0000
  N   N2        1.0  0.75825  0.28082  0.53927  1.0000
  O   O1        1.0  0.35855  0.36651  0.87718  1.0000
  O   O2        1.0  0.64146  0.63349  0.12282  1.0000
  O   O3        1.0  0.01244  0.04525  0.87866  1.0000
  O   O4        1.0  0.98756  0.95475  0.12134  1.0000
