data_image0
_chemical_formula_structural       Co2H44C64N8O10
_chemical_formula_sum              "Co2 H44 C64 N8 O10"
_cell_length_a       10.562
_cell_length_b       10.9605
_cell_length_c       13.1587
_cell_angle_alpha    113.459
_cell_angle_beta     91.0052
_cell_angle_gamma    96.8604

_space_group_name_H-M_alt    "P 1"
_space_group_IT_number       1

loop_
  _space_group_symop_operation_xyz
  'x, y, z'

loop_
  _atom_site_type_symbol
  _atom_site_label
  _atom_site_symmetry_multiplicity
  _atom_site_fract_x
  _atom_site_fract_y
  _atom_site_fract_z
  _atom_site_occupancy
  Co  Co1       1.0  0.41565  0.17299  0.25942  1.0000
  Co  Co2       1.0  0.58435  0.82702  0.74058  1.0000
  H   H1        1.0  0.65262  0.14565  0.11373  1.0000
  H   H2        1.0  0.34737  0.85435  0.88627  1.0000
  H   H3        1.0  0.65228  0.21466  0.93129  1.0000
  H   H4        1.0  0.34772  0.78534  0.06871  1.0000
  H   H5        1.0  0.28744  0.23856  0.06170  1.0000
  H   H6        1.0  0.71255  0.76143  0.93830  1.0000
  H   H7        1.0  0.52091  0.15038  0.76336  1.0000
  H   H8        1.0  0.47909  0.84962  0.23664  1.0000
  H   H9        1.0  0.45746  0.23403  0.62041  1.0000
  H   H10       1.0  0.54254  0.76597  0.37959  1.0000
  H   H11       1.0  0.24321  0.51181  0.86074  1.0000
  H   H12       1.0  0.75679  0.48817  0.13926  1.0000
  H   H13       1.0  0.31042  0.43278  0.00343  1.0000
  H   H14       1.0  0.68958  0.56721  0.99656  1.0000
  H   H15       1.0  0.85504  0.75706  0.71018  1.0000
  H   H16       1.0  0.14497  0.24294  0.28982  1.0000
  H   H17       1.0  0.50824  0.49534  0.59743  1.0000
  H   H18       1.0  0.49176  0.50467  0.40256  1.0000
  H   H19       1.0  0.70623  0.34278  0.55802  1.0000
  H   H20       1.0  0.29377  0.65722  0.44198  1.0000
  H   H21       1.0  0.88730  0.30193  0.60949  1.0000
  H   H22       1.0  0.11270  0.69807  0.39051  1.0000
  H   H23       1.0  0.10822  0.25336  0.62284  1.0000
  H   H24       1.0  0.89178  0.74663  0.37716  1.0000
  H   H25       1.0  0.25738  0.65676  0.66961  1.0000
  H   H26       1.0  0.74261  0.34323  0.33039  1.0000
  H   H27       1.0  0.03683  0.70566  0.65212  1.0000
  H   H28       1.0  0.96317  0.29433  0.34788  1.0000
  H   H29       1.0  0.63511  0.06096  0.56013  1.0000
  H   H30       1.0  0.36488  0.93904  0.43988  1.0000
  H   H31       1.0  0.83036  0.99940  0.61601  1.0000
  H   H32       1.0  0.16963  0.00060  0.38400  1.0000
  H   H33       1.0  0.00788  0.03050  0.33152  1.0000
  H   H34       1.0  0.99212  0.96951  0.66850  1.0000
  H   H35       1.0  0.80790  0.08838  0.27574  1.0000
  H   H36       1.0  0.19211  0.91162  0.72427  1.0000
  H   H37       1.0  0.22904  0.79870  0.24031  1.0000
  H   H38       1.0  0.77096  0.20132  0.75969  1.0000
  H   H39       1.0  0.13783  0.56109  0.16052  1.0000
  H   H40       1.0  0.86218  0.43892  0.83948  1.0000
  H   H41       1.0  0.92831  0.62587  0.90511  1.0000
  H   H42       1.0  0.07170  0.37414  0.09488  1.0000
  H   H43       1.0  0.01531  0.86525  0.99031  1.0000
  H   H44       1.0  0.98469  0.13476  0.00969  1.0000
  C   C1        1.0  0.57758  0.17615  0.07574  1.0000
  C   C2        1.0  0.42242  0.82384  0.92426  1.0000
  C   C3        1.0  0.57848  0.20900  0.98567  1.0000
  C   C4        1.0  0.42152  0.79099  0.01433  1.0000
  C   C5        1.0  0.38770  0.22674  0.05404  1.0000
  C   C6        1.0  0.61230  0.77326  0.94595  1.0000
  C   C7        1.0  0.41901  0.28640  0.89121  1.0000
  C   C8        1.0  0.58099  0.71360  0.10879  1.0000
  C   C9        1.0  0.46224  0.23138  0.78454  1.0000
  C   C10       1.0  0.53776  0.76861  0.21546  1.0000
  C   C11       1.0  0.42720  0.27746  0.70495  1.0000
  C   C12       1.0  0.57280  0.72254  0.29505  1.0000
  C   C13       1.0  0.34787  0.37749  0.73338  1.0000
  C   C14       1.0  0.65213  0.62250  0.26661  1.0000
  C   C15       1.0  0.30369  0.43255  0.83969  1.0000
  C   C16       1.0  0.69630  0.56744  0.16031  1.0000
  C   C17       1.0  0.34035  0.38730  0.91916  1.0000
  C   C18       1.0  0.65965  0.61269  0.08084  1.0000
  C   C19       1.0  0.78845  0.66615  0.66866  1.0000
  C   C20       1.0  0.21155  0.33385  0.33135  1.0000
  C   C21       1.0  0.61039  0.52736  0.61304  1.0000
  C   C22       1.0  0.38960  0.47265  0.38696  1.0000
  C   C23       1.0  0.70784  0.45051  0.59416  1.0000
  C   C24       1.0  0.29216  0.54949  0.40584  1.0000
  C   C25       1.0  0.94721  0.50837  0.63264  1.0000
  C   C26       1.0  0.05279  0.49163  0.36737  1.0000
  C   C27       1.0  0.96727  0.38035  0.62253  1.0000
  C   C28       1.0  0.03273  0.61964  0.37746  1.0000
  C   C29       1.0  0.09129  0.35233  0.62973  1.0000
  C   C30       1.0  0.90871  0.64766  0.37027  1.0000
  C   C31       1.0  0.19457  0.45246  0.64769  1.0000
  C   C32       1.0  0.80543  0.54753  0.35231  1.0000
  C   C33       1.0  0.17563  0.57976  0.65609  1.0000
  C   C34       1.0  0.82437  0.42023  0.34391  1.0000
  C   C35       1.0  0.05141  0.60710  0.64768  1.0000
  C   C36       1.0  0.94859  0.39290  0.35232  1.0000
  C   C37       1.0  0.58992  0.12658  0.38701  1.0000
  C   C38       1.0  0.41008  0.87342  0.61300  1.0000
  C   C39       1.0  0.71021  0.08586  0.41739  1.0000
  C   C40       1.0  0.28978  0.91414  0.58261  1.0000
  C   C41       1.0  0.71858  0.05827  0.51228  1.0000
  C   C42       1.0  0.28141  0.94174  0.48772  1.0000
  C   C43       1.0  0.83052  0.02282  0.54313  1.0000
  C   C44       1.0  0.16947  0.97718  0.45688  1.0000
  C   C45       1.0  0.93956  0.01600  0.48191  1.0000
  C   C46       1.0  0.06043  0.98400  0.51810  1.0000
  C   C47       1.0  0.92823  0.03941  0.38429  1.0000
  C   C48       1.0  0.07177  0.96060  0.61573  1.0000
  C   C49       1.0  0.81565  0.07270  0.35227  1.0000
  C   C50       1.0  0.18435  0.92730  0.64773  1.0000
  C   C51       1.0  0.19291  0.99000  0.16321  1.0000
  C   C52       1.0  0.80709  0.01001  0.83679  1.0000
  C   C53       1.0  0.12877  0.84781  0.12055  1.0000
  C   C54       1.0  0.87123  0.15221  0.87945  1.0000
  C   C55       1.0  0.16138  0.76024  0.16764  1.0000
  C   C56       1.0  0.83863  0.23977  0.83236  1.0000
  C   C57       1.0  0.11034  0.62550  0.12121  1.0000
  C   C58       1.0  0.88966  0.37451  0.87879  1.0000
  C   C59       1.0  0.02570  0.57221  0.02527  1.0000
  C   C60       1.0  0.97432  0.42780  0.97473  1.0000
  C   C61       1.0  0.99258  0.66199  0.97983  1.0000
  C   C62       1.0  0.00743  0.33802  0.02016  1.0000
  C   C63       1.0  0.04191  0.79750  0.02688  1.0000
  C   C64       1.0  0.95809  0.20251  0.97312  1.0000
  N   N1        1.0  0.45825  0.18799  0.11777  1.0000
  N   N2        1.0  0.54175  0.81201  0.88223  1.0000
  N   N3        1.0  0.45807  0.24120  0.97274  1.0000
  N   N4        1.0  0.54194  0.75880  0.02726  1.0000
  N   N5        1.0  0.82064  0.53962  0.63000  1.0000
  N   N6        1.0  0.17937  0.46038  0.37000  1.0000
  N   N7        1.0  0.66197  0.66175  0.66004  1.0000
  N   N8        1.0  0.33803  0.33825  0.33996  1.0000
  O   O1        1.0  0.58561  0.14015  0.29282  1.0000
  O   O2        1.0  0.41440  0.85986  0.70719  1.0000
  O   O3        1.0  0.49948  0.14714  0.44918  1.0000
  O   O4        1.0  0.50051  0.85286  0.55081  1.0000
  O   O5        1.0  0.29132  0.01682  0.23402  1.0000
  O   O6        1.0  0.70868  0.98320  0.76598  1.0000
  O   O7        1.0  0.15407  0.07225  0.13004  1.0000
  O   O8        1.0  0.84592  0.92777  0.86997  1.0000
  O   O9        1.0  0.31873  0.42512  0.65370  1.0000
  O   O10       1.0  0.68128  0.57487  0.34630  1.0000
