data_image0
_chemical_formula_structural       Ag4H32C36S4N12O12
_chemical_formula_sum              "Ag4 H32 C36 S4 N12 O12"
_cell_length_a       8.55608
_cell_length_b       9.48373
_cell_length_c       12.8367
_cell_angle_alpha    90
_cell_angle_beta     90.0002
_cell_angle_gamma    93.1901

_space_group_name_H-M_alt    "P 1"
_space_group_IT_number       1

loop_
  _space_group_symop_operation_xyz
  'x, y, z'

loop_
  _atom_site_type_symbol
  _atom_site_label
  _atom_site_symmetry_multiplicity
  _atom_site_fract_x
  _atom_site_fract_y
  _atom_site_fract_z
  _atom_site_occupancy
  Ag  Ag1       1.0  0.44494  0.63178  0.78450  1.0000
  Ag  Ag2       1.0  0.05506  0.86822  0.28450  1.0000
  Ag  Ag3       1.0  0.55505  0.36823  0.21550  1.0000
  Ag  Ag4       1.0  0.94494  0.13178  0.71550  1.0000
  H   H1        1.0  0.66634  0.64465  0.95854  1.0000
  H   H2        1.0  0.83367  0.85534  0.45854  1.0000
  H   H3        1.0  0.33364  0.35534  0.04146  1.0000
  H   H4        1.0  0.16634  0.14466  0.54146  1.0000
  H   H5        1.0  0.91847  0.77750  0.01573  1.0000
  H   H6        1.0  0.58153  0.72250  0.51573  1.0000
  H   H7        1.0  0.08151  0.22250  0.98427  1.0000
  H   H8        1.0  0.41847  0.27750  0.48427  1.0000
  H   H9        1.0  0.01169  0.98458  0.90538  1.0000
  H   H10       1.0  0.48832  0.51542  0.40538  1.0000
  H   H11       1.0  0.98831  0.01541  0.09462  1.0000
  H   H12       1.0  0.51169  0.48458  0.59462  1.0000
  H   H13       1.0  0.25321  0.85417  0.89694  1.0000
  H   H14       1.0  0.24679  0.64583  0.39694  1.0000
  H   H15       1.0  0.74679  0.14583  0.10306  1.0000
  H   H16       1.0  0.75321  0.35417  0.60306  1.0000
  H   H17       1.0  0.52635  0.75449  0.21250  1.0000
  H   H18       1.0  0.97365  0.74551  0.71250  1.0000
  H   H19       1.0  0.47365  0.24551  0.78750  1.0000
  H   H20       1.0  0.02635  0.25449  0.28750  1.0000
  H   H21       1.0  0.27527  0.04242  0.76561  1.0000
  H   H22       1.0  0.22473  0.45758  0.26562  1.0000
  H   H23       1.0  0.72473  0.95758  0.23439  1.0000
  H   H24       1.0  0.77527  0.54242  0.73439  1.0000
  H   H25       1.0  0.52469  0.86266  0.65967  1.0000
  H   H26       1.0  0.97531  0.63734  0.15967  1.0000
  H   H27       1.0  0.47531  0.13734  0.34032  1.0000
  H   H28       1.0  0.02469  0.36266  0.84033  1.0000
  H   H29       1.0  0.67578  0.99271  0.63501  1.0000
  H   H30       1.0  0.82423  0.50729  0.13501  1.0000
  H   H31       1.0  0.32422  0.00730  0.36498  1.0000
  H   H32       1.0  0.17578  0.49271  0.86499  1.0000
  C   C1        1.0  0.69946  0.88129  0.77038  1.0000
  C   C2        1.0  0.80055  0.61871  0.27038  1.0000
  C   C3        1.0  0.30054  0.11871  0.22962  1.0000
  C   C4        1.0  0.19946  0.38129  0.72962  1.0000
  C   C5        1.0  0.71639  0.73546  0.91565  1.0000
  C   C6        1.0  0.78361  0.76454  0.41565  1.0000
  C   C7        1.0  0.28359  0.26454  0.08435  1.0000
  C   C8        1.0  0.21639  0.23546  0.58436  1.0000
  C   C9        1.0  0.85313  0.80822  0.94772  1.0000
  C   C10       1.0  0.64687  0.69178  0.44772  1.0000
  C   C11       1.0  0.14685  0.19178  0.05228  1.0000
  C   C12       1.0  0.35313  0.30822  0.55229  1.0000
  C   C13       1.0  0.90579  0.92103  0.88599  1.0000
  C   C14       1.0  0.59422  0.57897  0.38599  1.0000
  C   C15       1.0  0.09421  0.07897  0.11401  1.0000
  C   C16       1.0  0.40579  0.42103  0.61401  1.0000
  C   C17       1.0  0.33970  0.94178  0.90672  1.0000
  C   C18       1.0  0.16030  0.55822  0.40672  1.0000
  C   C19       1.0  0.66030  0.05823  0.09328  1.0000
  C   C20       1.0  0.83970  0.44178  0.59328  1.0000
  C   C21       1.0  0.44149  0.94250  0.99412  1.0000
  C   C22       1.0  0.05851  0.55750  0.49412  1.0000
  C   C23       1.0  0.55851  0.05750  0.00588  1.0000
  C   C24       1.0  0.94149  0.44250  0.50588  1.0000
  C   C25       1.0  0.43545  0.83267  0.07066  1.0000
  C   C26       1.0  0.06455  0.66733  0.57066  1.0000
  C   C27       1.0  0.56455  0.16733  0.92934  1.0000
  C   C28       1.0  0.93545  0.33267  0.42934  1.0000
  C   C29       1.0  0.53619  0.83860  0.15494  1.0000
  C   C30       1.0  0.96381  0.66140  0.65494  1.0000
  C   C31       1.0  0.46382  0.16140  0.84506  1.0000
  C   C32       1.0  0.03619  0.33860  0.34506  1.0000
  C   C33       1.0  0.35166  0.04812  0.83350  1.0000
  C   C34       1.0  0.14834  0.45187  0.33351  1.0000
  C   C35       1.0  0.64834  0.95188  0.16649  1.0000
  C   C36       1.0  0.85166  0.54812  0.66649  1.0000
  S   S1        1.0  0.29588  0.68275  0.06624  1.0000
  S   S2        1.0  0.20412  0.81725  0.56624  1.0000
  S   S3        1.0  0.70412  0.31725  0.93376  1.0000
  S   S4        1.0  0.79588  0.18275  0.43376  1.0000
  N   N1        1.0  0.62824  0.91411  0.68174  1.0000
  N   N2        1.0  0.87176  0.58589  0.18174  1.0000
  N   N3        1.0  0.37175  0.08590  0.31825  1.0000
  N   N4        1.0  0.12824  0.41411  0.81826  1.0000
  N   N5        1.0  0.64027  0.77042  0.82861  1.0000
  N   N6        1.0  0.85973  0.72958  0.32861  1.0000
  N   N7        1.0  0.35972  0.22958  0.17138  1.0000
  N   N8        1.0  0.14027  0.27042  0.67139  1.0000
  N   N9        1.0  0.83115  0.95876  0.79928  1.0000
  N   N10       1.0  0.66885  0.54124  0.29928  1.0000
  N   N11       1.0  0.16884  0.04124  0.20072  1.0000
  N   N12       1.0  0.33115  0.45876  0.70073  1.0000
  O   O1        1.0  0.35021  0.58407  0.14397  1.0000
  O   O2        1.0  0.14979  0.91593  0.64397  1.0000
  O   O3        1.0  0.64979  0.41593  0.85604  1.0000
  O   O4        1.0  0.85021  0.08407  0.35603  1.0000
  O   O5        1.0  0.29625  0.62503  0.95911  1.0000
  O   O6        1.0  0.20376  0.87497  0.45911  1.0000
  O   O7        1.0  0.70375  0.37497  0.04089  1.0000
  O   O8        1.0  0.79625  0.12503  0.54089  1.0000
  O   O9        1.0  0.14289  0.73893  0.09247  1.0000
  O   O10       1.0  0.35711  0.76107  0.59247  1.0000
  O   O11       1.0  0.85711  0.26107  0.90753  1.0000
  O   O12       1.0  0.64289  0.23893  0.40753  1.0000
