data_image0
_chemical_formula_structural       CdH20C26N2O10
_chemical_formula_sum              "Cd1 H20 C26 N2 O10"
_cell_length_a       6.74925
_cell_length_b       8.82732
_cell_length_c       11.1374
_cell_angle_alpha    88.2886
_cell_angle_beta     105.653
_cell_angle_gamma    84.8302

_space_group_name_H-M_alt    "P 1"
_space_group_IT_number       1

loop_
  _space_group_symop_operation_xyz
  'x, y, z'

loop_
  _atom_site_type_symbol
  _atom_site_label
  _atom_site_symmetry_multiplicity
  _atom_site_fract_x
  _atom_site_fract_y
  _atom_site_fract_z
  _atom_site_occupancy
  Cd  Cd1       1.0  0.99999  0.99999  0.50001  1.0000
  H   H1        1.0  0.65253  0.88746  0.47024  1.0000
  H   H2        1.0  0.34744  0.11256  0.52978  1.0000
  H   H3        1.0  0.64768  0.93603  0.32896  1.0000
  H   H4        1.0  0.35231  0.06397  0.67105  1.0000
  H   H5        1.0  0.13097  0.93300  0.81747  1.0000
  H   H6        1.0  0.86904  0.06697  0.18255  1.0000
  H   H7        1.0  0.27447  0.59348  0.04180  1.0000
  H   H8        1.0  0.72552  0.40650  0.95820  1.0000
  H   H9        1.0  0.18958  0.04938  0.11535  1.0000
  H   H10       1.0  0.81047  0.95061  0.88466  1.0000
  H   H11       1.0  0.33018  0.40546  0.89017  1.0000
  H   H12       1.0  0.66980  0.59453  0.10983  1.0000
  H   H13       1.0  0.41404  0.68438  0.23195  1.0000
  H   H14       1.0  0.58597  0.31561  0.76804  1.0000
  H   H15       1.0  0.85967  0.65354  0.43815  1.0000
  H   H16       1.0  0.14026  0.34649  0.56181  1.0000
  H   H17       1.0  0.92101  0.44507  0.30397  1.0000
  H   H18       1.0  0.07897  0.55495  0.69602  1.0000
  H   H19       1.0  0.32727  0.88328  0.36583  1.0000
  H   H20       1.0  0.67273  0.11673  0.63414  1.0000
  C   C1        1.0  0.19051  0.27168  0.19040  1.0000
  C   C2        1.0  0.80951  0.72830  0.80960  1.0000
  C   C3        1.0  0.26440  0.47309  0.06114  1.0000
  C   C4        1.0  0.73561  0.52690  0.93888  1.0000
  C   C5        1.0  0.21329  0.42735  0.17006  1.0000
  C   C6        1.0  0.78672  0.57263  0.82996  1.0000
  C   C7        1.0  0.26337  0.21566  0.99319  1.0000
  C   C8        1.0  0.73667  0.78432  0.00682  1.0000
  C   C9        1.0  0.21170  0.16845  0.10099  1.0000
  C   C10       1.0  0.78835  0.83154  0.89904  1.0000
  C   C11       1.0  0.29308  0.36870  0.97497  1.0000
  C   C12       1.0  0.70691  0.63130  0.02502  1.0000
  C   C13       1.0  0.16125  0.21050  0.31154  1.0000
  C   C14       1.0  0.83879  0.78952  0.68845  1.0000
  C   C15       1.0  0.27186  0.11042  0.89236  1.0000
  C   C16       1.0  0.72816  0.88956  0.10764  1.0000
  C   C17       1.0  0.28859  0.67126  0.27463  1.0000
  C   C18       1.0  0.71141  0.32874  0.72538  1.0000
  C   C19       1.0  0.17496  0.54446  0.25538  1.0000
  C   C20       1.0  0.82507  0.45554  0.74463  1.0000
  C   C21       1.0  0.98121  0.65541  0.39050  1.0000
  C   C22       1.0  0.01875  0.34461  0.60947  1.0000
  C   C23       1.0  0.01817  0.53862  0.31606  1.0000
  C   C24       1.0  0.98182  0.46139  0.68393  1.0000
  C   C25       1.0  0.24147  0.78362  0.35017  1.0000
  C   C26       1.0  0.75851  0.21639  0.64981  1.0000
  N   N1        1.0  0.09021  0.77722  0.40727  1.0000
  N   N2        1.0  0.90976  0.22280  0.59271  1.0000
  O   O1        1.0  0.65206  0.97643  0.41198  1.0000
  O   O2        1.0  0.34793  0.02359  0.58802  1.0000
  O   O3        1.0  0.01244  0.12538  0.30544  1.0000
  O   O4        1.0  0.98757  0.87463  0.69456  1.0000
  O   O5        1.0  0.28536  0.24356  0.41080  1.0000
  O   O6        1.0  0.71464  0.75644  0.58922  1.0000
  O   O7        1.0  0.18381  0.98355  0.90101  1.0000
  O   O8        1.0  0.81624  0.01643  0.09901  1.0000
  O   O9        1.0  0.34890  0.14443  0.80704  1.0000
  O   O10       1.0  0.65104  0.85558  0.19295  1.0000
