data_image0
_chemical_formula_structural       Ag4H16C28O8F4
_chemical_formula_sum              "Ag4 H16 C28 O8 F4"
_cell_length_a       3.68381
_cell_length_b       11.1981
_cell_length_c       15.6004
_cell_angle_alpha    101.085
_cell_angle_beta     89.9984
_cell_angle_gamma    90.0015

_space_group_name_H-M_alt    "P 1"
_space_group_IT_number       1

loop_
  _space_group_symop_operation_xyz
  'x, y, z'

loop_
  _atom_site_type_symbol
  _atom_site_label
  _atom_site_symmetry_multiplicity
  _atom_site_fract_x
  _atom_site_fract_y
  _atom_site_fract_z
  _atom_site_occupancy
  Ag  Ag1       1.0  0.08530  0.12076  0.03255  1.0000
  Ag  Ag2       1.0  0.41472  0.62077  0.03254  1.0000
  Ag  Ag3       1.0  0.91475  0.87925  0.96746  1.0000
  Ag  Ag4       1.0  0.58532  0.37926  0.96746  1.0000
  H   H1        1.0  0.30224  0.22168  0.20840  1.0000
  H   H2        1.0  0.19773  0.72168  0.20840  1.0000
  H   H3        1.0  0.69777  0.77832  0.79160  1.0000
  H   H4        1.0  0.80218  0.27832  0.79160  1.0000
  H   H5        1.0  0.15687  0.19322  0.35939  1.0000
  H   H6        1.0  0.34317  0.69320  0.35938  1.0000
  H   H7        1.0  0.84316  0.80678  0.64061  1.0000
  H   H8        1.0  0.65683  0.30678  0.64062  1.0000
  H   H9        1.0  0.65146  0.54539  0.41552  1.0000
  H   H10       1.0  0.84864  0.04536  0.41550  1.0000
  H   H11       1.0  0.34860  0.45463  0.58448  1.0000
  H   H12       1.0  0.15143  0.95461  0.58449  1.0000
  H   H13       1.0  0.80528  0.57605  0.26405  1.0000
  H   H14       1.0  0.69476  0.07604  0.26405  1.0000
  H   H15       1.0  0.19474  0.42395  0.73594  1.0000
  H   H16       1.0  0.30525  0.92394  0.73595  1.0000
  C   C1        1.0  0.17749  0.42541  0.13991  1.0000
  C   C2        1.0  0.32245  0.92541  0.13992  1.0000
  C   C3        1.0  0.82250  0.57459  0.86008  1.0000
  C   C4        1.0  0.67748  0.07459  0.86009  1.0000
  C   C5        1.0  0.06067  0.40084  0.22638  1.0000
  C   C6        1.0  0.43927  0.90084  0.22639  1.0000
  C   C7        1.0  0.93932  0.59916  0.77361  1.0000
  C   C8        1.0  0.56065  0.09916  0.77362  1.0000
  C   C9        1.0  0.15512  0.29213  0.25268  1.0000
  C   C10       1.0  0.34483  0.79212  0.25268  1.0000
  C   C11       1.0  0.84487  0.70788  0.74732  1.0000
  C   C12       1.0  0.65508  0.20788  0.74733  1.0000
  C   C13       1.0  0.07399  0.27510  0.33670  1.0000
  C   C14       1.0  0.42603  0.77509  0.33670  1.0000
  C   C15       1.0  0.92604  0.72490  0.66330  1.0000
  C   C16       1.0  0.57396  0.22491  0.66331  1.0000
  C   C17       1.0  0.89320  0.36738  0.39278  1.0000
  C   C18       1.0  0.60681  0.86735  0.39277  1.0000
  C   C19       1.0  0.10682  0.63264  0.60722  1.0000
  C   C20       1.0  0.39319  0.13263  0.60723  1.0000
  C   C21       1.0  0.79369  0.47621  0.36903  1.0000
  C   C22       1.0  0.70635  0.97620  0.36903  1.0000
  C   C23       1.0  0.20635  0.52379  0.63096  1.0000
  C   C24       1.0  0.29366  0.02379  0.63097  1.0000
  C   C25       1.0  0.87936  0.49215  0.28517  1.0000
  C   C26       1.0  0.62062  0.99214  0.28516  1.0000
  C   C27       1.0  0.12064  0.50785  0.71483  1.0000
  C   C28       1.0  0.37934  0.00785  0.71484  1.0000
  O   O1        1.0  0.31210  0.33722  0.08369  1.0000
  O   O2        1.0  0.18783  0.83723  0.08370  1.0000
  O   O3        1.0  0.68790  0.66278  0.91630  1.0000
  O   O4        1.0  0.81207  0.16278  0.91631  1.0000
  O   O5        1.0  0.14543  0.53475  0.12894  1.0000
  O   O6        1.0  0.35457  0.03475  0.12894  1.0000
  O   O7        1.0  0.85457  0.46525  0.87106  1.0000
  O   O8        1.0  0.64547  0.96525  0.87106  1.0000
  F   F1        1.0  0.80875  0.35045  0.47492  1.0000
  F   F2        1.0  0.69130  0.85043  0.47491  1.0000
  F   F3        1.0  0.19129  0.64956  0.52508  1.0000
  F   F4        1.0  0.30875  0.14955  0.52508  1.0000
