data_image0
_chemical_formula_structural       Cd8H32C30N12O30
_chemical_formula_sum              "Cd8 H32 C30 N12 O30"
_cell_length_a       10.8088
_cell_length_b       12.1433
_cell_length_c       12.462
_cell_angle_alpha    65.4683
_cell_angle_beta     60.2222
_cell_angle_gamma    64.746

_space_group_name_H-M_alt    "P 1"
_space_group_IT_number       1

loop_
  _space_group_symop_operation_xyz
  'x, y, z'

loop_
  _atom_site_type_symbol
  _atom_site_label
  _atom_site_symmetry_multiplicity
  _atom_site_fract_x
  _atom_site_fract_y
  _atom_site_fract_z
  _atom_site_occupancy
  Cd  Cd1       1.0  0.18310  0.55427  0.01469  1.0000
  Cd  Cd2       1.0  0.81687  0.44575  0.98529  1.0000
  Cd  Cd3       1.0  0.35070  0.57751  0.42897  1.0000
  Cd  Cd4       1.0  0.64929  0.42249  0.57107  1.0000
  Cd  Cd5       1.0  0.97658  0.54402  0.63432  1.0000
  Cd  Cd6       1.0  0.02344  0.45597  0.36568  1.0000
  Cd  Cd7       1.0  0.27494  0.35538  0.70966  1.0000
  Cd  Cd8       1.0  0.72507  0.64461  0.29036  1.0000
  H   H1        1.0  0.23164  0.81624  0.06539  1.0000
  H   H2        1.0  0.76838  0.18374  0.93460  1.0000
  H   H3        1.0  0.05320  0.85717  0.18330  1.0000
  H   H4        1.0  0.94683  0.14280  0.81669  1.0000
  H   H5        1.0  0.35996  0.96902  0.13699  1.0000
  H   H6        1.0  0.64010  0.03093  0.86296  1.0000
  H   H7        1.0  0.41530  0.85862  0.05257  1.0000
  H   H8        1.0  0.58477  0.14129  0.94744  1.0000
  H   H9        1.0  0.70833  0.92184  0.47446  1.0000
  H   H10       1.0  0.29170  0.07816  0.52552  1.0000
  H   H11       1.0  0.62542  0.80781  0.61005  1.0000
  H   H12       1.0  0.37460  0.19220  0.38994  1.0000
  H   H13       1.0  0.61711  0.85446  0.75848  1.0000
  H   H14       1.0  0.38289  0.14557  0.24151  1.0000
  H   H15       1.0  0.74896  0.92433  0.72889  1.0000
  H   H16       1.0  0.25105  0.07566  0.27112  1.0000
  H   H17       1.0  0.03253  0.92478  0.73082  1.0000
  H   H18       1.0  0.96749  0.07530  0.26913  1.0000
  H   H19       1.0  0.19176  0.94582  0.71929  1.0000
  H   H20       1.0  0.80826  0.05417  0.28071  1.0000
  H   H21       1.0  0.41905  0.89207  0.55954  1.0000
  H   H22       1.0  0.58097  0.10796  0.44042  1.0000
  H   H23       1.0  0.42918  0.86147  0.42591  1.0000
  H   H24       1.0  0.57084  0.13850  0.57408  1.0000
  H   H25       1.0  0.84546  0.69948  0.01950  1.0000
  H   H26       1.0  0.15448  0.30049  0.98054  1.0000
  H   H27       1.0  0.94082  0.74079  0.05335  1.0000
  H   H28       1.0  0.05919  0.25919  0.94660  1.0000
  H   H29       1.0  0.45365  0.41757  0.86564  1.0000
  H   H30       1.0  0.54635  0.58244  0.13437  1.0000
  H   H31       1.0  0.46468  0.55242  0.82314  1.0000
  H   H32       1.0  0.53531  0.44759  0.17687  1.0000
  C   C1        1.0  0.15773  0.85205  0.52783  1.0000
  C   C2        1.0  0.84228  0.14798  0.47214  1.0000
  C   C3        1.0  0.95391  0.83728  0.53287  1.0000
  C   C4        1.0  0.04608  0.16274  0.46711  1.0000
  C   C5        1.0  0.15693  0.84325  0.34884  1.0000
  C   C6        1.0  0.84308  0.15675  0.65114  1.0000
  C   C7        1.0  0.16887  0.80184  0.16910  1.0000
  C   C8        1.0  0.83116  0.19814  0.83089  1.0000
  C   C9        1.0  0.16843  0.66342  0.23002  1.0000
  C   C10       1.0  0.83160  0.33657  0.76998  1.0000
  C   C11       1.0  0.37270  0.87049  0.14877  1.0000
  C   C12       1.0  0.62735  0.12946  0.85123  1.0000
  C   C13       1.0  0.49270  0.78636  0.20224  1.0000
  C   C14       1.0  0.50731  0.21362  0.79780  1.0000
  C   C15       1.0  0.73141  0.82691  0.53723  1.0000
  C   C16       1.0  0.26861  0.17310  0.46276  1.0000
  C   C17       1.0  0.79753  0.73462  0.45612  1.0000
  C   C18       1.0  0.20250  0.26538  0.54388  1.0000
  C   C19       1.0  0.73587  0.83881  0.73079  1.0000
  C   C20       1.0  0.26413  0.16120  0.26920  1.0000
  C   C21       1.0  0.77754  0.73161  0.83811  1.0000
  C   C22       1.0  0.22244  0.26839  0.16189  1.0000
  C   C23       1.0  0.15055  0.88049  0.71402  1.0000
  C   C24       1.0  0.84945  0.11954  0.28594  1.0000
  C   C25       1.0  0.15914  0.76295  0.82390  1.0000
  C   C26       1.0  0.84076  0.23709  0.17608  1.0000
  C   C27       1.0  0.39008  0.83559  0.53038  1.0000
  C   C28       1.0  0.60992  0.16441  0.46961  1.0000
  C   C29       1.0  0.46515  0.69567  0.57898  1.0000
  C   C30       1.0  0.53482  0.30433  0.42109  1.0000
  N   N1        1.0  0.81588  0.81649  0.60390  1.0000
  N   N2        1.0  0.18412  0.18354  0.39608  1.0000
  N   N3        1.0  0.01568  0.83732  0.40871  1.0000
  N   N4        1.0  0.98432  0.16270  0.59128  1.0000
  N   N5        1.0  0.22931  0.84340  0.22225  1.0000
  N   N6        1.0  0.77072  0.15658  0.77774  1.0000
  N   N7        1.0  0.23619  0.84412  0.40467  1.0000
  N   N8        1.0  0.76382  0.15589  0.59532  1.0000
  N   N9        1.0  0.22914  0.86184  0.58634  1.0000
  N   N10       1.0  0.77086  0.13821  0.41363  1.0000
  N   N11       1.0  0.01481  0.85157  0.59566  1.0000
  N   N12       1.0  0.98518  0.14847  0.40433  1.0000
  O   O1        1.0  0.90041  0.67138  0.07705  1.0000
  O   O2        1.0  0.09956  0.32861  0.92296  1.0000
  O   O3        1.0  0.09933  0.62640  0.19717  1.0000
  O   O4        1.0  0.90072  0.37356  0.80283  1.0000
  O   O5        1.0  0.22553  0.59262  0.31035  1.0000
  O   O6        1.0  0.77448  0.40738  0.68967  1.0000
  O   O7        1.0  0.51372  0.66453  0.23921  1.0000
  O   O8        1.0  0.48631  0.33544  0.76084  1.0000
  O   O9        1.0  0.18435  0.54096  0.61457  1.0000
  O   O10       1.0  0.81565  0.45904  0.38545  1.0000
  O   O11       1.0  0.49013  0.61970  0.51738  1.0000
  O   O12       1.0  0.50984  0.38027  0.48273  1.0000
  O   O13       1.0  0.88569  0.62640  0.48299  1.0000
  O   O14       1.0  0.11432  0.37361  0.51701  1.0000
  O   O15       1.0  0.43596  0.48415  0.90224  1.0000
  O   O16       1.0  0.56404  0.51585  0.09777  1.0000
  O   O17       1.0  0.57450  0.83431  0.20273  1.0000
  O   O18       1.0  0.42549  0.16566  0.79733  1.0000
  O   O19       1.0  0.50080  0.66270  0.67162  1.0000
  O   O20       1.0  0.49914  0.33734  0.32846  1.0000
  O   O21       1.0  0.17400  0.65763  0.81421  1.0000
  O   O22       1.0  0.82601  0.34239  0.18573  1.0000
  O   O23       1.0  0.14473  0.77865  0.92540  1.0000
  O   O24       1.0  0.85503  0.22140  0.07463  1.0000
  O   O25       1.0  0.83422  0.61881  0.82389  1.0000
  O   O26       1.0  0.16581  0.38119  0.17608  1.0000
  O   O27       1.0  0.74480  0.75958  0.93702  1.0000
  O   O28       1.0  0.25513  0.24039  0.06300  1.0000
  O   O29       1.0  0.74924  0.77251  0.36932  1.0000
  O   O30       1.0  0.25080  0.22750  0.63067  1.0000
