data_image0
_chemical_formula_structural       Zn2H24C32N2O10
_chemical_formula_sum              "Zn2 H24 C32 N2 O10"
_cell_length_a       7.63729
_cell_length_b       8.84693
_cell_length_c       10.6249
_cell_angle_alpha    88.4925
_cell_angle_beta     80.3042
_cell_angle_gamma    85.0424

_space_group_name_H-M_alt    "P 1"
_space_group_IT_number       1

loop_
  _space_group_symop_operation_xyz
  'x, y, z'

loop_
  _atom_site_type_symbol
  _atom_site_label
  _atom_site_symmetry_multiplicity
  _atom_site_fract_x
  _atom_site_fract_y
  _atom_site_fract_z
  _atom_site_occupancy
  Zn  Zn1       1.0  0.11831  0.51268  0.59351  1.0000
  Zn  Zn2       1.0  0.88169  0.48732  0.40649  1.0000
  H   H1        1.0  0.66719  0.82467  0.79610  1.0000
  H   H2        1.0  0.33281  0.17533  0.20390  1.0000
  H   H3        1.0  0.42276  0.79780  0.59555  1.0000
  H   H4        1.0  0.57724  0.20220  0.40445  1.0000
  H   H5        1.0  0.51957  0.01930  0.87708  1.0000
  H   H6        1.0  0.48044  0.98070  0.12292  1.0000
  H   H7        1.0  0.28807  0.18184  0.01416  1.0000
  H   H8        1.0  0.71193  0.81816  0.98584  1.0000
  H   H9        1.0  0.97474  0.20340  0.97523  1.0000
  H   H10       1.0  0.02527  0.79660  0.02477  1.0000
  H   H11       1.0  0.12700  0.90568  0.65423  1.0000
  H   H12       1.0  0.87300  0.09432  0.34577  1.0000
  H   H13       1.0  0.67457  0.09513  0.67472  1.0000
  H   H14       1.0  0.32542  0.90487  0.32528  1.0000
  H   H15       1.0  0.88433  0.00937  0.60438  1.0000
  H   H16       1.0  0.11567  0.99063  0.39562  1.0000
  H   H17       1.0  0.48119  0.38658  0.63752  1.0000
  H   H18       1.0  0.51881  0.61342  0.36248  1.0000
  H   H19       1.0  0.65921  0.37855  0.81242  1.0000
  H   H20       1.0  0.34079  0.62144  0.18759  1.0000
  H   H21       1.0  0.20527  0.61682  0.04649  1.0000
  H   H22       1.0  0.79473  0.38318  0.95352  1.0000
  H   H23       1.0  0.04913  0.61940  0.85860  1.0000
  H   H24       1.0  0.95087  0.38060  0.14140  1.0000
  C   C1        1.0  0.75234  0.67960  0.63314  1.0000
  C   C2        1.0  0.24766  0.32040  0.36686  1.0000
  C   C3        1.0  0.62246  0.78724  0.71081  1.0000
  C   C4        1.0  0.37754  0.21276  0.28919  1.0000
  C   C5        1.0  0.46348  0.84033  0.68098  1.0000
  C   C6        1.0  0.53652  0.15967  0.31901  1.0000
  C   C7        1.0  0.33672  0.94851  0.75775  1.0000
  C   C8        1.0  0.66328  0.05149  0.24225  1.0000
  C   C9        1.0  0.38300  0.02878  0.85851  1.0000
  C   C10       1.0  0.61700  0.97122  0.14149  1.0000
  C   C11       1.0  0.25326  0.12074  0.93541  1.0000
  C   C12       1.0  0.74675  0.87926  0.06459  1.0000
  C   C13       1.0  0.07819  0.13617  0.91293  1.0000
  C   C14       1.0  0.92181  0.86383  0.08707  1.0000
  C   C15       1.0  0.03297  0.06328  0.80927  1.0000
  C   C16       1.0  0.96703  0.93672  0.19072  1.0000
  C   C17       1.0  0.16093  0.96918  0.73206  1.0000
  C   C18       1.0  0.83907  0.03082  0.26794  1.0000
  C   C19       1.0  0.81854  0.10177  0.66754  1.0000
  C   C20       1.0  0.18146  0.89823  0.33246  1.0000
  C   C21       1.0  0.86894  0.25367  0.60624  1.0000
  C   C22       1.0  0.13106  0.74633  0.39376  1.0000
  C   C23       1.0  0.42589  0.43645  0.72993  1.0000
  C   C24       1.0  0.57411  0.56355  0.27007  1.0000
  C   C25       1.0  0.52404  0.43250  0.82905  1.0000
  C   C26       1.0  0.47596  0.56750  0.17096  1.0000
  C   C27       1.0  0.44942  0.49933  0.94640  1.0000
  C   C28       1.0  0.55058  0.50067  0.05360  1.0000
  C   C29       1.0  0.27341  0.56511  0.95787  1.0000
  C   C30       1.0  0.72659  0.43489  0.04213  1.0000
  C   C31       1.0  0.18436  0.56639  0.85434  1.0000
  C   C32       1.0  0.81563  0.43361  0.14566  1.0000
  N   N1        1.0  0.25938  0.50417  0.74160  1.0000
  N   N2        1.0  0.74062  0.49583  0.25840  1.0000
  O   O1        1.0  0.71330  0.62488  0.53222  1.0000
  O   O2        1.0  0.28670  0.37512  0.46778  1.0000
  O   O3        1.0  0.89944  0.64942  0.67524  1.0000
  O   O4        1.0  0.10056  0.35058  0.32476  1.0000
  O   O5        1.0  0.85608  0.08332  0.79425  1.0000
  O   O6        1.0  0.14392  0.91668  0.20575  1.0000
  O   O7        1.0  0.97293  0.32664  0.65720  1.0000
  O   O8        1.0  0.02707  0.67336  0.34280  1.0000
  O   O9        1.0  0.79987  0.29193  0.50786  1.0000
  O   O10       1.0  0.20013  0.70808  0.49214  1.0000
