data_image0
_chemical_formula_structural       Cd3H30C44N8O16
_chemical_formula_sum              "Cd3 H30 C44 N8 O16"
_cell_length_a       7.59707
_cell_length_b       9.68353
_cell_length_c       15.0973
_cell_angle_alpha    74.3024
_cell_angle_beta     79.6274
_cell_angle_gamma    82.6747

_space_group_name_H-M_alt    "P 1"
_space_group_IT_number       1

loop_
  _space_group_symop_operation_xyz
  'x, y, z'

loop_
  _atom_site_type_symbol
  _atom_site_label
  _atom_site_symmetry_multiplicity
  _atom_site_fract_x
  _atom_site_fract_y
  _atom_site_fract_z
  _atom_site_occupancy
  Cd  Cd1       1.0  0.50000  0.50000  0.00000  1.0000
  Cd  Cd2       1.0  0.85196  0.45076  0.24672  1.0000
  Cd  Cd3       1.0  0.14804  0.54924  0.75327  1.0000
  H   H1        1.0  0.03657  0.89624  0.05506  1.0000
  H   H2        1.0  0.96343  0.10376  0.94494  1.0000
  H   H3        1.0  0.78601  0.41459  0.67261  1.0000
  H   H4        1.0  0.21399  0.58541  0.32739  1.0000
  H   H5        1.0  0.63783  0.61346  0.39908  1.0000
  H   H6        1.0  0.36217  0.38654  0.60091  1.0000
  H   H7        1.0  0.59998  0.60533  0.57027  1.0000
  H   H8        1.0  0.40002  0.39467  0.42973  1.0000
  H   H9        1.0  0.61671  0.90182  0.15836  1.0000
  H   H10       1.0  0.38329  0.09819  0.84164  1.0000
  H   H11       1.0  0.35952  0.94637  0.46334  1.0000
  H   H12       1.0  0.64047  0.05362  0.53666  1.0000
  H   H13       1.0  0.13715  0.16236  0.21290  1.0000
  H   H14       1.0  0.86285  0.83764  0.78710  1.0000
  H   H15       1.0  0.15152  0.13082  0.04619  1.0000
  H   H16       1.0  0.84848  0.86918  0.95380  1.0000
  H   H17       1.0  0.34533  0.96697  0.29537  1.0000
  H   H18       1.0  0.65467  0.03303  0.70463  1.0000
  H   H19       1.0  0.33901  0.95652  0.62989  1.0000
  H   H20       1.0  0.66099  0.04348  0.37011  1.0000
  H   H21       1.0  0.22143  0.02224  0.77988  1.0000
  H   H22       1.0  0.77857  0.97776  0.22012  1.0000
  H   H23       1.0  0.88775  0.36330  0.06914  1.0000
  H   H24       1.0  0.11225  0.63670  0.93086  1.0000
  H   H25       1.0  0.05989  0.42433  0.08486  1.0000
  H   H26       1.0  0.94011  0.57567  0.91514  1.0000
  H   H27       1.0  0.61461  0.24528  0.22589  1.0000
  H   H28       1.0  0.38539  0.75472  0.77412  1.0000
  H   H29       1.0  0.77982  0.19686  0.27627  1.0000
  H   H30       1.0  0.22017  0.80314  0.72373  1.0000
  C   C1        1.0  0.39177  0.03240  0.10230  1.0000
  C   C2        1.0  0.60823  0.96760  0.89770  1.0000
  C   C3        1.0  0.16544  0.89814  0.07660  1.0000
  C   C4        1.0  0.83456  0.10186  0.92340  1.0000
  C   C5        1.0  0.54626  0.63634  0.17235  1.0000
  C   C6        1.0  0.45374  0.36366  0.82765  1.0000
  C   C7        1.0  0.18178  0.62890  0.12052  1.0000
  C   C8        1.0  0.81823  0.37109  0.87948  1.0000
  C   C9        1.0  0.04156  0.23147  0.41855  1.0000
  C   C10       1.0  0.95844  0.76853  0.58145  1.0000
  C   C11       1.0  0.16062  0.12699  0.47020  1.0000
  C   C12       1.0  0.83938  0.87301  0.52980  1.0000
  C   C13       1.0  0.42770  0.76987  0.14021  1.0000
  C   C14       1.0  0.57230  0.23013  0.85979  1.0000
  C   C15       1.0  0.79091  0.42042  0.59894  1.0000
  C   C16       1.0  0.20909  0.57959  0.40106  1.0000
  C   C17       1.0  0.71087  0.53073  0.44701  1.0000
  C   C18       1.0  0.28913  0.46927  0.55299  1.0000
  C   C19       1.0  0.69108  0.52569  0.54221  1.0000
  C   C20       1.0  0.30892  0.47432  0.45779  1.0000
  C   C21       1.0  0.48841  0.90202  0.13623  1.0000
  C   C22       1.0  0.51159  0.09799  0.86377  1.0000
  C   C23       1.0  0.27179  0.03062  0.42477  1.0000
  C   C24       1.0  0.72821  0.96938  0.57523  1.0000
  C   C25       1.0  0.14638  0.14878  0.28602  1.0000
  C   C26       1.0  0.85362  0.85122  0.71398  1.0000
  C   C27       1.0  0.22867  0.02925  0.07194  1.0000
  C   C28       1.0  0.77133  0.97075  0.92806  1.0000
  C   C29       1.0  0.46327  0.17199  0.10010  1.0000
  C   C30       1.0  0.53673  0.82801  0.89990  1.0000
  C   C31       1.0  0.26415  0.04074  0.33252  1.0000
  C   C32       1.0  0.73585  0.95926  0.66748  1.0000
  C   C33       1.0  0.91951  0.33136  0.46266  1.0000
  C   C34       1.0  0.08050  0.66864  0.53734  1.0000
  C   C35       1.0  0.02681  0.21370  0.61021  1.0000
  C   C36       1.0  0.97319  0.78631  0.38979  1.0000
  C   C37       1.0  0.15150  0.12541  0.56525  1.0000
  C   C38       1.0  0.84850  0.87459  0.43475  1.0000
  C   C39       1.0  0.17247  0.07850  0.71503  1.0000
  C   C40       1.0  0.82754  0.92150  0.28497  1.0000
  C   C41       1.0  0.26346  0.76744  0.11034  1.0000
  C   C42       1.0  0.73654  0.23256  0.88966  1.0000
  C   C43       1.0  0.90932  0.32094  0.55937  1.0000
  C   C44       1.0  0.09069  0.67906  0.44063  1.0000
  N   N1        1.0  0.81991  0.43619  0.40892  1.0000
  N   N2        1.0  0.18010  0.56381  0.59108  1.0000
  N   N3        1.0  0.03881  0.23988  0.32785  1.0000
  N   N4        1.0  0.96119  0.76012  0.67215  1.0000
  N   N5        1.0  0.24606  0.04182  0.63325  1.0000
  N   N6        1.0  0.75394  0.95818  0.36675  1.0000
  N   N7        1.0  0.04118  0.18212  0.70334  1.0000
  N   N8        1.0  0.95882  0.81788  0.29666  1.0000
  O   O1        1.0  0.54261  0.52508  0.14374  1.0000
  O   O2        1.0  0.45739  0.47492  0.85626  1.0000
  O   O3        1.0  0.66236  0.25038  0.28320  1.0000
  O   O4        1.0  0.33764  0.74962  0.71680  1.0000
  O   O5        1.0  0.96385  0.35867  0.11655  1.0000
  O   O6        1.0  0.03615  0.64132  0.88345  1.0000
  O   O7        1.0  0.38494  0.28664  0.05382  1.0000
  O   O8        1.0  0.61505  0.71337  0.94618  1.0000
  O   O9        1.0  0.65173  0.64260  0.22848  1.0000
  O   O10       1.0  0.34828  0.35740  0.77151  1.0000
  O   O11       1.0  0.59212  0.16591  0.14428  1.0000
  O   O12       1.0  0.40787  0.83409  0.85572  1.0000
  O   O13       1.0  0.18379  0.58380  0.04769  1.0000
  O   O14       1.0  0.81620  0.41620  0.95231  1.0000
  O   O15       1.0  0.11098  0.56764  0.20167  1.0000
  O   O16       1.0  0.88903  0.43236  0.79833  1.0000
