data_image0
_chemical_formula_structural       Zn6P4H28C8N20O20
_chemical_formula_sum              "Zn6 P4 H28 C8 N20 O20"
_cell_length_a       5.11248
_cell_length_b       10.4505
_cell_length_c       14.948
_cell_angle_alpha    90
_cell_angle_beta     91.8631
_cell_angle_gamma    89.9998

_space_group_name_H-M_alt    "P 1"
_space_group_IT_number       1

loop_
  _space_group_symop_operation_xyz
  'x, y, z'

loop_
  _atom_site_type_symbol
  _atom_site_label
  _atom_site_symmetry_multiplicity
  _atom_site_fract_x
  _atom_site_fract_y
  _atom_site_fract_z
  _atom_site_occupancy
  Zn  Zn1       1.0  0.66927  0.55723  0.39746  1.0000
  Zn  Zn2       1.0  0.33073  0.05724  0.10254  1.0000
  Zn  Zn3       1.0  0.33073  0.44276  0.60253  1.0000
  Zn  Zn4       1.0  0.66927  0.94276  0.89746  1.0000
  Zn  Zn5       1.0  1.00000  0.50000  1.00000  1.0000
  Zn  Zn6       1.0  0.00000  0.00000  0.50000  1.0000
  P   P1        1.0  0.17357  0.68351  0.48886  1.0000
  P   P2        1.0  0.82643  0.18351  0.01113  1.0000
  P   P3        1.0  0.82643  0.31648  0.51113  1.0000
  P   P4        1.0  0.17357  0.81649  0.98887  1.0000
  H   H1        1.0  0.51273  0.66319  0.07281  1.0000
  H   H2        1.0  0.48726  0.16320  0.42718  1.0000
  H   H3        1.0  0.48726  0.33680  0.92718  1.0000
  H   H4        1.0  0.51274  0.83680  0.57282  1.0000
  H   H5        1.0  0.13989  0.45797  0.30534  1.0000
  H   H6        1.0  0.86011  0.95797  0.19466  1.0000
  H   H7        1.0  0.86010  0.54203  0.69466  1.0000
  H   H8        1.0  0.13989  0.04203  0.80535  1.0000
  H   H9        1.0  0.21097  0.41834  0.19524  1.0000
  H   H10       1.0  0.78903  0.91834  0.30477  1.0000
  H   H11       1.0  0.78903  0.58166  0.80477  1.0000
  H   H12       1.0  0.21097  0.08166  0.69523  1.0000
  H   H13       1.0  0.30179  0.71982  0.30179  1.0000
  H   H14       1.0  0.69821  0.21982  0.19821  1.0000
  H   H15       1.0  0.69821  0.28018  0.69821  1.0000
  H   H16       1.0  0.30179  0.78018  0.80179  1.0000
  H   H17       1.0  0.26745  0.78725  0.19286  1.0000
  H   H18       1.0  0.73255  0.28725  0.30714  1.0000
  H   H19       1.0  0.73254  0.21275  0.80713  1.0000
  H   H20       1.0  0.26746  0.71275  0.69286  1.0000
  H   H21       1.0  0.23074  0.30825  0.06123  1.0000
  H   H22       1.0  0.76925  0.80825  0.43877  1.0000
  H   H23       1.0  0.76926  0.69176  0.93877  1.0000
  H   H24       1.0  0.23075  0.19175  0.56123  1.0000
  H   H25       1.0  0.48557  0.39018  0.05891  1.0000
  H   H26       1.0  0.51442  0.89018  0.44109  1.0000
  H   H27       1.0  0.51442  0.60982  0.94109  1.0000
  H   H28       1.0  0.48558  0.10982  0.55891  1.0000
  C   C1        1.0  0.89012  0.52753  0.21039  1.0000
  C   C2        1.0  0.10988  0.02754  0.28961  1.0000
  C   C3        1.0  0.10988  0.47246  0.78961  1.0000
  C   C4        1.0  0.89012  0.97246  0.71039  1.0000
  C   C5        1.0  0.56512  0.66110  0.21305  1.0000
  C   C6        1.0  0.43489  0.16112  0.28695  1.0000
  C   C7        1.0  0.43488  0.33889  0.78694  1.0000
  C   C8        1.0  0.56512  0.83889  0.71305  1.0000
  N   N1        1.0  0.72409  0.58856  0.26710  1.0000
  N   N2        1.0  0.27590  0.08857  0.23290  1.0000
  N   N3        1.0  0.27591  0.41144  0.73290  1.0000
  N   N4        1.0  0.72409  0.91144  0.76710  1.0000
  N   N5        1.0  0.84100  0.55837  0.12459  1.0000
  N   N6        1.0  0.15901  0.05838  0.37541  1.0000
  N   N7        1.0  0.15901  0.44162  0.87541  1.0000
  N   N8        1.0  0.84100  0.94162  0.62459  1.0000
  N   N9        1.0  0.63464  0.64517  0.12815  1.0000
  N   N10       1.0  0.36536  0.14518  0.37186  1.0000
  N   N11       1.0  0.36536  0.35483  0.87185  1.0000
  N   N12       1.0  0.63465  0.85483  0.62815  1.0000
  N   N13       1.0  0.07523  0.44409  0.24097  1.0000
  N   N14       1.0  0.92478  0.94409  0.25903  1.0000
  N   N15       1.0  0.92477  0.55591  0.75903  1.0000
  N   N16       1.0  0.07522  0.05591  0.74097  1.0000
  N   N17       1.0  0.37677  0.73952  0.24069  1.0000
  N   N18       1.0  0.62321  0.23953  0.25931  1.0000
  N   N19       1.0  0.62321  0.26047  0.75931  1.0000
  N   N20       1.0  0.37678  0.76048  0.74069  1.0000
  O   O1        1.0  0.87111  0.67678  0.47324  1.0000
  O   O2        1.0  0.12889  0.17678  0.02676  1.0000
  O   O3        1.0  0.12889  0.32322  0.52676  1.0000
  O   O4        1.0  0.87111  0.82323  0.97324  1.0000
  O   O5        1.0  0.25049  0.82749  0.49262  1.0000
  O   O6        1.0  0.74950  0.32749  0.00738  1.0000
  O   O7        1.0  0.74950  0.17251  0.50738  1.0000
  O   O8        1.0  0.25050  0.67251  0.99262  1.0000
  O   O9        1.0  0.25490  0.62149  0.57971  1.0000
  O   O10       1.0  0.74511  0.12149  0.92029  1.0000
  O   O11       1.0  0.74511  0.37851  0.42029  1.0000
  O   O12       1.0  0.25490  0.87851  0.07971  1.0000
  O   O13       1.0  0.30308  0.61339  0.40992  1.0000
  O   O14       1.0  0.69692  0.11339  0.09008  1.0000
  O   O15       1.0  0.69692  0.38661  0.59008  1.0000
  O   O16       1.0  0.30308  0.88661  0.90992  1.0000
  O   O17       1.0  0.29858  0.39781  0.07582  1.0000
  O   O18       1.0  0.70141  0.89781  0.42418  1.0000
  O   O19       1.0  0.70141  0.60219  0.92418  1.0000
  O   O20       1.0  0.29859  0.10219  0.57583  1.0000
