data_image0
_chemical_formula_structural       Zn6P4H20C8N20O16
_chemical_formula_sum              "Zn6 P4 H20 C8 N20 O16"
_cell_length_a       5.20616
_cell_length_b       9.88116
_cell_length_c       15.3196
_cell_angle_alpha    76.6698
_cell_angle_beta     80.2192
_cell_angle_gamma    74.7246

_space_group_name_H-M_alt    "P 1"
_space_group_IT_number       1

loop_
  _space_group_symop_operation_xyz
  'x, y, z'

loop_
  _atom_site_type_symbol
  _atom_site_label
  _atom_site_symmetry_multiplicity
  _atom_site_fract_x
  _atom_site_fract_y
  _atom_site_fract_z
  _atom_site_occupancy
  Zn  Zn1       1.0  0.88322  0.82967  0.53406  1.0000
  Zn  Zn2       1.0  0.24677  0.67041  0.96589  1.0000
  Zn  Zn3       1.0  0.11679  0.17033  0.46594  1.0000
  Zn  Zn4       1.0  0.75323  0.32959  0.03412  1.0000
  Zn  Zn5       1.0  0.27363  0.25002  0.74997  1.0000
  Zn  Zn6       1.0  0.72636  0.74998  0.25003  1.0000
  P   P1        1.0  0.42364  0.87592  0.41652  1.0000
  P   P2        1.0  0.71600  0.62410  0.08355  1.0000
  P   P3        1.0  0.57636  0.12408  0.58348  1.0000
  P   P4        1.0  0.28400  0.37590  0.91645  1.0000
  H   H1        1.0  0.65050  0.41084  0.78083  1.0000
  H   H2        1.0  0.84185  0.08942  0.71913  1.0000
  H   H3        1.0  0.34950  0.58916  0.21917  1.0000
  H   H4        1.0  0.15815  0.91059  0.28087  1.0000
  H   H5        1.0  0.30048  0.65873  0.75490  1.0000
  H   H6        1.0  0.71378  0.84145  0.74500  1.0000
  H   H7        1.0  0.69952  0.34127  0.24510  1.0000
  H   H8        1.0  0.28623  0.15855  0.25500  1.0000
  H   H9        1.0  0.35496  0.77295  0.65039  1.0000
  H   H10       1.0  0.77814  0.72718  0.84951  1.0000
  H   H11       1.0  0.64504  0.22705  0.34961  1.0000
  H   H12       1.0  0.22187  0.27282  0.15049  1.0000
  H   H13       1.0  0.45294  0.42451  0.59285  1.0000
  H   H14       1.0  0.47030  0.07547  0.90711  1.0000
  H   H15       1.0  0.54705  0.57549  0.40716  1.0000
  H   H16       1.0  0.52970  0.92453  0.09289  1.0000
  H   H17       1.0  0.35277  0.60566  0.54260  1.0000
  H   H18       1.0  0.50085  0.89433  0.95736  1.0000
  H   H19       1.0  0.64723  0.39434  0.45740  1.0000
  H   H20       1.0  0.49915  0.10567  0.04264  1.0000
  C   C1        1.0  0.66740  0.60812  0.68513  1.0000
  C   C2        1.0  0.96027  0.89208  0.81481  1.0000
  C   C3        1.0  0.33260  0.39188  0.31487  1.0000
  C   C4        1.0  0.03973  0.10792  0.18519  1.0000
  C   C5        1.0  0.06958  0.52203  0.62717  1.0000
  C   C6        1.0  0.21868  0.97803  0.87274  1.0000
  C   C7        1.0  0.93042  0.47797  0.37283  1.0000
  C   C8        1.0  0.78131  0.02197  0.12726  1.0000
  N   N1        1.0  0.86171  0.64056  0.61801  1.0000
  N   N2        1.0  0.12007  0.85954  0.88189  1.0000
  N   N3        1.0  0.13829  0.35944  0.38199  1.0000
  N   N4        1.0  0.87992  0.14046  0.11811  1.0000
  N   N5        1.0  0.75498  0.47593  0.73213  1.0000
  N   N6        1.0  0.96269  0.02427  0.76783  1.0000
  N   N7        1.0  0.24502  0.52406  0.26787  1.0000
  N   N8        1.0  0.03731  0.97574  0.23217  1.0000
  N   N9        1.0  0.01283  0.41983  0.69593  1.0000
  N   N10       1.0  0.12842  0.08028  0.80402  1.0000
  N   N11       1.0  0.98716  0.58016  0.30407  1.0000
  N   N12       1.0  0.87158  0.91972  0.19598  1.0000
  N   N13       1.0  0.43020  0.69791  0.70344  1.0000
  N   N14       1.0  0.83116  0.80231  0.79648  1.0000
  N   N15       1.0  0.56980  0.30209  0.29656  1.0000
  N   N16       1.0  0.16884  0.19769  0.20352  1.0000
  N   N17       1.0  0.30260  0.51048  0.57255  1.0000
  N   N18       1.0  0.38555  0.98953  0.92738  1.0000
  N   N19       1.0  0.69741  0.48953  0.42745  1.0000
  N   N20       1.0  0.61443  0.01047  0.07263  1.0000
  O   O1        1.0  0.27803  0.80924  0.50781  1.0000
  O   O2        1.0  0.59473  0.69078  0.99229  1.0000
  O   O3        1.0  0.72198  0.19076  0.49219  1.0000
  O   O4        1.0  0.40527  0.30922  0.00771  1.0000
  O   O5        1.0  0.40996  0.79391  0.34133  1.0000
  O   O6        1.0  0.54509  0.70602  0.15877  1.0000
  O   O7        1.0  0.59004  0.20609  0.65867  1.0000
  O   O8        1.0  0.45490  0.29398  0.84123  1.0000
  O   O9        1.0  0.72127  0.85939  0.42500  1.0000
  O   O10       1.0  0.00550  0.64076  0.07499  1.0000
  O   O11       1.0  0.27873  0.14060  0.57500  1.0000
  O   O12       1.0  0.99450  0.35924  0.92501  1.0000
  O   O13       1.0  0.27828  0.03447  0.38553  1.0000
  O   O14       1.0  0.69855  0.46548  0.11451  1.0000
  O   O15       1.0  0.72172  0.96553  0.61447  1.0000
  O   O16       1.0  0.30144  0.53452  0.88549  1.0000
