data_image0
_chemical_formula_structural       U2H10C12N2O10
_chemical_formula_sum              "U2 H10 C12 N2 O10"
_cell_length_a       6.32838
_cell_length_b       7.8698
_cell_length_c       8.35805
_cell_angle_alpha    79.4217
_cell_angle_beta     86.8251
_cell_angle_gamma    78.7793

_space_group_name_H-M_alt    "P 1"
_space_group_IT_number       1

loop_
  _space_group_symop_operation_xyz
  'x, y, z'

loop_
  _atom_site_type_symbol
  _atom_site_label
  _atom_site_symmetry_multiplicity
  _atom_site_fract_x
  _atom_site_fract_y
  _atom_site_fract_z
  _atom_site_occupancy
  U   U1        1.0  0.09986  0.36516  0.20571  1.0000
  U   U2        1.0  0.90013  0.63484  0.79429  1.0000
  H   H1        1.0  0.32547  0.55898  0.91789  1.0000
  H   H2        1.0  0.67453  0.44103  0.08212  1.0000
  H   H3        1.0  0.01354  0.10042  0.58765  1.0000
  H   H4        1.0  0.98646  0.89958  0.41237  1.0000
  H   H5        1.0  0.71009  0.25250  0.67541  1.0000
  H   H6        1.0  0.28992  0.74750  0.32458  1.0000
  H   H7        1.0  0.14848  0.04078  0.86993  1.0000
  H   H8        1.0  0.85154  0.95922  0.13007  1.0000
  H   H9        1.0  0.49678  0.13161  0.91845  1.0000
  H   H10       1.0  0.50324  0.86839  0.08154  1.0000
  C   C1        1.0  0.47291  0.23590  0.50752  1.0000
  C   C2        1.0  0.52709  0.76410  0.49248  1.0000
  C   C3        1.0  0.59479  0.29698  0.35683  1.0000
  C   C4        1.0  0.40521  0.70301  0.64317  1.0000
  C   C5        1.0  0.16889  0.12943  0.61135  1.0000
  C   C6        1.0  0.83111  0.87056  0.38866  1.0000
  C   C7        1.0  0.55706  0.21363  0.66189  1.0000
  C   C8        1.0  0.44294  0.78637  0.33810  1.0000
  C   C9        1.0  0.24497  0.09734  0.76985  1.0000
  C   C10       1.0  0.75504  0.90266  0.23016  1.0000
  C   C11       1.0  0.43813  0.14609  0.79586  1.0000
  C   C12       1.0  0.56189  0.85390  0.20414  1.0000
  N   N1        1.0  0.27743  0.20078  0.48235  1.0000
  N   N2        1.0  0.72257  0.79922  0.51765  1.0000
  O   O1        1.0  0.12071  0.15484  0.13975  1.0000
  O   O2        1.0  0.87928  0.84518  0.86024  1.0000
  O   O3        1.0  0.79134  0.30522  0.36852  1.0000
  O   O4        1.0  0.20865  0.69477  0.63147  1.0000
  O   O5        1.0  0.49450  0.33420  0.22199  1.0000
  O   O6        1.0  0.50549  0.66580  0.77800  1.0000
  O   O7        1.0  0.20040  0.50190  0.95446  1.0000
  O   O8        1.0  0.79959  0.49812  0.04555  1.0000
  O   O9        1.0  0.08916  0.56191  0.29122  1.0000
  O   O10       1.0  0.91082  0.43808  0.70880  1.0000
