data_image0
_chemical_formula_structural       Mn2H24C28S4N12O8
_chemical_formula_sum              "Mn2 H24 C28 S4 N12 O8"
_cell_length_a       9.01739
_cell_length_b       11.255
_cell_length_c       12.8312
_cell_angle_alpha    90.0004
_cell_angle_beta     90.0005
_cell_angle_gamma    105.575

_space_group_name_H-M_alt    "P 1"
_space_group_IT_number       1

loop_
  _space_group_symop_operation_xyz
  'x, y, z'

loop_
  _atom_site_type_symbol
  _atom_site_label
  _atom_site_symmetry_multiplicity
  _atom_site_fract_x
  _atom_site_fract_y
  _atom_site_fract_z
  _atom_site_occupancy
  Mn  Mn1       1.0  0.00000  0.50000  0.50000  1.0000
  Mn  Mn2       1.0  0.50000  1.00000  1.00000  1.0000
  H   H1        1.0  0.23444  0.68701  0.42724  1.0000
  H   H2        1.0  0.26556  0.81299  0.92723  1.0000
  H   H3        1.0  0.76556  0.31299  0.57276  1.0000
  H   H4        1.0  0.73444  0.18701  0.07277  1.0000
  H   H5        1.0  0.07698  0.69585  0.36949  1.0000
  H   H6        1.0  0.42302  0.80415  0.86948  1.0000
  H   H7        1.0  0.92302  0.30415  0.63052  1.0000
  H   H8        1.0  0.57698  0.19585  0.13051  1.0000
  H   H9        1.0  0.85865  0.79973  0.22264  1.0000
  H   H10       1.0  0.64135  0.70027  0.72264  1.0000
  H   H11       1.0  0.14134  0.20027  0.77736  1.0000
  H   H12       1.0  0.35866  0.29973  0.27736  1.0000
  H   H13       1.0  0.77993  0.94364  0.10193  1.0000
  H   H14       1.0  0.72007  0.55636  0.60193  1.0000
  H   H15       1.0  0.22006  0.05636  0.89806  1.0000
  H   H16       1.0  0.27994  0.44365  0.39806  1.0000
  H   H17       1.0  0.31840  0.75246  0.12587  1.0000
  H   H18       1.0  0.18160  0.74754  0.62586  1.0000
  H   H19       1.0  0.68159  0.24753  0.87414  1.0000
  H   H20       1.0  0.81841  0.25246  0.37414  1.0000
  H   H21       1.0  0.37700  0.60151  0.25037  1.0000
  H   H22       1.0  0.12300  0.89849  0.75036  1.0000
  H   H23       1.0  0.62299  0.39849  0.74963  1.0000
  H   H24       1.0  0.87701  0.10151  0.24964  1.0000
  C   C1        1.0  0.64956  0.43747  0.41108  1.0000
  C   C2        1.0  0.85045  0.06254  0.91109  1.0000
  C   C3        1.0  0.35044  0.56253  0.58891  1.0000
  C   C4        1.0  0.14956  0.93746  0.08891  1.0000
  C   C5        1.0  0.67010  0.60248  0.31529  1.0000
  C   C6        1.0  0.82990  0.89753  0.81529  1.0000
  C   C7        1.0  0.32990  0.39753  0.68471  1.0000
  C   C8        1.0  0.17011  0.10247  0.18471  1.0000
  C   C9        1.0  0.62424  0.68809  0.24653  1.0000
  C   C10       1.0  0.87576  0.81192  0.74652  1.0000
  C   C11       1.0  0.37575  0.31191  0.75348  1.0000
  C   C12       1.0  0.12425  0.18808  0.25348  1.0000
  C   C13       1.0  0.73767  0.78722  0.20453  1.0000
  C   C14       1.0  0.76232  0.71278  0.70453  1.0000
  C   C15       1.0  0.26232  0.21278  0.79547  1.0000
  C   C16       1.0  0.23768  0.28722  0.29547  1.0000
  C   C17       1.0  0.69370  0.86697  0.13648  1.0000
  C   C18       1.0  0.80629  0.63303  0.63648  1.0000
  C   C19       1.0  0.30629  0.13303  0.86352  1.0000
  C   C20       1.0  0.19372  0.36697  0.36352  1.0000
  C   C21       1.0  0.43697  0.75998  0.14971  1.0000
  C   C22       1.0  0.06303  0.74002  0.64971  1.0000
  C   C23       1.0  0.56303  0.24002  0.85029  1.0000
  C   C24       1.0  0.93698  0.25998  0.35029  1.0000
  C   C25       1.0  0.47006  0.67527  0.21867  1.0000
  C   C26       1.0  0.02993  0.82474  0.71866  1.0000
  C   C27       1.0  0.52993  0.32474  0.78134  1.0000
  C   C28       1.0  0.97007  0.17526  0.28134  1.0000
  S   S1        1.0  0.56685  0.30330  0.46953  1.0000
  S   S2        1.0  0.93316  0.19670  0.96954  1.0000
  S   S3        1.0  0.43316  0.69670  0.53047  1.0000
  S   S4        1.0  0.06684  0.80330  0.03046  1.0000
  N   N1        1.0  0.79570  0.50793  0.41278  1.0000
  N   N2        1.0  0.70431  0.99207  0.91278  1.0000
  N   N3        1.0  0.20431  0.49207  0.58722  1.0000
  N   N4        1.0  0.29570  0.00793  0.08722  1.0000
  N   N5        1.0  0.80752  0.61150  0.35269  1.0000
  N   N6        1.0  0.69248  0.88850  0.85269  1.0000
  N   N7        1.0  0.19249  0.38850  0.64731  1.0000
  N   N8        1.0  0.30752  0.11150  0.14731  1.0000
  N   N9        1.0  0.54620  0.85422  0.10826  1.0000
  N   N10       1.0  0.95380  0.64578  0.60826  1.0000
  N   N11       1.0  0.45379  0.14577  0.89174  1.0000
  N   N12       1.0  0.04621  0.35422  0.39174  1.0000
  O   O1        1.0  0.56533  0.49649  0.34736  1.0000
  O   O2        1.0  0.93467  0.00352  0.84736  1.0000
  O   O3        1.0  0.43467  0.50352  0.65264  1.0000
  O   O4        1.0  0.06533  0.99648  0.15264  1.0000
  O   O5        1.0  0.13918  0.64080  0.38991  1.0000
  O   O6        1.0  0.36083  0.85920  0.88991  1.0000
  O   O7        1.0  0.86083  0.35920  0.61009  1.0000
  O   O8        1.0  0.63917  0.14080  0.11009  1.0000
