data_image0
_chemical_formula_structural       Co2H24C30S2N8O8
_chemical_formula_sum              "Co2 H24 C30 S2 N8 O8"
_cell_length_a       8.67123
_cell_length_b       10.3369
_cell_length_c       10.3369
_cell_angle_alpha    75.6312
_cell_angle_beta     71.7357
_cell_angle_gamma    71.7365

_space_group_name_H-M_alt    "P 1"
_space_group_IT_number       1

loop_
  _space_group_symop_operation_xyz
  'x, y, z'

loop_
  _atom_site_type_symbol
  _atom_site_label
  _atom_site_symmetry_multiplicity
  _atom_site_fract_x
  _atom_site_fract_y
  _atom_site_fract_z
  _atom_site_occupancy
  Co  Co1       1.0  0.50000  0.32940  0.67060  1.0000
  Co  Co2       1.0  0.50000  0.67060  0.32940  1.0000
  H   H1        1.0  0.80318  0.49289  0.73895  1.0000
  H   H2        1.0  0.19682  0.26105  0.50710  1.0000
  H   H3        1.0  0.19683  0.50710  0.26104  1.0000
  H   H4        1.0  0.80316  0.73896  0.49292  1.0000
  H   H5        1.0  0.66456  0.43757  0.98484  1.0000
  H   H6        1.0  0.33544  0.01516  0.56243  1.0000
  H   H7        1.0  0.33544  0.56243  0.01515  1.0000
  H   H8        1.0  0.66455  0.98485  0.43758  1.0000
  H   H9        1.0  0.82797  0.32966  0.15978  1.0000
  H   H10       1.0  0.17203  0.84023  0.67033  1.0000
  H   H11       1.0  0.17204  0.67033  0.84022  1.0000
  H   H12       1.0  0.82796  0.15977  0.32967  1.0000
  H   H13       1.0  0.11912  0.44066  0.65480  1.0000
  H   H14       1.0  0.88089  0.34520  0.55934  1.0000
  H   H15       1.0  0.88090  0.55934  0.34520  1.0000
  H   H16       1.0  0.11910  0.65480  0.44068  1.0000
  H   H17       1.0  0.46488  0.22107  0.99633  1.0000
  H   H18       1.0  0.53513  0.00367  0.77894  1.0000
  H   H19       1.0  0.53513  0.77894  0.00367  1.0000
  H   H20       1.0  0.46487  0.99633  0.22106  1.0000
  H   H21       1.0  0.27488  0.24480  0.24480  1.0000
  H   H22       1.0  0.72511  0.75520  0.75520  1.0000
  H   H23       1.0  0.05430  0.27193  0.27192  1.0000
  H   H24       1.0  0.94570  0.72808  0.72806  1.0000
  C   C1        1.0  0.88142  0.44484  0.81090  1.0000
  C   C2        1.0  0.11859  0.18910  0.55516  1.0000
  C   C3        1.0  0.11858  0.55516  0.18910  1.0000
  C   C4        1.0  0.88140  0.81090  0.44485  1.0000
  C   C5        1.0  0.80150  0.41183  0.95179  1.0000
  C   C6        1.0  0.19850  0.04822  0.58816  1.0000
  C   C7        1.0  0.19852  0.58816  0.04821  1.0000
  C   C8        1.0  0.80149  0.95179  0.41184  1.0000
  C   C9        1.0  0.89222  0.34896  0.05072  1.0000
  C   C10       1.0  0.10779  0.94928  0.65103  1.0000
  C   C11       1.0  0.10780  0.65103  0.94927  1.0000
  C   C12       1.0  0.89220  0.05073  0.34897  1.0000
  C   C13       1.0  0.06686  0.31819  0.00202  1.0000
  C   C14       1.0  0.93314  0.99799  0.68181  1.0000
  C   C15       1.0  0.93315  0.68180  0.99798  1.0000
  C   C16       1.0  0.06686  0.00202  0.31820  1.0000
  C   C17       1.0  0.14823  0.34927  0.86059  1.0000
  C   C18       1.0  0.85177  0.13941  0.65073  1.0000
  C   C19       1.0  0.85178  0.65072  0.13941  1.0000
  C   C20       1.0  0.14822  0.86059  0.34928  1.0000
  C   C21       1.0  0.05539  0.41509  0.76307  1.0000
  C   C22       1.0  0.94461  0.23693  0.58491  1.0000
  C   C23       1.0  0.94462  0.58490  0.23692  1.0000
  C   C24       1.0  0.05538  0.76308  0.41511  1.0000
  C   C25       1.0  0.34416  0.25779  0.97116  1.0000
  C   C26       1.0  0.65583  0.02884  0.74221  1.0000
  C   C27       1.0  0.65584  0.74220  0.02883  1.0000
  C   C28       1.0  0.34416  0.97117  0.25779  1.0000
  C   C29       1.0  0.17843  0.21693  0.21693  1.0000
  C   C30       1.0  0.82157  0.78307  0.78307  1.0000
  S   S1        1.0  0.50001  0.62748  0.62748  1.0000
  S   S2        1.0  0.49999  0.37252  0.37252  1.0000
  N   N1        1.0  0.19555  0.26055  0.06923  1.0000
  N   N2        1.0  0.80445  0.93077  0.73945  1.0000
  N   N3        1.0  0.80446  0.73944  0.93077  1.0000
  N   N4        1.0  0.19554  0.06923  0.26056  1.0000
  N   N5        1.0  0.32179  0.30835  0.84493  1.0000
  N   N6        1.0  0.67822  0.15507  0.69165  1.0000
  N   N7        1.0  0.67822  0.69165  0.15507  1.0000
  N   N8        1.0  0.32178  0.84493  0.30835  1.0000
  O   O1        1.0  0.32672  0.63296  0.63296  1.0000
  O   O2        1.0  0.67327  0.36704  0.36704  1.0000
  O   O3        1.0  0.59276  0.47733  0.66926  1.0000
  O   O4        1.0  0.40724  0.33075  0.52267  1.0000
  O   O5        1.0  0.40724  0.52267  0.33074  1.0000
  O   O6        1.0  0.59276  0.66926  0.47732  1.0000
  O   O7        1.0  0.51707  0.71304  0.71304  1.0000
  O   O8        1.0  0.48293  0.28696  0.28696  1.0000
