data_image0
_chemical_formula_structural       Zn2H24C30S2N8O8
_chemical_formula_sum              "Zn2 H24 C30 S2 N8 O8"
_cell_length_a       8.75521
_cell_length_b       10.2712
_cell_length_c       10.2713
_cell_angle_alpha    76.7529
_cell_angle_beta     72.1529
_cell_angle_gamma    72.1534

_space_group_name_H-M_alt    "P 1"
_space_group_IT_number       1

loop_
  _space_group_symop_operation_xyz
  'x, y, z'

loop_
  _atom_site_type_symbol
  _atom_site_label
  _atom_site_symmetry_multiplicity
  _atom_site_fract_x
  _atom_site_fract_y
  _atom_site_fract_z
  _atom_site_occupancy
  Zn  Zn1       1.0  0.50001  0.32760  0.67240  1.0000
  Zn  Zn2       1.0  0.50000  0.67240  0.32760  1.0000
  H   H1        1.0  0.45668  0.22838  0.00330  1.0000
  H   H2        1.0  0.54333  0.99669  0.77161  1.0000
  H   H3        1.0  0.54332  0.77161  0.99670  1.0000
  H   H4        1.0  0.45667  0.00330  0.22839  1.0000
  H   H5        1.0  0.12307  0.44240  0.65580  1.0000
  H   H6        1.0  0.87692  0.34420  0.55760  1.0000
  H   H7        1.0  0.87693  0.55760  0.34420  1.0000
  H   H8        1.0  0.12307  0.65580  0.44240  1.0000
  H   H9        1.0  0.81020  0.49019  0.73574  1.0000
  H   H10       1.0  0.18980  0.26428  0.50981  1.0000
  H   H11       1.0  0.18980  0.50981  0.26426  1.0000
  H   H12       1.0  0.81020  0.73573  0.49020  1.0000
  H   H13       1.0  0.67084  0.43061  0.97936  1.0000
  H   H14       1.0  0.32916  0.02067  0.56938  1.0000
  H   H15       1.0  0.32916  0.56939  0.02064  1.0000
  H   H16       1.0  0.67083  0.97934  0.43063  1.0000
  H   H17       1.0  0.82815  0.32520  0.15706  1.0000
  H   H18       1.0  0.17187  0.84295  0.67478  1.0000
  H   H19       1.0  0.17186  0.67480  0.84294  1.0000
  H   H20       1.0  0.82813  0.15705  0.32521  1.0000
  H   H21       1.0  0.26665  0.24882  0.24882  1.0000
  H   H22       1.0  0.73336  0.75117  0.75117  1.0000
  H   H23       1.0  0.04873  0.27381  0.27381  1.0000
  H   H24       1.0  0.95127  0.72619  0.72619  1.0000
  C   C1        1.0  0.33889  0.26203  0.97561  1.0000
  C   C2        1.0  0.66112  0.02438  0.73797  1.0000
  C   C3        1.0  0.66111  0.73797  0.02438  1.0000
  C   C4        1.0  0.33888  0.97562  0.26203  1.0000
  C   C5        1.0  0.06595  0.31709  0.00217  1.0000
  C   C6        1.0  0.93406  0.99783  0.68290  1.0000
  C   C7        1.0  0.93406  0.68290  0.99783  1.0000
  C   C8        1.0  0.06594  0.00217  0.31710  1.0000
  C   C9        1.0  0.14820  0.34976  0.86185  1.0000
  C   C10       1.0  0.85181  0.13815  0.65023  1.0000
  C   C11       1.0  0.85181  0.65023  0.13814  1.0000
  C   C12       1.0  0.14818  0.86185  0.34977  1.0000
  C   C13       1.0  0.05852  0.41516  0.76302  1.0000
  C   C14       1.0  0.94148  0.23699  0.58484  1.0000
  C   C15       1.0  0.94148  0.58483  0.23698  1.0000
  C   C16       1.0  0.05852  0.76301  0.41516  1.0000
  C   C17       1.0  0.88663  0.44220  0.80848  1.0000
  C   C18       1.0  0.11337  0.19153  0.55779  1.0000
  C   C19       1.0  0.11338  0.55780  0.19152  1.0000
  C   C20       1.0  0.88662  0.80847  0.44221  1.0000
  C   C21       1.0  0.80595  0.40702  0.94823  1.0000
  C   C22       1.0  0.19405  0.05179  0.59297  1.0000
  C   C23       1.0  0.19405  0.59298  0.05177  1.0000
  C   C24       1.0  0.80595  0.94822  0.40703  1.0000
  C   C25       1.0  0.89348  0.34507  0.04863  1.0000
  C   C26       1.0  0.10653  0.95138  0.65491  1.0000
  C   C27       1.0  0.10652  0.65493  0.95137  1.0000
  C   C28       1.0  0.89346  0.04862  0.34509  1.0000
  C   C29       1.0  0.17244  0.21942  0.21942  1.0000
  C   C30       1.0  0.82757  0.78057  0.78057  1.0000
  S   S1        1.0  0.50034  0.63068  0.63068  1.0000
  S   S2        1.0  0.49967  0.36932  0.36932  1.0000
  N   N1        1.0  0.31884  0.31172  0.84898  1.0000
  N   N2        1.0  0.68117  0.15102  0.68828  1.0000
  N   N3        1.0  0.68116  0.68828  0.15102  1.0000
  N   N4        1.0  0.31883  0.84898  0.31172  1.0000
  N   N5        1.0  0.19153  0.26168  0.07137  1.0000
  N   N6        1.0  0.80848  0.92863  0.73831  1.0000
  N   N7        1.0  0.80848  0.73831  0.92863  1.0000
  N   N8        1.0  0.19152  0.07136  0.26169  1.0000
  O   O1        1.0  0.52173  0.71654  0.71654  1.0000
  O   O2        1.0  0.47828  0.28346  0.28346  1.0000
  O   O3        1.0  0.32678  0.63925  0.63926  1.0000
  O   O4        1.0  0.67322  0.36075  0.36075  1.0000
  O   O5        1.0  0.58968  0.48068  0.67188  1.0000
  O   O6        1.0  0.41034  0.32809  0.51932  1.0000
  O   O7        1.0  0.41033  0.51932  0.32812  1.0000
  O   O8        1.0  0.58966  0.67190  0.48068  1.0000
