data_image0
_chemical_formula_structural       Mn4H20C20N8Cl4O12
_chemical_formula_sum              "Mn4 H20 C20 N8 Cl4 O12"
_cell_length_a       8.71971
_cell_length_b       8.71967
_cell_length_c       11.8013
_cell_angle_alpha    101.768
_cell_angle_beta     101.768
_cell_angle_gamma    110.169

_space_group_name_H-M_alt    "P 1"
_space_group_IT_number       1

loop_
  _space_group_symop_operation_xyz
  'x, y, z'

loop_
  _atom_site_type_symbol
  _atom_site_label
  _atom_site_symmetry_multiplicity
  _atom_site_fract_x
  _atom_site_fract_y
  _atom_site_fract_z
  _atom_site_occupancy
  Mn  Mn1       1.0  0.70492  0.95510  0.27297  1.0000
  Mn  Mn2       1.0  0.95510  0.70492  0.77297  1.0000
  Mn  Mn3       1.0  0.29508  0.04490  0.72703  1.0000
  Mn  Mn4       1.0  0.04490  0.29508  0.22703  1.0000
  H   H1        1.0  0.68345  0.99606  0.49893  1.0000
  H   H2        1.0  0.99606  0.68345  0.99893  1.0000
  H   H3        1.0  0.31656  0.00394  0.50107  1.0000
  H   H4        1.0  0.00394  0.31655  0.00107  1.0000
  H   H5        1.0  0.68189  0.33357  0.39244  1.0000
  H   H6        1.0  0.33357  0.68189  0.89244  1.0000
  H   H7        1.0  0.31812  0.66643  0.60756  1.0000
  H   H8        1.0  0.66643  0.31811  0.10756  1.0000
  H   H9        1.0  0.44226  0.43992  0.37277  1.0000
  H   H10       1.0  0.43992  0.44226  0.87277  1.0000
  H   H11       1.0  0.55774  0.56008  0.62723  1.0000
  H   H12       1.0  0.56008  0.55774  0.12723  1.0000
  H   H13       1.0  0.10003  0.96436  0.13663  1.0000
  H   H14       1.0  0.96436  0.10003  0.63663  1.0000
  H   H15       1.0  0.89997  0.03564  0.86337  1.0000
  H   H16       1.0  0.03564  0.89997  0.36337  1.0000
  H   H17       1.0  0.51233  0.84566  0.41849  1.0000
  H   H18       1.0  0.84566  0.51233  0.91849  1.0000
  H   H19       1.0  0.48767  0.15434  0.58151  1.0000
  H   H20       1.0  0.15434  0.48767  0.08151  1.0000
  C   C1        1.0  0.55163  0.25169  0.33479  1.0000
  C   C2        1.0  0.25169  0.55163  0.83479  1.0000
  C   C3        1.0  0.44837  0.74831  0.66521  1.0000
  C   C4        1.0  0.74831  0.44837  0.16521  1.0000
  C   C5        1.0  0.42073  0.30992  0.32479  1.0000
  C   C6        1.0  0.30992  0.42073  0.82478  1.0000
  C   C7        1.0  0.57927  0.69008  0.67521  1.0000
  C   C8        1.0  0.69008  0.57927  0.17521  1.0000
  C   C9        1.0  0.23017  0.04641  0.19416  1.0000
  C   C10       1.0  0.04641  0.23017  0.69415  1.0000
  C   C11       1.0  0.76983  0.95359  0.80584  1.0000
  C   C12       1.0  0.95359  0.76983  0.30585  1.0000
  C   C13       1.0  0.36076  0.98740  0.20564  1.0000
  C   C14       1.0  0.98740  0.36076  0.70564  1.0000
  C   C15       1.0  0.63924  0.01260  0.79436  1.0000
  C   C16       1.0  0.01260  0.63924  0.29436  1.0000
  C   C17       1.0  0.32969  0.80443  0.14673  1.0000
  C   C18       1.0  0.80443  0.32970  0.64673  1.0000
  C   C19       1.0  0.67031  0.19557  0.85327  1.0000
  C   C20       1.0  0.19557  0.67031  0.35327  1.0000
  N   N1        1.0  0.52151  0.09132  0.27427  1.0000
  N   N2        1.0  0.09133  0.52151  0.77427  1.0000
  N   N3        1.0  0.47849  0.90868  0.72573  1.0000
  N   N4        1.0  0.90868  0.47849  0.22573  1.0000
  N   N5        1.0  0.26055  0.20737  0.25345  1.0000
  N   N6        1.0  0.20737  0.26055  0.75345  1.0000
  N   N7        1.0  0.73945  0.79263  0.74655  1.0000
  N   N8        1.0  0.79263  0.73945  0.24655  1.0000
  Cl  Cl1       1.0  0.96429  0.20414  0.40475  1.0000
  Cl  Cl2       1.0  0.20414  0.96429  0.90475  1.0000
  Cl  Cl3       1.0  0.03570  0.79586  0.59525  1.0000
  Cl  Cl4       1.0  0.79586  0.03571  0.09524  1.0000
  O   O1        1.0  0.46019  0.76910  0.15422  1.0000
  O   O2        1.0  0.76910  0.46019  0.65422  1.0000
  O   O3        1.0  0.53981  0.23090  0.84578  1.0000
  O   O4        1.0  0.23090  0.53981  0.34578  1.0000
  O   O5        1.0  0.17648  0.69612  0.09791  1.0000
  O   O6        1.0  0.69612  0.17648  0.59791  1.0000
  O   O7        1.0  0.82352  0.30388  0.90209  1.0000
  O   O8        1.0  0.30388  0.82352  0.40209  1.0000
  O   O9        1.0  0.63872  0.88794  0.43149  1.0000
  O   O10       1.0  0.88794  0.63872  0.93149  1.0000
  O   O11       1.0  0.36128  0.11206  0.56851  1.0000
  O   O12       1.0  0.11206  0.36128  0.06851  1.0000
