data_image0
_chemical_formula_structural       Cu2H32C16Br4N16O4
_chemical_formula_sum              "Cu2 H32 C16 Br4 N16 O4"
_cell_length_a       8.31179
_cell_length_b       9.01584
_cell_length_c       10.9995
_cell_angle_alpha    106.63
_cell_angle_beta     90
_cell_angle_gamma    90

_space_group_name_H-M_alt    "P 1"
_space_group_IT_number       1

loop_
  _space_group_symop_operation_xyz
  'x, y, z'

loop_
  _atom_site_type_symbol
  _atom_site_label
  _atom_site_symmetry_multiplicity
  _atom_site_fract_x
  _atom_site_fract_y
  _atom_site_fract_z
  _atom_site_occupancy
  Cu  Cu1       1.0  0.00000  0.00000  0.00000  1.0000
  Cu  Cu2       1.0  0.50000  0.50000  0.00000  1.0000
  H   H1        1.0  0.62845  0.84040  0.18614  1.0000
  H   H2        1.0  0.87155  0.34040  0.18614  1.0000
  H   H3        1.0  0.37155  0.15960  0.81386  1.0000
  H   H4        1.0  0.12845  0.65960  0.81386  1.0000
  H   H5        1.0  0.58559  0.13662  0.24051  1.0000
  H   H6        1.0  0.91440  0.63662  0.24052  1.0000
  H   H7        1.0  0.41441  0.86338  0.75949  1.0000
  H   H8        1.0  0.08559  0.36338  0.75948  1.0000
  H   H9        1.0  0.43644  0.20347  0.15224  1.0000
  H   H10       1.0  0.06356  0.70347  0.15225  1.0000
  H   H11       1.0  0.56356  0.79653  0.84776  1.0000
  H   H12       1.0  0.93644  0.29652  0.84776  1.0000
  H   H13       1.0  0.22075  0.16208  0.29942  1.0000
  H   H14       1.0  0.27925  0.66209  0.29942  1.0000
  H   H15       1.0  0.77926  0.83792  0.70058  1.0000
  H   H16       1.0  0.72075  0.33792  0.70058  1.0000
  H   H17       1.0  0.37235  0.29622  0.37982  1.0000
  H   H18       1.0  0.12764  0.79623  0.37983  1.0000
  H   H19       1.0  0.62765  0.70378  0.62018  1.0000
  H   H20       1.0  0.87235  0.20378  0.62018  1.0000
  H   H21       1.0  0.15436  0.08355  0.48244  1.0000
  H   H22       1.0  0.34564  0.58355  0.48244  1.0000
  H   H23       1.0  0.84564  0.91645  0.51756  1.0000
  H   H24       1.0  0.65436  0.41645  0.51756  1.0000
  H   H25       1.0  0.31577  0.01389  0.56062  1.0000
  H   H26       1.0  0.18423  0.51388  0.56062  1.0000
  H   H27       1.0  0.68423  0.98611  0.43938  1.0000
  H   H28       1.0  0.81577  0.48611  0.43938  1.0000
  H   H29       1.0  0.29801  0.21680  0.57703  1.0000
  H   H30       1.0  0.20199  0.71680  0.57703  1.0000
  H   H31       1.0  0.70198  0.78320  0.42297  1.0000
  H   H32       1.0  0.79801  0.28319  0.42297  1.0000
  C   C1        1.0  0.51590  0.84133  0.13670  1.0000
  C   C2        1.0  0.98410  0.34133  0.13670  1.0000
  C   C3        1.0  0.48410  0.15867  0.86330  1.0000
  C   C4        1.0  0.01590  0.65867  0.86329  1.0000
  C   C5        1.0  0.45807  0.12869  0.21341  1.0000
  C   C6        1.0  0.04192  0.62869  0.21341  1.0000
  C   C7        1.0  0.54193  0.87131  0.78659  1.0000
  C   C8        1.0  0.95807  0.37131  0.78659  1.0000
  C   C9        1.0  0.34867  0.17364  0.32855  1.0000
  C   C10       1.0  0.15132  0.67364  0.32855  1.0000
  C   C11       1.0  0.65133  0.82637  0.67145  1.0000
  C   C12       1.0  0.84867  0.32636  0.67145  1.0000
  C   C13       1.0  0.28176  0.09932  0.51181  1.0000
  C   C14       1.0  0.21823  0.59932  0.51181  1.0000
  C   C15       1.0  0.71824  0.90068  0.48819  1.0000
  C   C16       1.0  0.78177  0.40067  0.48819  1.0000
  Br  Br1       1.0  0.08626  0.98215  0.77933  1.0000
  Br  Br2       1.0  0.41374  0.48214  0.77933  1.0000
  Br  Br3       1.0  0.91374  0.01786  0.22067  1.0000
  Br  Br4       1.0  0.58626  0.51786  0.22067  1.0000
  N   N1        1.0  0.43057  0.96814  0.13938  1.0000
  N   N2        1.0  0.06943  0.46814  0.13938  1.0000
  N   N3        1.0  0.56943  0.03186  0.86062  1.0000
  N   N4        1.0  0.93057  0.53186  0.86062  1.0000
  N   N5        1.0  0.29943  0.92543  0.06384  1.0000
  N   N6        1.0  0.20057  0.42544  0.06384  1.0000
  N   N7        1.0  0.70056  0.07457  0.93616  1.0000
  N   N8        1.0  0.79944  0.57457  0.93616  1.0000
  N   N9        1.0  0.30662  0.77673  0.01559  1.0000
  N   N10       1.0  0.19338  0.27673  0.01559  1.0000
  N   N11       1.0  0.69338  0.22327  0.98441  1.0000
  N   N12       1.0  0.80662  0.72327  0.98441  1.0000
  N   N13       1.0  0.43991  0.72110  0.05878  1.0000
  N   N14       1.0  0.06009  0.22111  0.05879  1.0000
  N   N15       1.0  0.56009  0.27890  0.94122  1.0000
  N   N16       1.0  0.93991  0.77889  0.94121  1.0000
  O   O1        1.0  0.38503  0.07409  0.40413  1.0000
  O   O2        1.0  0.11497  0.57409  0.40413  1.0000
  O   O3        1.0  0.61497  0.92591  0.59587  1.0000
  O   O4        1.0  0.88504  0.42591  0.59587  1.0000
