data_image0
_chemical_formula_structural       Cd2H16C16S4N8
_chemical_formula_sum              "Cd2 H16 C16 S4 N8"
_cell_length_a       7.7406
_cell_length_b       8.07485
_cell_length_c       9.51164
_cell_angle_alpha    90.0001
_cell_angle_beta     90.0002
_cell_angle_gamma    115.918

_space_group_name_H-M_alt    "P 1"
_space_group_IT_number       1

loop_
  _space_group_symop_operation_xyz
  'x, y, z'

loop_
  _atom_site_type_symbol
  _atom_site_label
  _atom_site_symmetry_multiplicity
  _atom_site_fract_x
  _atom_site_fract_y
  _atom_site_fract_z
  _atom_site_occupancy
  Cd  Cd1       1.0  1.00000  1.00000  0.00000  1.0000
  Cd  Cd2       1.0  0.00000  0.50000  0.50000  1.0000
  H   H1        1.0  0.77900  0.20869  0.13017  1.0000
  H   H2        1.0  0.22100  0.29131  0.63017  1.0000
  H   H3        1.0  0.22100  0.79130  0.86983  1.0000
  H   H4        1.0  0.77899  0.70869  0.36983  1.0000
  H   H5        1.0  0.68900  0.83623  0.74110  1.0000
  H   H6        1.0  0.31100  0.66377  0.24111  1.0000
  H   H7        1.0  0.31100  0.16377  0.25889  1.0000
  H   H8        1.0  0.68900  0.33622  0.75889  1.0000
  H   H9        1.0  0.43366  0.72743  0.71629  1.0000
  H   H10       1.0  0.56634  0.77257  0.21630  1.0000
  H   H11       1.0  0.56634  0.27257  0.28370  1.0000
  H   H12       1.0  0.43366  0.22742  0.78370  1.0000
  H   H13       1.0  0.54053  0.63975  0.84267  1.0000
  H   H14       1.0  0.45947  0.86025  0.34268  1.0000
  H   H15       1.0  0.45946  0.36025  0.15732  1.0000
  H   H16       1.0  0.54053  0.13974  0.65732  1.0000
  C   C1        1.0  0.91242  0.58464  0.16215  1.0000
  C   C2        1.0  0.08759  0.91538  0.66216  1.0000
  C   C3        1.0  0.08760  0.41537  0.83785  1.0000
  C   C4        1.0  0.91241  0.08463  0.33785  1.0000
  C   C5        1.0  0.52657  0.88845  0.90273  1.0000
  C   C6        1.0  0.47343  0.61156  0.40273  1.0000
  C   C7        1.0  0.47343  0.11155  0.09727  1.0000
  C   C8        1.0  0.52657  0.38844  0.59727  1.0000
  C   C9        1.0  0.65317  0.11491  0.07155  1.0000
  C   C10       1.0  0.34682  0.38508  0.57155  1.0000
  C   C11       1.0  0.34683  0.88508  0.92845  1.0000
  C   C12       1.0  0.65317  0.61491  0.42845  1.0000
  C   C13       1.0  0.54961  0.76690  0.79383  1.0000
  C   C14       1.0  0.45039  0.73310  0.29383  1.0000
  C   C15       1.0  0.45038  0.23310  0.20617  1.0000
  C   C16       1.0  0.54961  0.26689  0.70617  1.0000
  S   S1        1.0  0.82098  0.62743  0.02045  1.0000
  S   S2        1.0  0.17901  0.87258  0.52045  1.0000
  S   S3        1.0  0.17903  0.37257  0.97955  1.0000
  S   S4        1.0  0.82097  0.12744  0.47955  1.0000
  N   N1        1.0  0.68000  0.00514  0.97726  1.0000
  N   N2        1.0  0.32000  0.49486  0.47726  1.0000
  N   N3        1.0  0.32000  0.99485  0.02274  1.0000
  N   N4        1.0  0.68000  0.50514  0.52274  1.0000
  N   N5        1.0  0.97412  0.54431  0.26363  1.0000
  N   N6        1.0  0.02589  0.95571  0.76363  1.0000
  N   N7        1.0  0.02589  0.45570  0.73638  1.0000
  N   N8        1.0  0.97411  0.04430  0.23638  1.0000
