data_image0
_chemical_formula_structural       K4H32C40N12
_chemical_formula_sum              "K4 H32 C40 N12"
_cell_length_a       6.70016
_cell_length_b       6.75897
_cell_length_c       20.5527
_cell_angle_alpha    89.9997
_cell_angle_beta     89.9999
_cell_angle_gamma    90

_space_group_name_H-M_alt    "P 1"
_space_group_IT_number       1

loop_
  _space_group_symop_operation_xyz
  'x, y, z'

loop_
  _atom_site_type_symbol
  _atom_site_label
  _atom_site_symmetry_multiplicity
  _atom_site_fract_x
  _atom_site_fract_y
  _atom_site_fract_z
  _atom_site_occupancy
  K   K1        1.0  0.04488  0.85306  0.25000  1.0000
  K   K2        1.0  0.45511  0.35304  0.25000  1.0000
  K   K3        1.0  0.54489  0.64694  0.75000  1.0000
  K   K4        1.0  0.95511  0.14695  0.75000  1.0000
  H   H1        1.0  0.77292  0.59008  0.35415  1.0000
  H   H2        1.0  0.72708  0.09009  0.35414  1.0000
  H   H3        1.0  0.27292  0.90991  0.85415  1.0000
  H   H4        1.0  0.77292  0.59009  0.14586  1.0000
  H   H5        1.0  0.22707  0.40991  0.64586  1.0000
  H   H6        1.0  0.27292  0.90991  0.64586  1.0000
  H   H7        1.0  0.72707  0.09009  0.14585  1.0000
  H   H8        1.0  0.22708  0.40991  0.85414  1.0000
  H   H9        1.0  0.83165  0.47620  0.46704  1.0000
  H   H10       1.0  0.66836  0.97620  0.46704  1.0000
  H   H11       1.0  0.33164  0.02380  0.96704  1.0000
  H   H12       1.0  0.83164  0.47620  0.03296  1.0000
  H   H13       1.0  0.16836  0.52380  0.53296  1.0000
  H   H14       1.0  0.33164  0.02380  0.53296  1.0000
  H   H15       1.0  0.66836  0.97620  0.03296  1.0000
  H   H16       1.0  0.16836  0.52380  0.96704  1.0000
  H   H17       1.0  0.06392  0.18452  0.48596  1.0000
  H   H18       1.0  0.43609  0.68452  0.48596  1.0000
  H   H19       1.0  0.56390  0.31548  0.98596  1.0000
  H   H20       1.0  0.06390  0.18452  0.01404  1.0000
  H   H21       1.0  0.93609  0.81548  0.51404  1.0000
  H   H22       1.0  0.56390  0.31548  0.51404  1.0000
  H   H23       1.0  0.43610  0.68452  0.01404  1.0000
  H   H24       1.0  0.93610  0.81548  0.98596  1.0000
  H   H25       1.0  0.23111  0.03628  0.38921  1.0000
  H   H26       1.0  0.26890  0.53628  0.38921  1.0000
  H   H27       1.0  0.73110  0.46372  0.88921  1.0000
  H   H28       1.0  0.23110  0.03628  0.11079  1.0000
  H   H29       1.0  0.76890  0.96372  0.61079  1.0000
  H   H30       1.0  0.73110  0.46372  0.61079  1.0000
  H   H31       1.0  0.26890  0.53628  0.11079  1.0000
  H   H32       1.0  0.76890  0.96372  0.88921  1.0000
  C   C1        1.0  0.96570  0.37000  0.30959  1.0000
  C   C2        1.0  0.53430  0.87000  0.30958  1.0000
  C   C3        1.0  0.46569  0.13000  0.80959  1.0000
  C   C4        1.0  0.96570  0.37000  0.19041  1.0000
  C   C5        1.0  0.03430  0.62999  0.69042  1.0000
  C   C6        1.0  0.46569  0.12999  0.69042  1.0000
  C   C7        1.0  0.53430  0.87000  0.19041  1.0000
  C   C8        1.0  0.03430  0.63000  0.80959  1.0000
  C   C9        1.0  0.87227  0.46600  0.36378  1.0000
  C   C10       1.0  0.62774  0.96601  0.36378  1.0000
  C   C11       1.0  0.37226  0.03399  0.86378  1.0000
  C   C12       1.0  0.87226  0.46601  0.13622  1.0000
  C   C13       1.0  0.12773  0.53399  0.63622  1.0000
  C   C14       1.0  0.37226  0.03399  0.63622  1.0000
  C   C15       1.0  0.62774  0.96601  0.13622  1.0000
  C   C16       1.0  0.12774  0.53399  0.86378  1.0000
  C   C17       1.0  0.90512  0.40163  0.42655  1.0000
  C   C18       1.0  0.59489  0.90162  0.42655  1.0000
  C   C19       1.0  0.40511  0.09838  0.92655  1.0000
  C   C20       1.0  0.90511  0.40162  0.07345  1.0000
  C   C21       1.0  0.09489  0.59838  0.57345  1.0000
  C   C22       1.0  0.40511  0.09837  0.57345  1.0000
  C   C23       1.0  0.59489  0.90162  0.07345  1.0000
  C   C24       1.0  0.09489  0.59838  0.92655  1.0000
  C   C25       1.0  0.03451  0.24128  0.43733  1.0000
  C   C26       1.0  0.46550  0.74128  0.43733  1.0000
  C   C27       1.0  0.53449  0.25872  0.93733  1.0000
  C   C28       1.0  0.03449  0.24128  0.06267  1.0000
  C   C29       1.0  0.96550  0.75872  0.56267  1.0000
  C   C30       1.0  0.53449  0.25872  0.56267  1.0000
  C   C31       1.0  0.46551  0.74128  0.06267  1.0000
  C   C32       1.0  0.96551  0.75872  0.93733  1.0000
  C   C33       1.0  0.12597  0.15856  0.38307  1.0000
  C   C34       1.0  0.37404  0.65855  0.38307  1.0000
  C   C35       1.0  0.62596  0.34144  0.88307  1.0000
  C   C36       1.0  0.12596  0.15855  0.11693  1.0000
  C   C37       1.0  0.87404  0.84145  0.61693  1.0000
  C   C38       1.0  0.62596  0.34145  0.61693  1.0000
  C   C39       1.0  0.37405  0.65856  0.11693  1.0000
  C   C40       1.0  0.87404  0.84145  0.88307  1.0000
  N   N1        1.0  0.91314  0.44083  0.25000  1.0000
  N   N2        1.0  0.58686  0.94083  0.25000  1.0000
  N   N3        1.0  0.41314  0.05917  0.75000  1.0000
  N   N4        1.0  0.08686  0.55916  0.75000  1.0000
  N   N5        1.0  0.09648  0.21751  0.32104  1.0000
  N   N6        1.0  0.40352  0.71752  0.32104  1.0000
  N   N7        1.0  0.59647  0.28248  0.82104  1.0000
  N   N8        1.0  0.09648  0.21752  0.17896  1.0000
  N   N9        1.0  0.90352  0.78248  0.67896  1.0000
  N   N10       1.0  0.59647  0.28248  0.67896  1.0000
  N   N11       1.0  0.40352  0.71752  0.17896  1.0000
  N   N12       1.0  0.90352  0.78248  0.82104  1.0000
