data_image0
_chemical_formula_structural       U2H44C42N4O12
_chemical_formula_sum              "U2 H44 C42 N4 O12"
_cell_length_a       8.87365
_cell_length_b       10.1752
_cell_length_c       12.313
_cell_angle_alpha    74.6294
_cell_angle_beta     69.656
_cell_angle_gamma    74.8312

_space_group_name_H-M_alt    "P 1"
_space_group_IT_number       1

loop_
  _space_group_symop_operation_xyz
  'x, y, z'

loop_
  _atom_site_type_symbol
  _atom_site_label
  _atom_site_symmetry_multiplicity
  _atom_site_fract_x
  _atom_site_fract_y
  _atom_site_fract_z
  _atom_site_occupancy
  U   U1        1.0  0.23360  0.11970  0.66679  1.0000
  U   U2        1.0  0.76639  0.88030  0.33321  1.0000
  H   H1        1.0  0.07185  0.06231  0.35160  1.0000
  H   H2        1.0  0.92815  0.93769  0.64840  1.0000
  H   H3        1.0  0.27039  0.96391  0.32910  1.0000
  H   H4        1.0  0.72961  0.03609  0.67090  1.0000
  H   H5        1.0  0.27331  0.12676  0.14846  1.0000
  H   H6        1.0  0.72669  0.87324  0.85154  1.0000
  H   H7        1.0  0.38267  0.18632  0.21539  1.0000
  H   H8        1.0  0.61733  0.81368  0.78461  1.0000
  H   H9        1.0  0.02046  0.29654  0.22993  1.0000
  H   H10       1.0  0.97954  0.70346  0.77007  1.0000
  H   H11       1.0  0.13621  0.36474  0.28524  1.0000
  H   H12       1.0  0.86379  0.63526  0.71476  1.0000
  H   H13       1.0  0.32982  0.41309  0.07473  1.0000
  H   H14       1.0  0.67018  0.58691  0.92527  1.0000
  H   H15       1.0  0.19661  0.36119  0.02453  1.0000
  H   H16       1.0  0.80339  0.63880  0.97547  1.0000
  H   H17       1.0  0.09612  0.59751  0.16281  1.0000
  H   H18       1.0  0.90388  0.40250  0.83719  1.0000
  H   H19       1.0  0.97057  0.55288  0.10114  1.0000
  H   H20       1.0  0.02943  0.44712  0.89886  1.0000
  H   H21       1.0  0.29817  0.64231  0.95269  1.0000
  H   H22       1.0  0.70183  0.35769  0.04730  1.0000
  H   H23       1.0  0.14951  0.62231  0.89804  1.0000
  H   H24       1.0  0.85049  0.37769  0.10196  1.0000
  H   H25       1.0  0.95043  0.81661  0.99088  1.0000
  H   H26       1.0  0.04957  0.18339  0.00912  1.0000
  H   H27       1.0  0.09306  0.83329  0.05380  1.0000
  H   H28       1.0  0.90694  0.16670  0.94620  1.0000
  H   H29       1.0  0.44671  0.03436  0.86800  1.0000
  H   H30       1.0  0.55328  0.96564  0.13200  1.0000
  H   H31       1.0  0.63190  0.11032  0.94445  1.0000
  H   H32       1.0  0.36810  0.88968  0.05555  1.0000
  H   H33       1.0  0.65928  0.36043  0.88688  1.0000
  H   H34       1.0  0.34072  0.63957  0.11312  1.0000
  H   H35       1.0  0.43918  0.75413  0.63441  1.0000
  H   H36       1.0  0.56083  0.24586  0.36559  1.0000
  H   H37       1.0  0.58695  0.59810  0.77147  1.0000
  H   H38       1.0  0.41305  0.40190  0.22853  1.0000
  H   H39       1.0  0.25925  0.78741  0.50905  1.0000
  H   H40       1.0  0.74075  0.21259  0.49095  1.0000
  H   H41       1.0  0.12480  0.67617  0.41528  1.0000
  H   H42       1.0  0.87520  0.32383  0.58472  1.0000
  H   H43       1.0  0.13839  0.41948  0.47246  1.0000
  H   H44       1.0  0.86161  0.58052  0.52755  1.0000
  C   C1        1.0  0.20737  0.09523  0.44884  1.0000
  C   C2        1.0  0.79262  0.90477  0.55116  1.0000
  C   C3        1.0  0.19966  0.06924  0.33655  1.0000
  C   C4        1.0  0.80034  0.93076  0.66345  1.0000
  C   C5        1.0  0.25954  0.17264  0.22386  1.0000
  C   C6        1.0  0.74046  0.82736  0.77614  1.0000
  C   C7        1.0  0.14458  0.31335  0.21446  1.0000
  C   C8        1.0  0.85542  0.68665  0.78554  1.0000
  C   C9        1.0  0.19973  0.40792  0.09484  1.0000
  C   C10       1.0  0.80027  0.59207  0.90516  1.0000
  C   C11       1.0  0.09934  0.55492  0.08827  1.0000
  C   C12       1.0  0.90066  0.44508  0.91173  1.0000
  C   C13       1.0  0.16496  0.65243  0.97240  1.0000
  C   C14       1.0  0.83504  0.34757  0.02760  1.0000
  C   C15       1.0  0.08234  0.80364  0.97776  1.0000
  C   C16       1.0  0.91766  0.19636  0.02224  1.0000
  C   C17       1.0  0.14939  0.90421  0.86795  1.0000
  C   C18       1.0  0.85061  0.09578  0.13205  1.0000
  C   C19       1.0  0.46449  0.14131  0.84341  1.0000
  C   C20       1.0  0.53551  0.85869  0.15659  1.0000
  C   C21       1.0  0.56629  0.18495  0.88688  1.0000
  C   C22       1.0  0.43371  0.81504  0.11312  1.0000
  C   C23       1.0  0.58174  0.32259  0.85491  1.0000
  C   C24       1.0  0.41826  0.67741  0.14509  1.0000
  C   C25       1.0  0.49852  0.41543  0.77781  1.0000
  C   C26       1.0  0.50148  0.58457  0.22220  1.0000
  C   C27       1.0  0.40301  0.36054  0.73485  1.0000
  C   C28       1.0  0.59699  0.63946  0.26515  1.0000
  C   C29       1.0  0.32833  0.44851  0.64787  1.0000
  C   C30       1.0  0.67167  0.55149  0.35212  1.0000
  C   C31       1.0  0.33798  0.59173  0.61507  1.0000
  C   C32       1.0  0.66203  0.40827  0.38493  1.0000
  C   C33       1.0  0.43019  0.64482  0.66309  1.0000
  C   C34       1.0  0.56981  0.35518  0.33691  1.0000
  C   C35       1.0  0.51052  0.55880  0.73946  1.0000
  C   C36       1.0  0.48948  0.44119  0.26054  1.0000
  C   C37       1.0  0.25977  0.67606  0.53148  1.0000
  C   C38       1.0  0.74023  0.32394  0.46852  1.0000
  C   C39       1.0  0.18465  0.61539  0.48144  1.0000
  C   C40       1.0  0.81535  0.38461  0.51856  1.0000
  C   C41       1.0  0.18870  0.47148  0.51487  1.0000
  C   C42       1.0  0.81130  0.52852  0.48513  1.0000
  N   N1        1.0  0.38413  0.22595  0.77001  1.0000
  N   N2        1.0  0.61587  0.77405  0.22999  1.0000
  N   N3        1.0  0.25627  0.38949  0.59651  1.0000
  N   N4        1.0  0.74373  0.61051  0.40349  1.0000
  O   O1        1.0  0.02098  0.20387  0.71723  1.0000
  O   O2        1.0  0.97902  0.79613  0.28277  1.0000
  O   O3        1.0  0.44555  0.03669  0.61946  1.0000
  O   O4        1.0  0.55446  0.96331  0.38054  1.0000
  O   O5        1.0  0.24887  0.20366  0.45561  1.0000
  O   O6        1.0  0.75113  0.79635  0.54439  1.0000
  O   O7        1.0  0.16999  0.00451  0.54383  1.0000
  O   O8        1.0  0.83001  0.99549  0.45617  1.0000
  O   O9        1.0  0.14668  0.89465  0.76741  1.0000
  O   O10       1.0  0.85332  0.10535  0.23259  1.0000
  O   O11       1.0  0.20861  0.00394  0.87380  1.0000
  O   O12       1.0  0.79139  0.99606  0.12620  1.0000
