data_image0
_chemical_formula_structural       U2H32C32N4O12
_chemical_formula_sum              "U2 H32 C32 N4 O12"
_cell_length_a       7.41937
_cell_length_b       9.98809
_cell_length_c       12.158
_cell_angle_alpha    89.428
_cell_angle_beta     99.6953
_cell_angle_gamma    105.524

_space_group_name_H-M_alt    "P 1"
_space_group_IT_number       1

loop_
  _space_group_symop_operation_xyz
  'x, y, z'

loop_
  _atom_site_type_symbol
  _atom_site_label
  _atom_site_symmetry_multiplicity
  _atom_site_fract_x
  _atom_site_fract_y
  _atom_site_fract_z
  _atom_site_occupancy
  U   U1        1.0  0.61644  0.29539  0.24929  1.0000
  U   U2        1.0  0.38355  0.70461  0.75071  1.0000
  H   H1        1.0  0.93798  0.94031  0.18930  1.0000
  H   H2        1.0  0.06202  0.05969  0.81070  1.0000
  H   H3        1.0  0.08655  0.10586  0.17722  1.0000
  H   H4        1.0  0.91346  0.89414  0.82278  1.0000
  H   H5        1.0  0.88174  0.10614  0.97834  1.0000
  H   H6        1.0  0.11826  0.89386  0.02166  1.0000
  H   H7        1.0  0.78554  0.92822  0.99147  1.0000
  H   H8        1.0  0.21446  0.07178  0.00853  1.0000
  H   H9        1.0  0.08728  0.29516  0.99477  1.0000
  H   H10       1.0  0.91272  0.70484  0.00523  1.0000
  H   H11       1.0  0.23321  0.41848  0.92129  1.0000
  H   H12       1.0  0.76679  0.58151  0.07871  1.0000
  H   H13       1.0  0.07709  0.49401  0.12378  1.0000
  H   H14       1.0  0.92291  0.50599  0.87622  1.0000
  H   H15       1.0  0.19070  0.61170  0.03014  1.0000
  H   H16       1.0  0.80930  0.38830  0.96986  1.0000
  H   H17       1.0  0.58902  0.63081  0.24934  1.0000
  H   H18       1.0  0.41099  0.36919  0.75066  1.0000
  H   H19       1.0  0.71914  0.86113  0.35246  1.0000
  H   H20       1.0  0.28086  0.13888  0.64755  1.0000
  H   H21       1.0  0.87092  0.86469  0.55631  1.0000
  H   H22       1.0  0.12908  0.13531  0.44370  1.0000
  H   H23       1.0  0.88175  0.64268  0.64364  1.0000
  H   H24       1.0  0.11825  0.35732  0.35636  1.0000
  H   H25       1.0  0.80687  0.45241  0.71281  1.0000
  H   H26       1.0  0.19312  0.54759  0.28719  1.0000
  H   H27       1.0  0.80405  0.21775  0.78418  1.0000
  H   H28       1.0  0.19594  0.78225  0.21582  1.0000
  H   H29       1.0  0.72791  0.01623  0.64588  1.0000
  H   H30       1.0  0.27209  0.98377  0.35412  1.0000
  H   H31       1.0  0.67206  0.06332  0.44191  1.0000
  H   H32       1.0  0.32794  0.93669  0.55809  1.0000
  C   C1        1.0  0.80509  0.10478  0.18457  1.0000
  C   C2        1.0  0.19492  0.89523  0.81543  1.0000
  C   C3        1.0  0.94345  0.03797  0.14531  1.0000
  C   C4        1.0  0.05655  0.96203  0.85469  1.0000
  C   C5        1.0  0.91355  0.01410  0.01895  1.0000
  C   C6        1.0  0.08645  0.98590  0.98105  1.0000
  C   C7        1.0  0.35752  0.38358  0.08550  1.0000
  C   C8        1.0  0.64249  0.61642  0.91450  1.0000
  C   C9        1.0  0.19001  0.39894  0.00333  1.0000
  C   C10       1.0  0.81000  0.60106  0.99667  1.0000
  C   C11       1.0  0.09646  0.50701  0.03654  1.0000
  C   C12       1.0  0.90355  0.49299  0.96346  1.0000
  C   C13       1.0  0.65587  0.63798  0.33684  1.0000
  C   C14       1.0  0.34414  0.36202  0.66316  1.0000
  C   C15       1.0  0.72757  0.76583  0.39505  1.0000
  C   C16       1.0  0.27243  0.23418  0.60495  1.0000
  C   C17       1.0  0.80948  0.76787  0.50710  1.0000
  C   C18       1.0  0.19052  0.23213  0.49290  1.0000
  C   C19       1.0  0.81564  0.64277  0.55683  1.0000
  C   C20       1.0  0.18436  0.35724  0.44317  1.0000
  C   C21       1.0  0.74126  0.51834  0.49285  1.0000
  C   C22       1.0  0.25874  0.48166  0.50715  1.0000
  C   C23       1.0  0.74554  0.38215  0.53961  1.0000
  C   C24       1.0  0.25446  0.61785  0.46039  1.0000
  C   C25       1.0  0.78203  0.36468  0.65494  1.0000
  C   C26       1.0  0.21796  0.63532  0.34505  1.0000
  C   C27       1.0  0.77871  0.23317  0.69455  1.0000
  C   C28       1.0  0.22128  0.76683  0.30545  1.0000
  C   C29       1.0  0.73788  0.12156  0.61815  1.0000
  C   C30       1.0  0.26211  0.87844  0.38184  1.0000
  C   C31       1.0  0.70339  0.14681  0.50485  1.0000
  C   C32       1.0  0.29661  0.85319  0.49515  1.0000
  N   N1        1.0  0.66215  0.51667  0.38381  1.0000
  N   N2        1.0  0.33785  0.48333  0.61619  1.0000
  N   N3        1.0  0.70770  0.27365  0.46548  1.0000
  N   N4        1.0  0.29230  0.72635  0.53452  1.0000
  O   O1        1.0  0.40502  0.16530  0.27414  1.0000
  O   O2        1.0  0.59497  0.83469  0.72587  1.0000
  O   O3        1.0  0.83310  0.42120  0.22762  1.0000
  O   O4        1.0  0.16690  0.57881  0.77238  1.0000
  O   O5        1.0  0.81730  0.13163  0.28952  1.0000
  O   O6        1.0  0.18271  0.86837  0.71048  1.0000
  O   O7        1.0  0.68082  0.14298  0.11531  1.0000
  O   O8        1.0  0.31919  0.85702  0.88468  1.0000
  O   O9        1.0  0.46993  0.31806  0.05692  1.0000
  O   O10       1.0  0.53007  0.68194  0.94308  1.0000
  O   O11       1.0  0.38627  0.42843  0.18742  1.0000
  O   O12       1.0  0.61373  0.57157  0.81258  1.0000
