data_image0
_chemical_formula_structural       Cu2H54C48S16O16
_chemical_formula_sum              "Cu2 H54 C48 S16 O16"
_cell_length_a       9.60933
_cell_length_b       13.3685
_cell_length_c       13.4681
_cell_angle_alpha    92.0863
_cell_angle_beta     110.593
_cell_angle_gamma    109.391

_space_group_name_H-M_alt    "P 1"
_space_group_IT_number       1

loop_
  _space_group_symop_operation_xyz
  'x, y, z'

loop_
  _atom_site_type_symbol
  _atom_site_label
  _atom_site_symmetry_multiplicity
  _atom_site_fract_x
  _atom_site_fract_y
  _atom_site_fract_z
  _atom_site_occupancy
  Cu  Cu1       1.0  0.85550  0.77499  0.21638  1.0000
  Cu  Cu2       1.0  0.14449  0.22501  0.78362  1.0000
  H   H1        1.0  0.96325  0.56878  0.54710  1.0000
  H   H2        1.0  0.03675  0.43122  0.45290  1.0000
  H   H3        1.0  0.05997  0.50086  0.64366  1.0000
  H   H4        1.0  0.94003  0.49914  0.35634  1.0000
  H   H5        1.0  0.96816  0.58254  0.68251  1.0000
  H   H6        1.0  0.03184  0.41747  0.31749  1.0000
  H   H7        1.0  0.38633  0.64003  0.26294  1.0000
  H   H8        1.0  0.61367  0.35997  0.73706  1.0000
  H   H9        1.0  0.30736  0.56947  0.12832  1.0000
  H   H10       1.0  0.69263  0.43052  0.87169  1.0000
  H   H11       1.0  0.49719  0.57415  0.22048  1.0000
  H   H12       1.0  0.50281  0.42585  0.77952  1.0000
  H   H13       1.0  0.65495  0.37721  0.23895  1.0000
  H   H14       1.0  0.34505  0.62280  0.76105  1.0000
  H   H15       1.0  0.96118  0.70848  0.45205  1.0000
  H   H16       1.0  0.03882  0.29152  0.54795  1.0000
  H   H17       1.0  0.76627  0.60530  0.38743  1.0000
  H   H18       1.0  0.23373  0.39470  0.61257  1.0000
  H   H19       1.0  0.81199  0.69302  0.50830  1.0000
  H   H20       1.0  0.18801  0.30698  0.49170  1.0000
  H   H21       1.0  0.33043  0.92621  0.43699  1.0000
  H   H22       1.0  0.66957  0.07379  0.56301  1.0000
  H   H23       1.0  0.26372  0.83733  0.31374  1.0000
  H   H24       1.0  0.73628  0.16267  0.68627  1.0000
  H   H25       1.0  0.17780  0.79480  0.41089  1.0000
  H   H26       1.0  0.82220  0.20520  0.58912  1.0000
  H   H27       1.0  0.84016  0.75190  0.96578  1.0000
  H   H28       1.0  0.15984  0.24810  0.03422  1.0000
  H   H29       1.0  0.80296  0.87433  0.96627  1.0000
  H   H30       1.0  0.19704  0.12567  0.03373  1.0000
  H   H31       1.0  0.65293  0.75649  0.87375  1.0000
  H   H32       1.0  0.34707  0.24351  0.12625  1.0000
  H   H33       1.0  0.96161  0.51139  0.08798  1.0000
  H   H34       1.0  0.03839  0.48861  0.91201  1.0000
  H   H35       1.0  0.10471  0.63898  0.16801  1.0000
  H   H36       1.0  0.89529  0.36102  0.83198  1.0000
  H   H37       1.0  0.96202  0.63633  0.03948  1.0000
  H   H38       1.0  0.03798  0.36367  0.96051  1.0000
  H   H39       1.0  0.63483  0.77721  0.62375  1.0000
  H   H40       1.0  0.36516  0.22279  0.37625  1.0000
  H   H41       1.0  0.83773  0.12104  0.33214  1.0000
  H   H42       1.0  0.16227  0.87895  0.66786  1.0000
  H   H43       1.0  0.83098  0.21414  0.23821  1.0000
  H   H44       1.0  0.16902  0.78585  0.76179  1.0000
  H   H45       1.0  0.01578  0.19783  0.31259  1.0000
  H   H46       1.0  0.98422  0.80217  0.68741  1.0000
  H   H47       1.0  0.38706  0.04653  0.25319  1.0000
  H   H48       1.0  0.61294  0.95347  0.74681  1.0000
  H   H49       1.0  0.59314  0.12890  0.29064  1.0000
  H   H50       1.0  0.40686  0.87110  0.70936  1.0000
  H   H51       1.0  0.53396  0.04175  0.37829  1.0000
  H   H52       1.0  0.46604  0.95826  0.62171  1.0000
  H   H53       1.0  0.20525  0.75587  0.00173  1.0000
  H   H54       1.0  0.79475  0.24413  0.99827  1.0000
  C   C1        1.0  0.62719  0.46125  0.53595  1.0000
  C   C2        1.0  0.37281  0.53875  0.46405  1.0000
  C   C3        1.0  0.52268  0.43769  0.42712  1.0000
  C   C4        1.0  0.47732  0.56231  0.57289  1.0000
  C   C5        1.0  0.39703  0.47580  0.39000  1.0000
  C   C6        1.0  0.60298  0.52420  0.61000  1.0000
  C   C7        1.0  0.54730  0.37217  0.34617  1.0000
  C   C8        1.0  0.45270  0.62783  0.65383  1.0000
  C   C9        1.0  0.95938  0.52833  0.61574  1.0000
  C   C10       1.0  0.04062  0.47167  0.38426  1.0000
  C   C11       1.0  0.37791  0.57015  0.21266  1.0000
  C   C12       1.0  0.62209  0.42985  0.78734  1.0000
  C   C13       1.0  0.89429  0.90200  0.43197  1.0000
  C   C14       1.0  0.10571  0.09800  0.56803  1.0000
  C   C15       1.0  0.03291  0.96127  0.41495  1.0000
  C   C16       1.0  0.96709  0.03873  0.58505  1.0000
  C   C17       1.0  0.83340  0.68711  0.43406  1.0000
  C   C18       1.0  0.16660  0.31289  0.56594  1.0000
  C   C19       1.0  0.22719  0.86346  0.37553  1.0000
  C   C20       1.0  0.77281  0.13654  0.62447  1.0000
  C   C21       1.0  0.57434  0.61287  0.02568  1.0000
  C   C22       1.0  0.42566  0.38713  0.97432  1.0000
  C   C23       1.0  0.65930  0.54776  0.07425  1.0000
  C   C24       1.0  0.34070  0.45224  0.92575  1.0000
  C   C25       1.0  0.58568  0.43505  0.04690  1.0000
  C   C26       1.0  0.41432  0.56495  0.95310  1.0000
  C   C27       1.0  0.67923  0.36179  0.08420  1.0000
  C   C28       1.0  0.32077  0.63821  0.91580  1.0000
  C   C29       1.0  0.74807  0.78619  0.95425  1.0000
  C   C30       1.0  0.25193  0.21381  0.04575  1.0000
  C   C31       1.0  0.98230  0.59632  0.10954  1.0000
  C   C32       1.0  0.01769  0.40368  0.89046  1.0000
  C   C33       1.0  0.86178  0.94053  0.51639  1.0000
  C   C34       1.0  0.13823  0.05947  0.48361  1.0000
  C   C35       1.0  0.71075  0.87791  0.53317  1.0000
  C   C36       1.0  0.28925  0.12209  0.46683  1.0000
  C   C37       1.0  0.65557  0.02514  0.07913  1.0000
  C   C38       1.0  0.34443  0.97486  0.92087  1.0000
  C   C39       1.0  0.52079  0.97691  0.10507  1.0000
  C   C40       1.0  0.47921  0.02309  0.89493  1.0000
  C   C41       1.0  0.36719  0.95229  0.02551  1.0000
  C   C42       1.0  0.63281  0.04771  0.97449  1.0000
  C   C43       1.0  0.22140  0.90274  0.05246  1.0000
  C   C44       1.0  0.77860  0.09726  0.94754  1.0000
  C   C45       1.0  0.88569  0.15711  0.27361  1.0000
  C   C46       1.0  0.11431  0.84289  0.72639  1.0000
  C   C47       1.0  0.51031  0.05121  0.29422  1.0000
  C   C48       1.0  0.48969  0.94879  0.70578  1.0000
  S   S1        1.0  0.78084  0.40785  0.57557  1.0000
  S   S2        1.0  0.21916  0.59215  0.42443  1.0000
  S   S3        1.0  0.27621  0.44626  0.24985  1.0000
  S   S4        1.0  0.72379  0.55374  0.75016  1.0000
  S   S5        1.0  0.75765  0.77552  0.34988  1.0000
  S   S6        1.0  0.24235  0.22448  0.65012  1.0000
  S   S7        1.0  0.07747  0.91904  0.30562  1.0000
  S   S8        1.0  0.92253  0.08096  0.69438  1.0000
  S   S9        1.0  0.66064  0.75697  0.05466  1.0000
  S   S10       1.0  0.33935  0.24303  0.94534  1.0000
  S   S11       1.0  0.85408  0.60592  0.17827  1.0000
  S   S12       1.0  0.14592  0.39408  0.82173  1.0000
  S   S13       1.0  0.85603  0.05467  0.16848  1.0000
  S   S14       1.0  0.14397  0.94533  0.83152  1.0000
  S   S15       1.0  0.54111  0.94093  0.23374  1.0000
  S   S16       1.0  0.45889  0.05907  0.76626  1.0000
  O   O1        1.0  0.63809  0.42845  0.30035  1.0000
  O   O2        1.0  0.36191  0.57155  0.69965  1.0000
  O   O3        1.0  0.48311  0.27188  0.32664  1.0000
  O   O4        1.0  0.51688  0.72813  0.67336  1.0000
  O   O5        1.0  0.69128  0.32752  0.17304  1.0000
  O   O6        1.0  0.30871  0.67247  0.82696  1.0000
  O   O7        1.0  0.73795  0.33940  0.02054  1.0000
  O   O8        1.0  0.26205  0.66060  0.97946  1.0000
  O   O9        1.0  0.73256  0.81036  0.60149  1.0000
  O   O10       1.0  0.26745  0.18965  0.39851  1.0000
  O   O11       1.0  0.58535  0.89232  0.48801  1.0000
  O   O12       1.0  0.41465  0.10767  0.51199  1.0000
  O   O13       1.0  0.15020  0.79578  0.03043  1.0000
  O   O14       1.0  0.84981  0.20422  0.96958  1.0000
  O   O15       1.0  0.16959  0.95849  0.09274  1.0000
  O   O16       1.0  0.83041  0.04151  0.90726  1.0000
