data_image0
_chemical_formula_structural       Ca2H24C12S4N8O18
_chemical_formula_sum              "Ca2 H24 C12 S4 N8 O18"
_cell_length_a       5.89708
_cell_length_b       9.21965
_cell_length_c       13.0101
_cell_angle_alpha    74.7918
_cell_angle_beta     88.2908
_cell_angle_gamma    79.3914

_space_group_name_H-M_alt    "P 1"
_space_group_IT_number       1

loop_
  _space_group_symop_operation_xyz
  'x, y, z'

loop_
  _atom_site_type_symbol
  _atom_site_label
  _atom_site_symmetry_multiplicity
  _atom_site_fract_x
  _atom_site_fract_y
  _atom_site_fract_z
  _atom_site_occupancy
  Ca  Ca1       1.0  0.18677  0.05266  0.70076  1.0000
  Ca  Ca2       1.0  0.81323  0.94733  0.29924  1.0000
  H   H1        1.0  0.64260  0.30458  0.68464  1.0000
  H   H2        1.0  0.35740  0.69541  0.31536  1.0000
  H   H3        1.0  0.59790  0.78217  0.83018  1.0000
  H   H4        1.0  0.40210  0.21783  0.16982  1.0000
  H   H5        1.0  0.59682  0.59566  0.61916  1.0000
  H   H6        1.0  0.40320  0.40433  0.38084  1.0000
  H   H7        1.0  0.95339  0.43286  0.61182  1.0000
  H   H8        1.0  0.04661  0.56715  0.38818  1.0000
  H   H9        1.0  0.95578  0.57727  0.82849  1.0000
  H   H10       1.0  0.04423  0.42274  0.17151  1.0000
  H   H11       1.0  0.54751  0.03644  0.87187  1.0000
  H   H12       1.0  0.45248  0.96356  0.12813  1.0000
  H   H13       1.0  0.36972  0.93588  0.92332  1.0000
  H   H14       1.0  0.63027  0.06412  0.07668  1.0000
  H   H15       1.0  0.97124  0.85680  0.90176  1.0000
  H   H16       1.0  0.02875  0.14320  0.09824  1.0000
  H   H17       1.0  0.65824  0.08565  0.59812  1.0000
  H   H18       1.0  0.34175  0.91435  0.40188  1.0000
  H   H19       1.0  0.15096  0.75995  0.84414  1.0000
  H   H20       1.0  0.84904  0.24005  0.15586  1.0000
  H   H21       1.0  0.62423  0.92105  0.60354  1.0000
  H   H22       1.0  0.37576  0.07895  0.39646  1.0000
  H   H23       1.0  0.32710  0.38919  0.90273  1.0000
  H   H24       1.0  0.67290  0.61081  0.09727  1.0000
  C   C1        1.0  0.45890  0.53107  0.62230  1.0000
  C   C2        1.0  0.54111  0.46892  0.37770  1.0000
  C   C3        1.0  0.22350  0.57960  0.59948  1.0000
  C   C4        1.0  0.77650  0.42040  0.40053  1.0000
  C   C5        1.0  0.12997  0.44518  0.62023  1.0000
  C   C6        1.0  0.87003  0.55482  0.37977  1.0000
  C   C7        1.0  0.78299  0.55409  0.84453  1.0000
  C   C8        1.0  0.21702  0.44591  0.15547  1.0000
  C   C9        1.0  0.69635  0.41838  0.87120  1.0000
  C   C10       1.0  0.30366  0.58162  0.12880  1.0000
  C   C11       1.0  0.45601  0.46204  0.88181  1.0000
  C   C12       1.0  0.54399  0.53797  0.11819  1.0000
  S   S1        1.0  0.07223  0.76654  0.55731  1.0000
  S   S2        1.0  0.92777  0.23346  0.44269  1.0000
  S   S3        1.0  0.85139  0.23279  0.88744  1.0000
  S   S4        1.0  0.14861  0.76722  0.11256  1.0000
  N   N1        1.0  0.29499  0.32175  0.65371  1.0000
  N   N2        1.0  0.70501  0.67825  0.34629  1.0000
  N   N3        1.0  0.49227  0.37725  0.65343  1.0000
  N   N4        1.0  0.50773  0.62274  0.34657  1.0000
  N   N5        1.0  0.39946  0.61420  0.86268  1.0000
  N   N6        1.0  0.60054  0.38581  0.13732  1.0000
  N   N7        1.0  0.59999  0.66708  0.84003  1.0000
  N   N8        1.0  0.40001  0.33293  0.15997  1.0000
  O   O1        1.0  0.10186  0.81657  0.43974  1.0000
  O   O2        1.0  0.89815  0.18343  0.56026  1.0000
  O   O3        1.0  0.83141  0.75854  0.58407  1.0000
  O   O4        1.0  0.16859  0.24145  0.41593  1.0000
  O   O5        1.0  0.18243  0.85641  0.61157  1.0000
  O   O6        1.0  0.81756  0.14359  0.38843  1.0000
  O   O7        1.0  0.89205  0.21130  0.77854  1.0000
  O   O8        1.0  0.10795  0.78870  0.22146  1.0000
  O   O9        1.0  0.06518  0.21986  0.94556  1.0000
  O   O10       1.0  0.93482  0.78013  0.05444  1.0000
  O   O11       1.0  0.69534  0.13155  0.94407  1.0000
  O   O12       1.0  0.30465  0.86846  0.05593  1.0000
  O   O13       1.0  0.02747  0.85402  0.83024  1.0000
  O   O14       1.0  0.97253  0.14598  0.16976  1.0000
  O   O15       1.0  0.44327  0.97332  0.85416  1.0000
  O   O16       1.0  0.55672  0.02668  0.14584  1.0000
  O   O17       1.0  0.54912  0.01528  0.62212  1.0000
  O   O18       1.0  0.45087  0.98472  0.37788  1.0000
