data_image0
_chemical_formula_structural       Cu2H12C8N4F8
_chemical_formula_sum              "Cu2 H12 C8 N4 F8"
_cell_length_a       6.70049
_cell_length_b       7.01942
_cell_length_c       8.02497
_cell_angle_alpha    91.39
_cell_angle_beta     89.9935
_cell_angle_gamma    118.521

_space_group_name_H-M_alt    "P 1"
_space_group_IT_number       1

loop_
  _space_group_symop_operation_xyz
  'x, y, z'

loop_
  _atom_site_type_symbol
  _atom_site_label
  _atom_site_symmetry_multiplicity
  _atom_site_fract_x
  _atom_site_fract_y
  _atom_site_fract_z
  _atom_site_occupancy
  Cu  Cu1       1.0  0.50000  1.00000  0.50000  1.0000
  Cu  Cu2       1.0  0.50001  0.00000  0.00000  1.0000
  H   H1        1.0  0.33844  0.67648  0.75285  1.0000
  H   H2        1.0  0.66156  0.32354  0.24715  1.0000
  H   H3        1.0  0.64730  0.66869  0.43978  1.0000
  H   H4        1.0  0.35164  0.32623  0.93908  1.0000
  H   H5        1.0  0.02461  0.67334  0.06095  1.0000
  H   H6        1.0  0.97927  0.33168  0.56005  1.0000
  H   H7        1.0  0.35270  0.33130  0.56021  1.0000
  H   H8        1.0  0.64839  0.67378  0.06092  1.0000
  H   H9        1.0  0.97541  0.32666  0.93907  1.0000
  H   H10       1.0  0.02073  0.66828  0.43993  1.0000
  H   H11       1.0  0.31395  0.63012  0.26298  1.0000
  H   H12       1.0  0.68603  0.36992  0.73702  1.0000
  C   C1        1.0  0.80451  0.81686  0.46582  1.0000
  C   C2        1.0  0.19425  0.18069  0.96523  1.0000
  C   C3        1.0  0.01318  0.81907  0.03476  1.0000
  C   C4        1.0  0.98802  0.18342  0.53396  1.0000
  C   C5        1.0  0.19547  0.18309  0.53417  1.0000
  C   C6        1.0  0.80576  0.81929  0.03478  1.0000
  C   C7        1.0  0.98684  0.18095  0.96524  1.0000
  C   C8        1.0  0.01200  0.81664  0.46603  1.0000
  N   N1        1.0  0.79451  0.00020  0.49983  1.0000
  N   N2        1.0  0.20533  0.99984  0.00004  1.0000
  N   N3        1.0  0.20547  0.99978  0.50016  1.0000
  N   N4        1.0  0.79467  0.00016  0.99997  1.0000
  F   F1        1.0  0.32752  0.65412  0.62345  1.0000
  F   F2        1.0  0.65084  0.30217  0.08688  1.0000
  F   F3        1.0  0.34916  0.69784  0.91312  1.0000
  F   F4        1.0  0.67246  0.34588  0.37655  1.0000
  F   F5        1.0  0.42875  0.85765  0.27529  1.0000
  F   F6        1.0  0.57125  0.14235  0.72471  1.0000
  F   F7        1.0  0.23214  0.46836  0.25382  1.0000
  F   F8        1.0  0.76783  0.53164  0.74619  1.0000
