data_image0
_chemical_formula_structural       K4H4C32N16O8
_chemical_formula_sum              "K4 H4 C32 N16 O8"
_cell_length_a       4.17748
_cell_length_b       9.40114
_cell_length_c       21.604
_cell_angle_alpha    89.9998
_cell_angle_beta     95.6851
_cell_angle_gamma    89.9998

_space_group_name_H-M_alt    "P 1"
_space_group_IT_number       1

loop_
  _space_group_symop_operation_xyz
  'x, y, z'

loop_
  _atom_site_type_symbol
  _atom_site_label
  _atom_site_symmetry_multiplicity
  _atom_site_fract_x
  _atom_site_fract_y
  _atom_site_fract_z
  _atom_site_occupancy
  K   K1        1.0  0.14871  0.88574  0.40313  1.0000
  K   K2        1.0  0.14871  0.61426  0.90313  1.0000
  K   K3        1.0  0.85129  0.11426  0.59687  1.0000
  K   K4        1.0  0.85129  0.38574  0.09687  1.0000
  H   H1        1.0  0.92961  0.15066  0.26909  1.0000
  H   H2        1.0  0.92961  0.34934  0.76909  1.0000
  H   H3        1.0  0.07039  0.84934  0.73091  1.0000
  H   H4        1.0  0.07039  0.65066  0.23091  1.0000
  C   C1        1.0  0.82486  0.37634  0.28065  1.0000
  C   C2        1.0  0.82486  0.12366  0.78065  1.0000
  C   C3        1.0  0.17515  0.62367  0.71935  1.0000
  C   C4        1.0  0.17515  0.87633  0.21935  1.0000
  C   C5        1.0  0.65477  0.44379  0.32878  1.0000
  C   C6        1.0  0.65477  0.05621  0.82878  1.0000
  C   C7        1.0  0.34524  0.55622  0.67122  1.0000
  C   C8        1.0  0.34523  0.94378  0.17122  1.0000
  C   C9        1.0  0.55820  0.33924  0.36915  1.0000
  C   C10       1.0  0.55820  0.16076  0.86915  1.0000
  C   C11       1.0  0.44180  0.66077  0.63085  1.0000
  C   C12       1.0  0.44180  0.83923  0.13085  1.0000
  C   C13       1.0  0.67465  0.19908  0.34570  1.0000
  C   C14       1.0  0.67466  0.30092  0.84570  1.0000
  C   C15       1.0  0.32534  0.80092  0.65430  1.0000
  C   C16       1.0  0.32534  0.69908  0.15430  1.0000
  C   C17       1.0  0.62374  0.59122  0.33299  1.0000
  C   C18       1.0  0.62374  0.90878  0.83299  1.0000
  C   C19       1.0  0.37626  0.40878  0.66701  1.0000
  C   C20       1.0  0.37626  0.09122  0.16701  1.0000
  C   C21       1.0  0.38926  0.34958  0.42158  1.0000
  C   C22       1.0  0.38926  0.15043  0.92159  1.0000
  C   C23       1.0  0.61074  0.65043  0.57842  1.0000
  C   C24       1.0  0.61074  0.84957  0.07841  1.0000
  C   C25       1.0  0.27009  0.48340  0.43827  1.0000
  C   C26       1.0  0.27009  0.01660  0.93827  1.0000
  C   C27       1.0  0.72991  0.51661  0.56173  1.0000
  C   C28       1.0  0.72991  0.98340  0.06173  1.0000
  C   C29       1.0  0.33021  0.23364  0.46046  1.0000
  C   C30       1.0  0.33022  0.26636  0.96046  1.0000
  C   C31       1.0  0.66979  0.76636  0.53954  1.0000
  C   C32       1.0  0.66978  0.73364  0.03954  1.0000
  N   N1        1.0  0.83130  0.22909  0.29421  1.0000
  N   N2        1.0  0.83130  0.27091  0.79421  1.0000
  N   N3        1.0  0.16870  0.77091  0.70579  1.0000
  N   N4        1.0  0.16870  0.72909  0.20579  1.0000
  N   N5        1.0  0.60449  0.71528  0.33676  1.0000
  N   N6        1.0  0.60449  0.78472  0.83676  1.0000
  N   N7        1.0  0.39551  0.28472  0.66324  1.0000
  N   N8        1.0  0.39551  0.21527  0.16324  1.0000
  N   N9        1.0  0.17299  0.59624  0.44945  1.0000
  N   N10       1.0  0.17298  0.90376  0.94945  1.0000
  N   N11       1.0  0.82701  0.40376  0.55055  1.0000
  N   N12       1.0  0.82702  0.09624  0.05055  1.0000
  N   N13       1.0  0.27163  0.14432  0.49545  1.0000
  N   N14       1.0  0.27164  0.35568  0.99545  1.0000
  N   N15       1.0  0.72837  0.85568  0.50455  1.0000
  N   N16       1.0  0.72836  0.64432  0.00455  1.0000
  O   O1        1.0  0.63774  0.08089  0.36849  1.0000
  O   O2        1.0  0.63774  0.41911  0.86849  1.0000
  O   O3        1.0  0.36226  0.91911  0.63151  1.0000
  O   O4        1.0  0.36226  0.58089  0.13151  1.0000
  O   O5        1.0  0.94735  0.43294  0.23723  1.0000
  O   O6        1.0  0.94736  0.06706  0.73722  1.0000
  O   O7        1.0  0.05265  0.56706  0.76278  1.0000
  O   O8        1.0  0.05265  0.93294  0.26277  1.0000
