data_image0
_chemical_formula_structural       Co2H20C28N8O8
_chemical_formula_sum              "Co2 H20 C28 N8 O8"
_cell_length_a       7.30369
_cell_length_b       7.47644
_cell_length_c       13.8801
_cell_angle_alpha    99.7335
_cell_angle_beta     105.242
_cell_angle_gamma    90.0786

_space_group_name_H-M_alt    "P 1"
_space_group_IT_number       1

loop_
  _space_group_symop_operation_xyz
  'x, y, z'

loop_
  _atom_site_type_symbol
  _atom_site_label
  _atom_site_symmetry_multiplicity
  _atom_site_fract_x
  _atom_site_fract_y
  _atom_site_fract_z
  _atom_site_occupancy
  Co  Co1       1.0  0.50000  0.50000  0.50000  1.0000
  Co  Co2       1.0  0.00000  0.50000  0.50000  1.0000
  H   H1        1.0  0.61107  0.62634  0.80940  1.0000
  H   H2        1.0  0.80216  0.37420  0.19076  1.0000
  H   H3        1.0  0.38893  0.37366  0.19060  1.0000
  H   H4        1.0  0.19785  0.62580  0.80924  1.0000
  H   H5        1.0  0.69994  0.75031  0.99245  1.0000
  H   H6        1.0  0.70731  0.25024  0.00765  1.0000
  H   H7        1.0  0.30006  0.24969  0.00755  1.0000
  H   H8        1.0  0.29269  0.74976  0.99235  1.0000
  H   H9        1.0  0.77275  0.83919  0.13920  1.0000
  H   H10       1.0  0.63289  0.16176  0.86047  1.0000
  H   H11       1.0  0.22725  0.16081  0.86080  1.0000
  H   H12       1.0  0.36710  0.83824  0.13953  1.0000
  H   H13       1.0  0.87836  0.91324  0.32531  1.0000
  H   H14       1.0  0.55288  0.08762  0.67441  1.0000
  H   H15       1.0  0.12164  0.08676  0.67469  1.0000
  H   H16       1.0  0.44712  0.91237  0.32558  1.0000
  H   H17       1.0  0.35792  0.89209  0.46952  1.0000
  H   H18       1.0  0.88869  0.10824  0.53056  1.0000
  H   H19       1.0  0.64208  0.10791  0.53048  1.0000
  H   H20       1.0  0.11131  0.89176  0.46944  1.0000
  C   C1        1.0  0.84311  0.53610  0.68691  1.0000
  C   C2        1.0  0.15689  0.46389  0.31309  1.0000
  C   C3        1.0  0.89891  0.61354  0.79824  1.0000
  C   C4        1.0  0.10109  0.38646  0.20176  1.0000
  C   C5        1.0  0.76005  0.65229  0.85103  1.0000
  C   C6        1.0  0.90931  0.34814  0.14904  1.0000
  C   C7        1.0  0.23995  0.34771  0.14897  1.0000
  C   C8        1.0  0.09070  0.65186  0.85096  1.0000
  C   C9        1.0  0.81196  0.72334  0.95406  1.0000
  C   C10       1.0  0.85783  0.27707  0.04602  1.0000
  C   C11       1.0  0.18804  0.27667  0.04594  1.0000
  C   C12       1.0  0.14217  0.72294  0.95398  1.0000
  C   C13       1.0  0.00450  0.75869  0.00870  1.0000
  C   C14       1.0  0.99550  0.24131  0.99130  1.0000
  C   C15       1.0  0.05972  0.82199  0.11895  1.0000
  C   C16       1.0  0.94029  0.17801  0.88105  1.0000
  C   C17       1.0  0.92434  0.85096  0.17555  1.0000
  C   C18       1.0  0.74841  0.14971  0.82433  1.0000
  C   C19       1.0  0.07566  0.14904  0.82445  1.0000
  C   C20       1.0  0.25159  0.85029  0.17567  1.0000
  C   C21       1.0  0.97918  0.89224  0.27978  1.0000
  C   C22       1.0  0.69919  0.10841  0.72006  1.0000
  C   C23       1.0  0.02083  0.10776  0.72022  1.0000
  C   C24       1.0  0.30081  0.89159  0.27994  1.0000
  C   C25       1.0  0.22110  0.95190  0.44235  1.0000
  C   C26       1.0  0.77890  0.04809  0.55766  1.0000
  C   C27       1.0  0.23750  0.15944  0.47517  1.0000
  C   C28       1.0  0.76250  0.84056  0.52483  1.0000
  N   N1        1.0  0.71862  0.39860  0.43711  1.0000
  N   N2        1.0  0.28139  0.60140  0.56289  1.0000
  N   N3        1.0  0.68318  0.27390  0.36644  1.0000
  N   N4        1.0  0.31683  0.72611  0.63357  1.0000
  N   N5        1.0  0.64894  0.15299  0.29819  1.0000
  N   N6        1.0  0.35106  0.84701  0.70181  1.0000
  N   N7        1.0  0.16559  0.90880  0.33118  1.0000
  N   N8        1.0  0.83441  0.09120  0.66882  1.0000
  O   O1        1.0  0.66587  0.50606  0.64501  1.0000
  O   O2        1.0  0.02165  0.49354  0.35507  1.0000
  O   O3        1.0  0.33413  0.49394  0.35499  1.0000
  O   O4        1.0  0.97835  0.50645  0.64493  1.0000
  O   O5        1.0  0.08671  0.23353  0.48594  1.0000
  O   O6        1.0  0.60086  0.76617  0.51408  1.0000
  O   O7        1.0  0.91329  0.76646  0.51407  1.0000
  O   O8        1.0  0.39913  0.23383  0.48592  1.0000
