data_image0
_chemical_formula_structural       Cd2H16C24N4Cl4
_chemical_formula_sum              "Cd2 H16 C24 N4 Cl4"
_cell_length_a       7.30179
_cell_length_b       9.71483
_cell_length_c       9.71493
_cell_angle_alpha    65.4187
_cell_angle_beta     73.9063
_cell_angle_gamma    73.9064

_space_group_name_H-M_alt    "P 1"
_space_group_IT_number       1

loop_
  _space_group_symop_operation_xyz
  'x, y, z'

loop_
  _atom_site_type_symbol
  _atom_site_label
  _atom_site_symmetry_multiplicity
  _atom_site_fract_x
  _atom_site_fract_y
  _atom_site_fract_z
  _atom_site_occupancy
  Cd  Cd1       1.0  0.75000  0.06778  0.93222  1.0000
  Cd  Cd2       1.0  0.25000  0.93222  0.06778  1.0000
  H   H1        1.0  0.10540  0.37130  0.23703  1.0000
  H   H2        1.0  0.39460  0.76297  0.62870  1.0000
  H   H3        1.0  0.89460  0.62870  0.76297  1.0000
  H   H4        1.0  0.60540  0.23702  0.37131  1.0000
  H   H5        1.0  0.24173  0.09794  0.38283  1.0000
  H   H6        1.0  0.25828  0.61718  0.90205  1.0000
  H   H7        1.0  0.75827  0.90206  0.61717  1.0000
  H   H8        1.0  0.74172  0.38282  0.09795  1.0000
  H   H9        1.0  0.10309  0.97994  0.66729  1.0000
  H   H10       1.0  0.39692  0.33271  0.02005  1.0000
  H   H11       1.0  0.89691  0.02006  0.33271  1.0000
  H   H12       1.0  0.60309  0.66728  0.97995  1.0000
  H   H13       1.0  0.88073  0.61917  0.24009  1.0000
  H   H14       1.0  0.61928  0.75991  0.38083  1.0000
  H   H15       1.0  0.11927  0.38083  0.75991  1.0000
  H   H16       1.0  0.38072  0.24009  0.61917  1.0000
  C   C1        1.0  0.82798  0.32327  0.59451  1.0000
  C   C2        1.0  0.67202  0.40549  0.67673  1.0000
  C   C3        1.0  0.17202  0.67673  0.40549  1.0000
  C   C4        1.0  0.32798  0.59451  0.32327  1.0000
  C   C5        1.0  0.90009  0.40132  0.43607  1.0000
  C   C6        1.0  0.59991  0.56393  0.59868  1.0000
  C   C7        1.0  0.09990  0.59869  0.56392  1.0000
  C   C8        1.0  0.40009  0.43607  0.40132  1.0000
  C   C9        1.0  0.04928  0.31589  0.35935  1.0000
  C   C10       1.0  0.45073  0.64065  0.68411  1.0000
  C   C11       1.0  0.95073  0.68411  0.64065  1.0000
  C   C12       1.0  0.54927  0.35935  0.31589  1.0000
  C   C13       1.0  0.12445  0.16459  0.44004  1.0000
  C   C14       1.0  0.37556  0.55997  0.83541  1.0000
  C   C15       1.0  0.87555  0.83541  0.55997  1.0000
  C   C16       1.0  0.62444  0.44003  0.16459  1.0000
  C   C17       1.0  0.04747  0.09826  0.59749  1.0000
  C   C18       1.0  0.45254  0.40251  0.90173  1.0000
  C   C19       1.0  0.95254  0.90174  0.40251  1.0000
  C   C20       1.0  0.54746  0.59749  0.09827  1.0000
  C   C21       1.0  0.82218  0.56036  0.36126  1.0000
  C   C22       1.0  0.67782  0.63874  0.43964  1.0000
  C   C23       1.0  0.17782  0.43964  0.63874  1.0000
  C   C24       1.0  0.32217  0.36126  0.56037  1.0000
  N   N1        1.0  0.90206  0.17424  0.67111  1.0000
  N   N2        1.0  0.59795  0.32890  0.82576  1.0000
  N   N3        1.0  0.09794  0.82576  0.32889  1.0000
  N   N4        1.0  0.40205  0.67110  0.17424  1.0000
  Cl  Cl1       1.0  0.00797  0.81977  0.98104  1.0000
  Cl  Cl2       1.0  0.49203  0.01896  0.18023  1.0000
  Cl  Cl3       1.0  0.99204  0.18023  0.01896  1.0000
  Cl  Cl4       1.0  0.50797  0.98104  0.81977  1.0000
