data_image0
_chemical_formula_structural       Cu2H24C28N4Cl2O8
_chemical_formula_sum              "Cu2 H24 C28 N4 Cl2 O8"
_cell_length_a       8.10867
_cell_length_b       8.10865
_cell_length_c       10.8739
_cell_angle_alpha    101.279
_cell_angle_beta     101.279
_cell_angle_gamma    90.6987

_space_group_name_H-M_alt    "P 1"
_space_group_IT_number       1

loop_
  _space_group_symop_operation_xyz
  'x, y, z'

loop_
  _atom_site_type_symbol
  _atom_site_label
  _atom_site_symmetry_multiplicity
  _atom_site_fract_x
  _atom_site_fract_y
  _atom_site_fract_z
  _atom_site_occupancy
  Cu  Cu1       1.0  0.94163  0.05837  0.75000  1.0000
  Cu  Cu2       1.0  0.05837  0.94163  0.25000  1.0000
  H   H1        1.0  0.22085  0.88046  0.87775  1.0000
  H   H2        1.0  0.88045  0.22085  0.37775  1.0000
  H   H3        1.0  0.77915  0.11955  0.12225  1.0000
  H   H4        1.0  0.11954  0.77915  0.62225  1.0000
  H   H5        1.0  0.42239  0.94187  0.08991  1.0000
  H   H6        1.0  0.94187  0.42239  0.58991  1.0000
  H   H7        1.0  0.57761  0.05813  0.91009  1.0000
  H   H8        1.0  0.05812  0.57761  0.41009  1.0000
  H   H9        1.0  0.17577  0.40595  0.18277  1.0000
  H   H10       1.0  0.40596  0.17577  0.68276  1.0000
  H   H11       1.0  0.82423  0.59405  0.81724  1.0000
  H   H12       1.0  0.59405  0.82423  0.31723  1.0000
  H   H13       1.0  0.97945  0.32209  0.96941  1.0000
  H   H14       1.0  0.32209  0.97945  0.46941  1.0000
  H   H15       1.0  0.02055  0.67791  0.03060  1.0000
  H   H16       1.0  0.67791  0.02055  0.53059  1.0000
  H   H17       1.0  0.55581  0.32693  0.52797  1.0000
  H   H18       1.0  0.32693  0.55581  0.02797  1.0000
  H   H19       1.0  0.44419  0.67307  0.47203  1.0000
  H   H20       1.0  0.67307  0.44419  0.97203  1.0000
  H   H21       1.0  0.65248  0.44744  0.43838  1.0000
  H   H22       1.0  0.44744  0.65248  0.93839  1.0000
  H   H23       1.0  0.34752  0.55256  0.56161  1.0000
  H   H24       1.0  0.55256  0.34752  0.06161  1.0000
  C   C1        1.0  0.21575  0.99542  0.94768  1.0000
  C   C2        1.0  0.99542  0.21575  0.44769  1.0000
  C   C3        1.0  0.78425  0.00458  0.05231  1.0000
  C   C4        1.0  0.00458  0.78424  0.55232  1.0000
  C   C5        1.0  0.32749  0.02978  0.06497  1.0000
  C   C6        1.0  0.02978  0.32749  0.56497  1.0000
  C   C7        1.0  0.67251  0.97022  0.93503  1.0000
  C   C8        1.0  0.97022  0.67251  0.43503  1.0000
  C   C9        1.0  0.31649  0.17951  0.15168  1.0000
  C   C10       1.0  0.17951  0.31649  0.65168  1.0000
  C   C11       1.0  0.68351  0.82050  0.84832  1.0000
  C   C12       1.0  0.82049  0.68351  0.34832  1.0000
  C   C13       1.0  0.18945  0.28780  0.11872  1.0000
  C   C14       1.0  0.28780  0.18946  0.61872  1.0000
  C   C15       1.0  0.81054  0.71219  0.88128  1.0000
  C   C16       1.0  0.71220  0.81054  0.38128  1.0000
  C   C17       1.0  0.08192  0.24383  0.99987  1.0000
  C   C18       1.0  0.24383  0.08193  0.49988  1.0000
  C   C19       1.0  0.91808  0.75617  0.00013  1.0000
  C   C20       1.0  0.75617  0.91807  0.50012  1.0000
  C   C21       1.0  0.44598  0.22275  0.27218  1.0000
  C   C22       1.0  0.22276  0.44596  0.77217  1.0000
  C   C23       1.0  0.55405  0.77723  0.72783  1.0000
  C   C24       1.0  0.77725  0.55402  0.22782  1.0000
  C   C25       1.0  0.53362  0.42056  0.46662  1.0000
  C   C26       1.0  0.42055  0.53362  0.96662  1.0000
  C   C27       1.0  0.46639  0.57945  0.53338  1.0000
  C   C28       1.0  0.57945  0.46638  0.03338  1.0000
  N   N1        1.0  0.09498  0.10144  0.91429  1.0000
  N   N2        1.0  0.10144  0.09498  0.41429  1.0000
  N   N3        1.0  0.90502  0.89856  0.08571  1.0000
  N   N4        1.0  0.89856  0.90502  0.58571  1.0000
  Cl  Cl1       1.0  0.74122  0.25878  0.75000  1.0000
  Cl  Cl2       1.0  0.25878  0.74122  0.25000  1.0000
  O   O1        1.0  0.57627  0.14888  0.29366  1.0000
  O   O2        1.0  0.14888  0.57629  0.79366  1.0000
  O   O3        1.0  0.42371  0.85112  0.70633  1.0000
  O   O4        1.0  0.85112  0.42372  0.20634  1.0000
  O   O5        1.0  0.40624  0.35782  0.35322  1.0000
  O   O6        1.0  0.35782  0.40625  0.85322  1.0000
  O   O7        1.0  0.59376  0.64218  0.64678  1.0000
  O   O8        1.0  0.64218  0.59376  0.14679  1.0000
