data_image0
_chemical_formula_structural       Cd2H16C28Se4N12
_chemical_formula_sum              "Cd2 H16 C28 Se4 N12"
_cell_length_a       5.79331
_cell_length_b       8.94704
_cell_length_c       17.7154
_cell_angle_alpha    89.9989
_cell_angle_beta     90.0012
_cell_angle_gamma    112.228

_space_group_name_H-M_alt    "P 1"
_space_group_IT_number       1

loop_
  _space_group_symop_operation_xyz
  'x, y, z'

loop_
  _atom_site_type_symbol
  _atom_site_label
  _atom_site_symmetry_multiplicity
  _atom_site_fract_x
  _atom_site_fract_y
  _atom_site_fract_z
  _atom_site_occupancy
  Cd  Cd1       1.0  0.00002  0.00000  0.99999  1.0000
  Cd  Cd2       1.0  0.50001  0.50001  0.50001  1.0000
  H   H1        1.0  0.70160  0.78670  0.86424  1.0000
  H   H2        1.0  0.20164  0.28672  0.63575  1.0000
  H   H3        1.0  0.29839  0.21328  0.13576  1.0000
  H   H4        1.0  0.79835  0.71329  0.36424  1.0000
  H   H5        1.0  0.67665  0.56071  0.77828  1.0000
  H   H6        1.0  0.17667  0.06072  0.72172  1.0000
  H   H7        1.0  0.32330  0.43926  0.22174  1.0000
  H   H8        1.0  0.82330  0.93927  0.27827  1.0000
  H   H9        1.0  0.25687  0.49526  0.91280  1.0000
  H   H10       1.0  0.75688  0.99526  0.58719  1.0000
  H   H11       1.0  0.74312  0.50473  0.08720  1.0000
  H   H12       1.0  0.24312  0.00475  0.41281  1.0000
  H   H13       1.0  0.25411  0.72315  0.99401  1.0000
  H   H14       1.0  0.75413  0.22315  0.50598  1.0000
  H   H15       1.0  0.74590  0.27685  0.00598  1.0000
  H   H16       1.0  0.24590  0.77686  0.49402  1.0000
  C   C1        1.0  0.54670  0.08099  0.90670  1.0000
  C   C2        1.0  0.04669  0.58101  0.59330  1.0000
  C   C3        1.0  0.45333  0.91900  0.09329  1.0000
  C   C4        1.0  0.95331  0.41902  0.40672  1.0000
  C   C5        1.0  0.81889  0.71770  0.87364  1.0000
  C   C6        1.0  0.31892  0.21771  0.62635  1.0000
  C   C7        1.0  0.18109  0.28229  0.12636  1.0000
  C   C8        1.0  0.68107  0.78230  0.37364  1.0000
  C   C9        1.0  0.80534  0.59183  0.82570  1.0000
  C   C10       1.0  0.30536  0.09184  0.67429  1.0000
  C   C11       1.0  0.19464  0.40816  0.17430  1.0000
  C   C12       1.0  0.69462  0.90816  0.32571  1.0000
  C   C13       1.0  0.96498  0.50980  0.83942  1.0000
  C   C14       1.0  0.46500  0.00979  0.66058  1.0000
  C   C15       1.0  0.03501  0.49018  0.16058  1.0000
  C   C16       1.0  0.53500  0.99019  0.33942  1.0000
  C   C17       1.0  0.13010  0.55633  0.90068  1.0000
  C   C18       1.0  0.63011  0.05634  0.59931  1.0000
  C   C19       1.0  0.86991  0.44367  0.09932  1.0000
  C   C20       1.0  0.36991  0.94368  0.40069  1.0000
  C   C21       1.0  0.12849  0.68295  0.94591  1.0000
  C   C22       1.0  0.62850  0.18295  0.55408  1.0000
  C   C23       1.0  0.87151  0.31705  0.05409  1.0000
  C   C24       1.0  0.37152  0.81706  0.44592  1.0000
  C   C25       1.0  0.95995  0.38069  0.79142  1.0000
  C   C26       1.0  0.45996  0.88068  0.70857  1.0000
  C   C27       1.0  0.04005  0.61932  0.20858  1.0000
  C   C28       1.0  0.54005  0.11933  0.29143  1.0000
  Se  Se1       1.0  0.33075  0.17329  0.88178  1.0000
  Se  Se2       1.0  0.83076  0.67330  0.61824  1.0000
  Se  Se3       1.0  0.66926  0.82668  0.11820  1.0000
  Se  Se4       1.0  0.16916  0.32663  0.38184  1.0000
  N   N1        1.0  0.68606  0.01826  0.92318  1.0000
  N   N2        1.0  0.18607  0.51828  0.57682  1.0000
  N   N3        1.0  0.31397  0.98174  0.07680  1.0000
  N   N4        1.0  0.81396  0.48178  0.42319  1.0000
  N   N5        1.0  0.97624  0.76218  0.93278  1.0000
  N   N6        1.0  0.47627  0.26219  0.56721  1.0000
  N   N7        1.0  0.02377  0.23782  0.06722  1.0000
  N   N8        1.0  0.52374  0.73782  0.43278  1.0000
  N   N9        1.0  0.95626  0.27417  0.75281  1.0000
  N   N10       1.0  0.45626  0.77417  0.74719  1.0000
  N   N11       1.0  0.04374  0.72583  0.24719  1.0000
  N   N12       1.0  0.54376  0.22585  0.25281  1.0000
