data_image0
_chemical_formula_structural       Li2H38W2C36O18
_chemical_formula_sum              "Li2 H38 W2 C36 O18"
_cell_length_a       8.76645
_cell_length_b       11.0842
_cell_length_c       12.8443
_cell_angle_alpha    113.734
_cell_angle_beta     95.9755
_cell_angle_gamma    108.197

_space_group_name_H-M_alt    "P 1"
_space_group_IT_number       1

loop_
  _space_group_symop_operation_xyz
  'x, y, z'

loop_
  _atom_site_type_symbol
  _atom_site_label
  _atom_site_symmetry_multiplicity
  _atom_site_fract_x
  _atom_site_fract_y
  _atom_site_fract_z
  _atom_site_occupancy
  Li  Li1       1.0  0.31610  0.78352  0.68619  1.0000
  Li  Li2       1.0  0.68389  0.21648  0.31380  1.0000
  H   H1        1.0  0.38375  0.12848  0.76157  1.0000
  H   H2        1.0  0.61625  0.87153  0.23843  1.0000
  H   H3        1.0  0.38780  0.37544  0.84536  1.0000
  H   H4        1.0  0.61220  0.62456  0.15464  1.0000
  H   H5        1.0  0.66000  0.58571  0.93354  1.0000
  H   H6        1.0  0.34000  0.41429  0.06646  1.0000
  H   H7        1.0  0.92409  0.54727  0.93719  1.0000
  H   H8        1.0  0.07591  0.45272  0.06281  1.0000
  H   H9        1.0  0.91781  0.29960  0.85194  1.0000
  H   H10       1.0  0.08218  0.70040  0.14806  1.0000
  H   H11       1.0  0.16734  0.94853  0.91738  1.0000
  H   H12       1.0  0.83266  0.05147  0.08262  1.0000
  H   H13       1.0  0.37613  0.04746  0.92260  1.0000
  H   H14       1.0  0.62387  0.95255  0.07740  1.0000
  H   H15       1.0  0.33921  0.98663  0.03108  1.0000
  H   H16       1.0  0.66079  0.01337  0.96892  1.0000
  H   H17       1.0  0.08489  0.69262  0.84805  1.0000
  H   H18       1.0  0.91511  0.30738  0.15194  1.0000
  H   H19       1.0  0.25179  0.72640  0.96252  1.0000
  H   H20       1.0  0.74822  0.27360  0.03748  1.0000
  H   H21       1.0  0.38184  0.60163  0.81351  1.0000
  H   H22       1.0  0.61816  0.39837  0.18649  1.0000
  H   H23       1.0  0.17066  0.48557  0.78665  1.0000
  H   H24       1.0  0.82934  0.51443  0.21335  1.0000
  H   H25       1.0  0.19491  0.37261  0.56348  1.0000
  H   H26       1.0  0.80510  0.62739  0.43652  1.0000
  H   H27       1.0  0.39879  0.51114  0.61699  1.0000
  H   H28       1.0  0.60121  0.48887  0.38302  1.0000
  H   H29       1.0  0.27982  0.44651  0.40864  1.0000
  H   H30       1.0  0.72018  0.55348  0.59136  1.0000
  H   H31       1.0  0.09569  0.47160  0.44204  1.0000
  H   H32       1.0  0.90431  0.52840  0.55796  1.0000
  H   H33       1.0  0.31195  0.64221  0.34753  1.0000
  H   H34       1.0  0.68805  0.35779  0.65247  1.0000
  H   H35       1.0  0.32684  0.80962  0.46029  1.0000
  H   H36       1.0  0.67316  0.19038  0.53971  1.0000
  H   H37       1.0  0.13098  0.65929  0.39590  1.0000
  H   H38       1.0  0.86902  0.34071  0.60410  1.0000
  W   W1        1.0  0.85964  0.97601  0.71767  1.0000
  W   W2        1.0  0.14035  0.02399  0.28233  1.0000
  C   C1        1.0  0.64121  0.04605  0.75103  1.0000
  C   C2        1.0  0.35879  0.95395  0.24897  1.0000
  C   C3        1.0  0.99250  0.10462  0.88849  1.0000
  C   C4        1.0  0.00750  0.89537  0.11151  1.0000
  C   C5        1.0  0.02235  0.88619  0.67518  1.0000
  C   C6        1.0  0.97765  0.11380  0.32482  1.0000
  C   C7        1.0  0.71637  0.86753  0.54748  1.0000
  C   C8        1.0  0.28362  0.13247  0.45251  1.0000
  C   C9        1.0  0.73553  0.81976  0.75949  1.0000
  C   C10       1.0  0.26447  0.18023  0.24051  1.0000
  C   C11       1.0  0.98443  0.13034  0.67566  1.0000
  C   C12       1.0  0.01557  0.86967  0.32434  1.0000
  C   C13       1.0  0.65035  0.19788  0.80193  1.0000
  C   C14       1.0  0.34965  0.80212  0.19807  1.0000
  C   C15       1.0  0.50146  0.22128  0.80135  1.0000
  C   C16       1.0  0.49854  0.77872  0.19865  1.0000
  C   C17       1.0  0.50445  0.35938  0.84833  1.0000
  C   C18       1.0  0.49555  0.64062  0.15167  1.0000
  C   C19       1.0  0.65674  0.47725  0.89773  1.0000
  C   C20       1.0  0.34326  0.52275  0.10227  1.0000
  C   C21       1.0  0.80554  0.45554  0.89919  1.0000
  C   C22       1.0  0.19446  0.54446  0.10082  1.0000
  C   C23       1.0  0.80200  0.31680  0.85114  1.0000
  C   C24       1.0  0.19800  0.68320  0.14886  1.0000
  C   C25       1.0  0.29804  0.96091  0.93804  1.0000
  C   C26       1.0  0.70196  0.03909  0.06196  1.0000
  C   C27       1.0  0.21790  0.71078  0.87154  1.0000
  C   C28       1.0  0.78211  0.28922  0.12846  1.0000
  C   C29       1.0  0.25014  0.58538  0.78769  1.0000
  C   C30       1.0  0.74986  0.41462  0.21231  1.0000
  C   C31       1.0  0.26496  0.48459  0.58485  1.0000
  C   C32       1.0  0.73504  0.51541  0.41515  1.0000
  C   C33       1.0  0.23086  0.50768  0.47820  1.0000
  C   C34       1.0  0.76914  0.49231  0.52180  1.0000
  C   C35       1.0  0.26693  0.69324  0.42377  1.0000
  C   C36       1.0  0.73307  0.30676  0.57623  1.0000
  O   O1        1.0  0.49865  0.95315  0.72479  1.0000
  O   O2        1.0  0.50135  0.04685  0.27521  1.0000
  O   O3        1.0  0.07032  0.18161  0.98650  1.0000
  O   O4        1.0  0.92967  0.81837  0.01350  1.0000
  O   O5        1.0  0.11496  0.82853  0.64705  1.0000
  O   O6        1.0  0.88504  0.17148  0.35294  1.0000
  O   O7        1.0  0.63829  0.81121  0.44996  1.0000
  O   O8        1.0  0.36171  0.18880  0.55004  1.0000
  O   O9        1.0  0.66455  0.72902  0.78191  1.0000
  O   O10       1.0  0.33546  0.27098  0.21809  1.0000
  O   O11       1.0  0.06046  0.21747  0.65083  1.0000
  O   O12       1.0  0.93953  0.78253  0.34918  1.0000
  O   O13       1.0  0.31739  0.83366  0.86188  1.0000
  O   O14       1.0  0.68262  0.16634  0.13812  1.0000
  O   O15       1.0  0.21263  0.57926  0.67387  1.0000
  O   O16       1.0  0.78738  0.42074  0.32613  1.0000
  O   O17       1.0  0.31067  0.65775  0.51509  1.0000
  O   O18       1.0  0.68933  0.34225  0.48491  1.0000
