data_image0
_chemical_formula_structural       H64Rh2C68N10
_chemical_formula_sum              "H64 Rh2 C68 N10"
_cell_length_a       10.9306
_cell_length_b       13.6505
_cell_length_c       13.6504
_cell_angle_alpha    64.3341
_cell_angle_beta     66.349
_cell_angle_gamma    66.3481

_space_group_name_H-M_alt    "P 1"
_space_group_IT_number       1

loop_
  _space_group_symop_operation_xyz
  'x, y, z'

loop_
  _atom_site_type_symbol
  _atom_site_label
  _atom_site_symmetry_multiplicity
  _atom_site_fract_x
  _atom_site_fract_y
  _atom_site_fract_z
  _atom_site_occupancy
  H   H1        1.0  0.88512  0.86764  0.87058  1.0000
  H   H2        1.0  0.37693  0.87029  0.86765  1.0000
  H   H3        1.0  0.11488  0.12943  0.13236  1.0000
  H   H4        1.0  0.62307  0.13235  0.12972  1.0000
  H   H5        1.0  0.11790  0.69698  0.89864  1.0000
  H   H6        1.0  0.28774  0.89819  0.69689  1.0000
  H   H7        1.0  0.88211  0.10136  0.30303  1.0000
  H   H8        1.0  0.71226  0.30311  0.10182  1.0000
  H   H9        1.0  0.13310  0.49311  0.96226  1.0000
  H   H10       1.0  0.41251  0.96211  0.49296  1.0000
  H   H11       1.0  0.86690  0.03773  0.50690  1.0000
  H   H12       1.0  0.58751  0.50704  0.03788  1.0000
  H   H13       1.0  0.80793  0.52621  0.26495  1.0000
  H   H14       1.0  0.40093  0.26485  0.52610  1.0000
  H   H15       1.0  0.19207  0.73504  0.47381  1.0000
  H   H16       1.0  0.59906  0.47389  0.73515  1.0000
  H   H17       1.0  0.79110  0.73005  0.20037  1.0000
  H   H18       1.0  0.27878  0.20003  0.73002  1.0000
  H   H19       1.0  0.20891  0.79963  0.26996  1.0000
  H   H20       1.0  0.72120  0.26996  0.79999  1.0000
  H   H21       1.0  0.92019  0.34098  0.24397  1.0000
  H   H22       1.0  0.49420  0.24446  0.34058  1.0000
  H   H23       1.0  0.07980  0.75602  0.65905  1.0000
  H   H24       1.0  0.50581  0.65942  0.75555  1.0000
  H   H25       1.0  0.08542  0.31797  0.14363  1.0000
  H   H26       1.0  0.45128  0.14468  0.31791  1.0000
  H   H27       1.0  0.91458  0.85637  0.68204  1.0000
  H   H28       1.0  0.54873  0.68209  0.85533  1.0000
  H   H29       1.0  0.93316  0.35862  0.10349  1.0000
  H   H30       1.0  0.60415  0.10395  0.35726  1.0000
  H   H31       1.0  0.06684  0.89650  0.64140  1.0000
  H   H32       1.0  0.39587  0.64273  0.89606  1.0000
  H   H33       1.0  0.42740  0.85935  0.04335  1.0000
  H   H34       1.0  0.66979  0.04361  0.85935  1.0000
  H   H35       1.0  0.57261  0.95665  0.14065  1.0000
  H   H36       1.0  0.33021  0.14064  0.95639  1.0000
  H   H37       1.0  0.57773  0.70230  0.16083  1.0000
  H   H38       1.0  0.55940  0.16086  0.70208  1.0000
  H   H39       1.0  0.42228  0.83917  0.29769  1.0000
  H   H40       1.0  0.44061  0.29791  0.83912  1.0000
  H   H41       1.0  0.33741  0.48244  0.23376  1.0000
  H   H42       1.0  0.94747  0.23283  0.48224  1.0000
  H   H43       1.0  0.66260  0.76622  0.51756  1.0000
  H   H44       1.0  0.05252  0.51775  0.76716  1.0000
  H   H45       1.0  0.19259  0.63773  0.11171  1.0000
  H   H46       1.0  0.05859  0.11113  0.63778  1.0000
  H   H47       1.0  0.80743  0.88827  0.36229  1.0000
  H   H48       1.0  0.94140  0.36221  0.88887  1.0000
  H   H49       1.0  0.50533  0.41668  0.33281  1.0000
  H   H50       1.0  0.74609  0.33236  0.41634  1.0000
  H   H51       1.0  0.49469  0.66717  0.58331  1.0000
  H   H52       1.0  0.25390  0.58365  0.66762  1.0000
  H   H53       1.0  0.56142  0.51609  0.34384  1.0000
  H   H54       1.0  0.57936  0.34380  0.51577  1.0000
  H   H55       1.0  0.43859  0.65616  0.48390  1.0000
  H   H56       1.0  0.42062  0.48422  0.65619  1.0000
  H   H57       1.0  0.65773  0.45534  0.23487  1.0000
  H   H58       1.0  0.65264  0.23465  0.45526  1.0000
  H   H59       1.0  0.34228  0.76511  0.54466  1.0000
  H   H60       1.0  0.34735  0.54474  0.76532  1.0000
  H   H61       1.0  0.19623  0.41421  0.58692  1.0000
  H   H62       1.0  0.80221  0.58727  0.41470  1.0000
  H   H63       1.0  0.80375  0.41309  0.58577  1.0000
  H   H64       1.0  0.19780  0.58527  0.41274  1.0000
  Rh  Rh1       1.0  0.00000  0.90935  0.09066  1.0000
  Rh  Rh2       1.0  0.99999  0.09059  0.90942  1.0000
  C   C1        1.0  0.91912  0.90566  0.90830  1.0000
  C   C2        1.0  0.26706  0.90807  0.90563  1.0000
  C   C3        1.0  0.08087  0.09171  0.09435  1.0000
  C   C4        1.0  0.73294  0.09437  0.09194  1.0000
  C   C5        1.0  0.95248  0.72766  0.04461  1.0000
  C   C6        1.0  0.27576  0.04428  0.72763  1.0000
  C   C7        1.0  0.04752  0.95540  0.27234  1.0000
  C   C8        1.0  0.72424  0.27237  0.95573  1.0000
  C   C9        1.0  0.04850  0.65925  0.97841  1.0000
  C   C10       1.0  0.31484  0.97803  0.65918  1.0000
  C   C11       1.0  0.95150  0.02159  0.34077  1.0000
  C   C12       1.0  0.68517  0.34082  0.02198  1.0000
  C   C13       1.0  0.05761  0.54463  0.01490  1.0000
  C   C14       1.0  0.38370  0.01472  0.54449  1.0000
  C   C15       1.0  0.94239  0.98510  0.45538  1.0000
  C   C16       1.0  0.61631  0.45550  0.98528  1.0000
  C   C17       1.0  0.97116  0.49437  0.11824  1.0000
  C   C18       1.0  0.41646  0.11827  0.49412  1.0000
  C   C19       1.0  0.02884  0.88176  0.50564  1.0000
  C   C20       1.0  0.58354  0.50588  0.88174  1.0000
  C   C21       1.0  0.87653  0.56315  0.18414  1.0000
  C   C22       1.0  0.37642  0.18398  0.56304  1.0000
  C   C23       1.0  0.12348  0.81587  0.43685  1.0000
  C   C24       1.0  0.62356  0.43696  0.81603  1.0000
  C   C25       1.0  0.86645  0.67777  0.14851  1.0000
  C   C26       1.0  0.30766  0.14821  0.67773  1.0000
  C   C27       1.0  0.13356  0.85150  0.32224  1.0000
  C   C28       1.0  0.69232  0.32227  0.85182  1.0000
  C   C29       1.0  0.97763  0.37178  0.15486  1.0000
  C   C30       1.0  0.49499  0.15542  0.37124  1.0000
  C   C31       1.0  0.02237  0.84512  0.62824  1.0000
  C   C32       1.0  0.50502  0.62876  0.84458  1.0000
  C   C33       1.0  0.29832  0.75964  0.07125  1.0000
  C   C34       1.0  0.87095  0.07118  0.75970  1.0000
  C   C35       1.0  0.70169  0.92876  0.24037  1.0000
  C   C36       1.0  0.12903  0.24030  0.92882  1.0000
  C   C37       1.0  0.40978  0.77569  0.08378  1.0000
  C   C38       1.0  0.73082  0.08385  0.77565  1.0000
  C   C39       1.0  0.59023  0.91622  0.22431  1.0000
  C   C40       1.0  0.26917  0.22435  0.91615  1.0000
  C   C41       1.0  0.49251  0.68779  0.15128  1.0000
  C   C42       1.0  0.66874  0.15121  0.68765  1.0000
  C   C43       1.0  0.50750  0.84872  0.31222  1.0000
  C   C44       1.0  0.33125  0.31235  0.84878  1.0000
  C   C45       1.0  0.46564  0.58188  0.20872  1.0000
  C   C46       1.0  0.74435  0.20842  0.58172  1.0000
  C   C47       1.0  0.53437  0.79127  0.41812  1.0000
  C   C48       1.0  0.25564  0.41828  0.79157  1.0000
  C   C49       1.0  0.35724  0.56540  0.19264  1.0000
  C   C50       1.0  0.88545  0.19209  0.56529  1.0000
  C   C51       1.0  0.64277  0.80735  0.43459  1.0000
  C   C52       1.0  0.11453  0.43471  0.80790  1.0000
  C   C53       1.0  0.27548  0.65213  0.12428  1.0000
  C   C54       1.0  0.94861  0.12387  0.65214  1.0000
  C   C55       1.0  0.72454  0.87571  0.34787  1.0000
  C   C56       1.0  0.05138  0.34786  0.87613  1.0000
  C   C57       1.0  0.55161  0.48771  0.28392  1.0000
  C   C58       1.0  0.67751  0.28365  0.48748  1.0000
  C   C59       1.0  0.44840  0.71608  0.51229  1.0000
  C   C60       1.0  0.32248  0.51251  0.71633  1.0000
  C   C61       1.0  0.99998  0.22822  0.77178  1.0000
  C   C62       1.0  0.00002  0.77170  0.22830  1.0000
  C   C63       1.0  0.99999  0.40401  0.59598  1.0000
  C   C64       1.0  0.00000  0.59592  0.40407  1.0000
  C   C65       1.0  0.88846  0.45223  0.54780  1.0000
  C   C66       1.0  0.11175  0.54748  0.45204  1.0000
  C   C67       1.0  0.11153  0.45219  0.54777  1.0000
  C   C68       1.0  0.88825  0.54797  0.45251  1.0000
  N   N1        1.0  0.94426  0.84389  0.00766  1.0000
  N   N2        1.0  0.20437  0.00741  0.84384  1.0000
  N   N3        1.0  0.05575  0.99234  0.15612  1.0000
  N   N4        1.0  0.79562  0.15615  0.99260  1.0000
  N   N5        1.0  0.20826  0.85026  0.00964  1.0000
  N   N6        1.0  0.93174  0.00959  0.85045  1.0000
  N   N7        1.0  0.79174  0.99037  0.14975  1.0000
  N   N8        1.0  0.06825  0.14955  0.99042  1.0000
  N   N9        1.0  0.99999  0.30991  0.69009  1.0000
  N   N10       1.0  0.00001  0.69002  0.30998  1.0000
