data_image0
_chemical_formula_structural       Cu4H48C24I4N8
_chemical_formula_sum              "Cu4 H48 C24 I4 N8"
_cell_length_a       8.53281
_cell_length_b       8.53283
_cell_length_c       11.6955
_cell_angle_alpha    90
_cell_angle_beta     89.9998
_cell_angle_gamma    94.2345

_space_group_name_H-M_alt    "P 1"
_space_group_IT_number       1

loop_
  _space_group_symop_operation_xyz
  'x, y, z'

loop_
  _atom_site_type_symbol
  _atom_site_label
  _atom_site_symmetry_multiplicity
  _atom_site_fract_x
  _atom_site_fract_y
  _atom_site_fract_z
  _atom_site_occupancy
  Cu  Cu1       1.0  0.89800  0.10200  0.98393  1.0000
  Cu  Cu2       1.0  0.60200  0.39800  0.48393  1.0000
  Cu  Cu3       1.0  0.10200  0.89800  0.01607  1.0000
  Cu  Cu4       1.0  0.39799  0.60199  0.51607  1.0000
  H   H1        1.0  0.60733  0.03538  0.13826  1.0000
  H   H2        1.0  0.89267  0.46463  0.63826  1.0000
  H   H3        1.0  0.03537  0.60733  0.86174  1.0000
  H   H4        1.0  0.46462  0.89267  0.36174  1.0000
  H   H5        1.0  0.39267  0.96462  0.86174  1.0000
  H   H6        1.0  0.10733  0.53537  0.36174  1.0000
  H   H7        1.0  0.96463  0.39267  0.13826  1.0000
  H   H8        1.0  0.53538  0.10733  0.63826  1.0000
  H   H9        1.0  0.57319  0.21608  0.07170  1.0000
  H   H10       1.0  0.92682  0.28392  0.57170  1.0000
  H   H11       1.0  0.21608  0.57318  0.92830  1.0000
  H   H12       1.0  0.28392  0.92681  0.42830  1.0000
  H   H13       1.0  0.42681  0.78392  0.92830  1.0000
  H   H14       1.0  0.07318  0.71608  0.42830  1.0000
  H   H15       1.0  0.78393  0.42681  0.07170  1.0000
  H   H16       1.0  0.71608  0.07319  0.57170  1.0000
  H   H17       1.0  0.00148  0.15191  0.22965  1.0000
  H   H18       1.0  0.49853  0.34809  0.72965  1.0000
  H   H19       1.0  0.15191  0.00147  0.77035  1.0000
  H   H20       1.0  0.34808  0.49853  0.27035  1.0000
  H   H21       1.0  0.99852  0.84808  0.77035  1.0000
  H   H22       1.0  0.50147  0.65191  0.27035  1.0000
  H   H23       1.0  0.84809  0.99853  0.22965  1.0000
  H   H24       1.0  0.65192  0.50148  0.72965  1.0000
  H   H25       1.0  0.75206  0.09457  0.40156  1.0000
  H   H26       1.0  0.74794  0.40544  0.90156  1.0000
  H   H27       1.0  0.09457  0.75206  0.59844  1.0000
  H   H28       1.0  0.40543  0.74794  0.09844  1.0000
  H   H29       1.0  0.24794  0.90543  0.59844  1.0000
  H   H30       1.0  0.25205  0.59457  0.09844  1.0000
  H   H31       1.0  0.90544  0.24794  0.40156  1.0000
  H   H32       1.0  0.59457  0.25206  0.90156  1.0000
  H   H33       1.0  0.47688  0.31259  0.24234  1.0000
  H   H34       1.0  0.02312  0.18741  0.74234  1.0000
  H   H35       1.0  0.31259  0.47688  0.75766  1.0000
  H   H36       1.0  0.18740  0.02312  0.25766  1.0000
  H   H37       1.0  0.52312  0.68741  0.75766  1.0000
  H   H38       1.0  0.97688  0.81259  0.25766  1.0000
  H   H39       1.0  0.68741  0.52312  0.24234  1.0000
  H   H40       1.0  0.81259  0.97688  0.74234  1.0000
  H   H41       1.0  0.50809  0.13489  0.31198  1.0000
  H   H42       1.0  0.99192  0.36512  0.81198  1.0000
  H   H43       1.0  0.13489  0.50808  0.68802  1.0000
  H   H44       1.0  0.36511  0.99192  0.18802  1.0000
  H   H45       1.0  0.49192  0.86511  0.68802  1.0000
  H   H46       1.0  0.00808  0.63489  0.18802  1.0000
  H   H47       1.0  0.86512  0.49192  0.31198  1.0000
  H   H48       1.0  0.63489  0.00809  0.81198  1.0000
  C   C1        1.0  0.62889  0.16355  0.14542  1.0000
  C   C2        1.0  0.87112  0.33645  0.64542  1.0000
  C   C3        1.0  0.16355  0.62888  0.85458  1.0000
  C   C4        1.0  0.33645  0.87112  0.35458  1.0000
  C   C5        1.0  0.37112  0.83645  0.85458  1.0000
  C   C6        1.0  0.12888  0.66355  0.35458  1.0000
  C   C7        1.0  0.83645  0.37112  0.14542  1.0000
  C   C8        1.0  0.66355  0.12888  0.64542  1.0000
  C   C9        1.0  0.87398  0.12602  0.23722  1.0000
  C   C10       1.0  0.62602  0.37398  0.73722  1.0000
  C   C11       1.0  0.12602  0.87398  0.76277  1.0000
  C   C12       1.0  0.37398  0.62602  0.26278  1.0000
  C   C13       1.0  0.80995  0.19005  0.35050  1.0000
  C   C14       1.0  0.69005  0.30995  0.85050  1.0000
  C   C15       1.0  0.19005  0.80995  0.64950  1.0000
  C   C16       1.0  0.30995  0.69005  0.14950  1.0000
  C   C17       1.0  0.56470  0.22789  0.25851  1.0000
  C   C18       1.0  0.93530  0.27211  0.75851  1.0000
  C   C19       1.0  0.22788  0.56469  0.74149  1.0000
  C   C20       1.0  0.27211  0.93530  0.24149  1.0000
  C   C21       1.0  0.43530  0.77211  0.74149  1.0000
  C   C22       1.0  0.06469  0.72789  0.24149  1.0000
  C   C23       1.0  0.77212  0.43530  0.25851  1.0000
  C   C24       1.0  0.72789  0.06470  0.75851  1.0000
  I   I1        1.0  0.80001  0.80000  0.00001  1.0000
  I   I2        1.0  0.70000  0.69999  0.50000  1.0000
  I   I3        1.0  0.20000  0.20000  0.00000  1.0000
  I   I4        1.0  0.30000  0.30001  0.50000  1.0000
  N   N1        1.0  0.80121  0.19879  0.13721  1.0000
  N   N2        1.0  0.69879  0.30121  0.63721  1.0000
  N   N3        1.0  0.19879  0.80120  0.86279  1.0000
  N   N4        1.0  0.30121  0.69879  0.36279  1.0000
  N   N5        1.0  0.69302  0.30699  0.32774  1.0000
  N   N6        1.0  0.80699  0.19302  0.82775  1.0000
  N   N7        1.0  0.30698  0.69301  0.67226  1.0000
  N   N8        1.0  0.19301  0.80698  0.17226  1.0000
