data_image0
_chemical_formula_structural       Cu2H20C8I2N4
_chemical_formula_sum              "Cu2 H20 C8 I2 N4"
_cell_length_a       6.64668
_cell_length_b       7.87491
_cell_length_c       7.87492
_cell_angle_alpha    101.091
_cell_angle_beta     108.775
_cell_angle_gamma    108.775

_space_group_name_H-M_alt    "P 1"
_space_group_IT_number       1

loop_
  _space_group_symop_operation_xyz
  'x, y, z'

loop_
  _atom_site_type_symbol
  _atom_site_label
  _atom_site_symmetry_multiplicity
  _atom_site_fract_x
  _atom_site_fract_y
  _atom_site_fract_z
  _atom_site_occupancy
  Cu  Cu1       1.0  0.27626  0.91374  0.91374  1.0000
  Cu  Cu2       1.0  0.72375  0.08627  0.08626  1.0000
  H   H1        1.0  0.92973  0.72146  0.97618  1.0000
  H   H2        1.0  0.07027  0.02379  0.27853  1.0000
  H   H3        1.0  0.07029  0.27857  0.02383  1.0000
  H   H4        1.0  0.92972  0.97618  0.72144  1.0000
  H   H5        1.0  0.26259  0.79687  0.26228  1.0000
  H   H6        1.0  0.73736  0.73772  0.20311  1.0000
  H   H7        1.0  0.73741  0.20314  0.73774  1.0000
  H   H8        1.0  0.26261  0.26224  0.79684  1.0000
  H   H9        1.0  0.33975  0.63815  0.13231  1.0000
  H   H10       1.0  0.66025  0.86773  0.36186  1.0000
  H   H11       1.0  0.66025  0.36188  0.86771  1.0000
  H   H12       1.0  0.33976  0.13225  0.63811  1.0000
  H   H13       1.0  0.09765  0.47915  0.78384  1.0000
  H   H14       1.0  0.90239  0.21619  0.52085  1.0000
  H   H15       1.0  0.90236  0.52088  0.21620  1.0000
  H   H16       1.0  0.09758  0.78375  0.47912  1.0000
  H   H17       1.0  0.84275  0.51646  0.68090  1.0000
  H   H18       1.0  0.15730  0.31909  0.48354  1.0000
  H   H19       1.0  0.15728  0.48356  0.31912  1.0000
  H   H20       1.0  0.84266  0.68088  0.51644  1.0000
  C   C1        1.0  0.19073  0.66221  0.14593  1.0000
  C   C2        1.0  0.80925  0.85406  0.33781  1.0000
  C   C3        1.0  0.80930  0.33786  0.85406  1.0000
  C   C4        1.0  0.19074  0.14590  0.66218  1.0000
  C   C5        1.0  0.95458  0.50294  0.81013  1.0000
  C   C6        1.0  0.04547  0.18988  0.49710  1.0000
  C   C7        1.0  0.04549  0.49717  0.18994  1.0000
  C   C8        1.0  0.95449  0.81007  0.50288  1.0000
  I   I1        1.0  0.53836  0.78303  0.78303  1.0000
  I   I2        1.0  0.46165  0.21699  0.21696  1.0000
  N   N1        1.0  0.06241  0.68530  0.96659  1.0000
  N   N2        1.0  0.93757  0.03341  0.31466  1.0000
  N   N3        1.0  0.93758  0.31467  0.03346  1.0000
  N   N4        1.0  0.06243  0.96658  0.68529  1.0000
