data_image0
_chemical_formula_structural       Al2Zn2H6C4N6F10
_chemical_formula_sum              "Al2 Zn2 H6 C4 N6 F10"
_cell_length_a       7.21848
_cell_length_b       7.37968
_cell_length_c       7.37968
_cell_angle_alpha    74.4104
_cell_angle_beta     60.7189
_cell_angle_gamma    60.7189

_space_group_name_H-M_alt    "P 1"
_space_group_IT_number       1

loop_
  _space_group_symop_operation_xyz
  'x, y, z'

loop_
  _atom_site_type_symbol
  _atom_site_label
  _atom_site_symmetry_multiplicity
  _atom_site_fract_x
  _atom_site_fract_y
  _atom_site_fract_z
  _atom_site_occupancy
  Al  Al1       1.0  0.50000  1.00000  1.00000  1.0000
  Al  Al2       1.0  0.00000  0.00000  0.00000  1.0000
  Zn  Zn1       1.0  0.00000  0.50000  0.00000  1.0000
  Zn  Zn2       1.0  1.00000  0.00000  0.50000  1.0000
  H   H1        1.0  0.66511  0.82080  0.34895  1.0000
  H   H2        1.0  0.33489  0.65105  0.17920  1.0000
  H   H3        1.0  0.33489  0.17920  0.65105  1.0000
  H   H4        1.0  0.66511  0.34895  0.82080  1.0000
  H   H5        1.0  0.50460  0.74538  0.74538  1.0000
  H   H6        1.0  0.49540  0.25462  0.25462  1.0000
  C   C1        1.0  0.70237  0.66895  0.42627  1.0000
  C   C2        1.0  0.29764  0.57373  0.33105  1.0000
  C   C3        1.0  0.29763  0.33105  0.57373  1.0000
  C   C4        1.0  0.70237  0.42627  0.66895  1.0000
  N   N1        1.0  0.83853  0.48919  0.33372  1.0000
  N   N2        1.0  0.16147  0.66628  0.51081  1.0000
  N   N3        1.0  0.16147  0.51081  0.66629  1.0000
  N   N4        1.0  0.83853  0.33372  0.48919  1.0000
  N   N5        1.0  0.61518  0.63479  0.63480  1.0000
  N   N6        1.0  0.38482  0.36521  0.36520  1.0000
  F   F1        1.0  0.69153  0.05849  0.05849  1.0000
  F   F2        1.0  0.30847  0.94151  0.94151  1.0000
  F   F3        1.0  0.32349  0.27550  0.99085  1.0000
  F   F4        1.0  0.67651  0.00915  0.72450  1.0000
  F   F5        1.0  0.08982  0.72448  0.00915  1.0000
  F   F6        1.0  0.91017  0.99085  0.27552  1.0000
  F   F7        1.0  0.67651  0.72450  0.00915  1.0000
  F   F8        1.0  0.32349  0.99085  0.27550  1.0000
  F   F9        1.0  0.91017  0.27552  0.99085  1.0000
  F   F10       1.0  0.08983  0.00915  0.72448  1.0000
