data_image0
_chemical_formula_structural       Ca2H24C12S4O24
_chemical_formula_sum              "Ca2 H24 C12 S4 O24"
_cell_length_a       6.92848
_cell_length_b       10.0357
_cell_length_c       10.7298
_cell_angle_alpha    64.6314
_cell_angle_beta     83.3364
_cell_angle_gamma    85.1282

_space_group_name_H-M_alt    "P 1"
_space_group_IT_number       1

loop_
  _space_group_symop_operation_xyz
  'x, y, z'

loop_
  _atom_site_type_symbol
  _atom_site_label
  _atom_site_symmetry_multiplicity
  _atom_site_fract_x
  _atom_site_fract_y
  _atom_site_fract_z
  _atom_site_occupancy
  Ca  Ca1       1.0  0.23702  0.98099  0.21671  1.0000
  Ca  Ca2       1.0  0.76298  0.01901  0.78329  1.0000
  H   H1        1.0  0.74799  0.68154  0.18677  1.0000
  H   H2        1.0  0.25200  0.31847  0.81322  1.0000
  H   H3        1.0  0.73203  0.60118  0.61677  1.0000
  H   H4        1.0  0.26797  0.39883  0.38323  1.0000
  H   H5        1.0  0.71603  0.18165  0.44276  1.0000
  H   H6        1.0  0.28397  0.81835  0.55724  1.0000
  H   H7        1.0  0.76412  0.35188  0.77078  1.0000
  H   H8        1.0  0.23588  0.64812  0.22921  1.0000
  H   H9        1.0  0.94208  0.14749  0.01287  1.0000
  H   H10       1.0  0.05792  0.85251  0.98714  1.0000
  H   H11       1.0  0.02188  0.26020  0.05973  1.0000
  H   H12       1.0  0.97812  0.73980  0.94027  1.0000
  H   H13       1.0  0.51950  0.22400  0.15298  1.0000
  H   H14       1.0  0.48049  0.77600  0.84702  1.0000
  H   H15       1.0  0.39521  0.30959  0.02565  1.0000
  H   H16       1.0  0.60479  0.69041  0.97435  1.0000
  H   H17       1.0  0.38087  0.85610  0.99869  1.0000
  H   H18       1.0  0.61913  0.14391  0.00131  1.0000
  H   H19       1.0  0.28410  0.00926  0.93093  1.0000
  H   H20       1.0  0.71590  0.99075  0.06907  1.0000
  H   H21       1.0  0.20101  0.12496  0.41390  1.0000
  H   H22       1.0  0.79899  0.87504  0.58610  1.0000
  H   H23       1.0  0.08161  0.22030  0.28209  1.0000
  H   H24       1.0  0.91838  0.77970  0.71791  1.0000
  C   C1        1.0  0.73954  0.65697  0.39754  1.0000
  C   C2        1.0  0.26046  0.34303  0.60246  1.0000
  C   C3        1.0  0.74665  0.60526  0.29583  1.0000
  C   C4        1.0  0.25335  0.39473  0.70417  1.0000
  C   C5        1.0  0.75122  0.45364  0.33461  1.0000
  C   C6        1.0  0.24878  0.54636  0.66539  1.0000
  C   C7        1.0  0.75062  0.35251  0.47448  1.0000
  C   C8        1.0  0.24939  0.64749  0.52552  1.0000
  C   C9        1.0  0.74885  0.40846  0.57499  1.0000
  C   C10       1.0  0.25116  0.59153  0.42501  1.0000
  C   C11       1.0  0.74136  0.55955  0.53744  1.0000
  C   C12       1.0  0.25864  0.44046  0.46256  1.0000
  S   S1        1.0  0.72475  0.85065  0.34322  1.0000
  S   S2        1.0  0.27525  0.14935  0.65677  1.0000
  S   S3        1.0  0.75716  0.39315  0.20097  1.0000
  S   S4        1.0  0.24284  0.60685  0.79903  1.0000
  O   O1        1.0  0.91490  0.90441  0.27188  1.0000
  O   O2        1.0  0.08510  0.09559  0.72812  1.0000
  O   O3        1.0  0.57542  0.90547  0.24227  1.0000
  O   O4        1.0  0.42458  0.09453  0.75773  1.0000
  O   O5        1.0  0.66755  0.87773  0.46566  1.0000
  O   O6        1.0  0.33245  0.12228  0.53434  1.0000
  O   O7        1.0  0.65186  0.50475  0.09032  1.0000
  O   O8        1.0  0.34814  0.49525  0.90968  1.0000
  O   O9        1.0  0.96539  0.37578  0.15931  1.0000
  O   O10       1.0  0.03461  0.62422  0.84070  1.0000
  O   O11       1.0  0.66075  0.24942  0.26769  1.0000
  O   O12       1.0  0.33925  0.75058  0.73231  1.0000
  O   O13       1.0  0.75029  0.20388  0.51977  1.0000
  O   O14       1.0  0.24972  0.79611  0.48022  1.0000
  O   O15       1.0  0.74794  0.30514  0.70981  1.0000
  O   O16       1.0  0.25207  0.69486  0.29019  1.0000
  O   O17       1.0  0.06277  0.18039  0.03071  1.0000
  O   O18       1.0  0.93723  0.81961  0.96929  1.0000
  O   O19       1.0  0.44930  0.21034  0.08377  1.0000
  O   O20       1.0  0.55070  0.78966  0.91623  1.0000
  O   O21       1.0  0.27288  0.91992  0.01927  1.0000
  O   O22       1.0  0.72712  0.08008  0.98073  1.0000
  O   O23       1.0  0.13908  0.12162  0.33663  1.0000
  O   O24       1.0  0.86092  0.87838  0.66337  1.0000
