data_image0
_chemical_formula_structural       Ag4H24C36S8N16O20F12
_chemical_formula_sum              "Ag4 H24 C36 S8 N16 O20 F12"
_cell_length_a       7.99579
_cell_length_b       12.1615
_cell_length_c       14.4818
_cell_angle_alpha    90
_cell_angle_beta     90
_cell_angle_gamma    90

_space_group_name_H-M_alt    "P 1"
_space_group_IT_number       1

loop_
  _space_group_symop_operation_xyz
  'x, y, z'

loop_
  _atom_site_type_symbol
  _atom_site_label
  _atom_site_symmetry_multiplicity
  _atom_site_fract_x
  _atom_site_fract_y
  _atom_site_fract_z
  _atom_site_occupancy
  Ag  Ag1       1.0  0.94465  0.56917  0.68165  1.0000
  Ag  Ag2       1.0  0.05535  0.43083  0.18165  1.0000
  Ag  Ag3       1.0  0.55535  0.06917  0.68165  1.0000
  Ag  Ag4       1.0  0.44465  0.93083  0.18165  1.0000
  H   H1        1.0  0.96107  0.30041  0.37705  1.0000
  H   H2        1.0  0.03893  0.69959  0.87705  1.0000
  H   H3        1.0  0.53893  0.80041  0.37705  1.0000
  H   H4        1.0  0.46107  0.19959  0.87705  1.0000
  H   H5        1.0  0.92024  0.68159  0.47857  1.0000
  H   H6        1.0  0.07976  0.31841  0.97857  1.0000
  H   H7        1.0  0.57976  0.18159  0.47857  1.0000
  H   H8        1.0  0.42024  0.81841  0.97857  1.0000
  H   H9        1.0  0.96480  0.63448  0.31206  1.0000
  H   H10       1.0  0.03520  0.36552  0.81206  1.0000
  H   H11       1.0  0.53520  0.13448  0.31206  1.0000
  H   H12       1.0  0.46480  0.86552  0.81206  1.0000
  H   H13       1.0  0.21898  0.14860  0.58038  1.0000
  H   H14       1.0  0.78102  0.85140  0.08038  1.0000
  H   H15       1.0  0.28102  0.64860  0.58038  1.0000
  H   H16       1.0  0.71898  0.35140  0.08038  1.0000
  H   H17       1.0  0.58037  0.33411  0.71812  1.0000
  H   H18       1.0  0.41963  0.66589  0.21812  1.0000
  H   H19       1.0  0.91963  0.83411  0.71812  1.0000
  H   H20       1.0  0.08037  0.16589  0.21812  1.0000
  H   H21       1.0  0.38926  0.49915  0.71454  1.0000
  H   H22       1.0  0.61074  0.50085  0.21454  1.0000
  H   H23       1.0  0.11074  0.99915  0.71454  1.0000
  H   H24       1.0  0.88926  0.00085  0.21454  1.0000
  C   C1        1.0  0.95242  0.38580  0.39891  1.0000
  C   C2        1.0  0.04758  0.61420  0.89891  1.0000
  C   C3        1.0  0.54758  0.88580  0.39891  1.0000
  C   C4        1.0  0.45242  0.11420  0.89891  1.0000
  C   C5        1.0  0.93372  0.41417  0.49146  1.0000
  C   C6        1.0  0.06628  0.58583  0.99146  1.0000
  C   C7        1.0  0.56628  0.91417  0.49146  1.0000
  C   C8        1.0  0.43372  0.08583  0.99146  1.0000
  C   C9        1.0  0.93008  0.59633  0.45639  1.0000
  C   C10       1.0  0.06992  0.40367  0.95639  1.0000
  C   C11       1.0  0.56992  0.09633  0.45639  1.0000
  C   C12       1.0  0.43008  0.90367  0.95639  1.0000
  C   C13       1.0  0.95317  0.56960  0.36332  1.0000
  C   C14       1.0  0.04682  0.43041  0.86332  1.0000
  C   C15       1.0  0.54683  0.06960  0.36332  1.0000
  C   C16       1.0  0.45317  0.93040  0.86332  1.0000
  C   C17       1.0  0.15075  0.31616  0.61645  1.0000
  C   C18       1.0  0.84925  0.68384  0.11645  1.0000
  C   C19       1.0  0.34925  0.81616  0.61645  1.0000
  C   C20       1.0  0.65075  0.18384  0.11645  1.0000
  C   C21       1.0  0.25671  0.22573  0.61245  1.0000
  C   C22       1.0  0.74329  0.77427  0.11245  1.0000
  C   C23       1.0  0.24329  0.72573  0.61245  1.0000
  C   C24       1.0  0.75671  0.27427  0.11245  1.0000
  C   C25       1.0  0.45579  0.32885  0.68809  1.0000
  C   C26       1.0  0.54421  0.67115  0.18809  1.0000
  C   C27       1.0  0.04421  0.82885  0.68809  1.0000
  C   C28       1.0  0.95579  0.17115  0.18810  1.0000
  C   C29       1.0  0.34902  0.42007  0.68712  1.0000
  C   C30       1.0  0.65098  0.57993  0.18712  1.0000
  C   C31       1.0  0.15098  0.92007  0.68712  1.0000
  C   C32       1.0  0.84902  0.07993  0.18712  1.0000
  C   C33       1.0  0.54494  0.53769  0.91913  1.0000
  C   C34       1.0  0.45506  0.46231  0.41913  1.0000
  C   C35       1.0  0.95506  0.03769  0.91913  1.0000
  C   C36       1.0  0.04494  0.96232  0.41913  1.0000
  S   S1        1.0  0.93721  0.30846  0.57812  1.0000
  S   S2        1.0  0.06279  0.69154  0.07812  1.0000
  S   S3        1.0  0.56279  0.80846  0.57812  1.0000
  S   S4        1.0  0.43721  0.19154  0.07812  1.0000
  S   S5        1.0  0.59136  0.63880  0.82541  1.0000
  S   S6        1.0  0.40864  0.36120  0.32541  1.0000
  S   S7        1.0  0.90864  0.13880  0.82541  1.0000
  S   S8        1.0  0.09136  0.86120  0.32541  1.0000
  N   N1        1.0  0.96253  0.46512  0.33454  1.0000
  N   N2        1.0  0.03747  0.53488  0.83454  1.0000
  N   N3        1.0  0.53747  0.96512  0.33454  1.0000
  N   N4        1.0  0.46253  0.03488  0.83454  1.0000
  N   N5        1.0  0.92124  0.51823  0.52118  1.0000
  N   N6        1.0  0.07876  0.48177  0.02118  1.0000
  N   N7        1.0  0.57876  0.01823  0.52118  1.0000
  N   N8        1.0  0.42124  0.98177  0.02118  1.0000
  N   N9        1.0  0.41046  0.23276  0.64986  1.0000
  N   N10       1.0  0.58954  0.76724  0.14986  1.0000
  N   N11       1.0  0.08954  0.73276  0.64986  1.0000
  N   N12       1.0  0.91046  0.26724  0.14986  1.0000
  N   N13       1.0  0.19495  0.41297  0.65212  1.0000
  N   N14       1.0  0.80505  0.58703  0.15212  1.0000
  N   N15       1.0  0.30505  0.91297  0.65212  1.0000
  N   N16       1.0  0.69495  0.08703  0.15212  1.0000
  O   O1        1.0  0.83380  0.34341  0.65481  1.0000
  O   O2        1.0  0.16620  0.65659  0.15481  1.0000
  O   O3        1.0  0.66620  0.84341  0.65481  1.0000
  O   O4        1.0  0.33380  0.15659  0.15481  1.0000
  O   O5        1.0  0.91095  0.20383  0.53330  1.0000
  O   O6        1.0  0.08905  0.79617  0.03330  1.0000
  O   O7        1.0  0.58905  0.70382  0.53330  1.0000
  O   O8        1.0  0.41095  0.29618  0.03330  1.0000
  O   O9        1.0  0.66477  0.56901  0.75348  1.0000
  O   O10       1.0  0.33523  0.43099  0.25348  1.0000
  O   O11       1.0  0.83523  0.06901  0.75348  1.0000
  O   O12       1.0  0.16477  0.93100  0.25348  1.0000
  O   O13       1.0  0.42493  0.68044  0.80261  1.0000
  O   O14       1.0  0.57507  0.31956  0.30261  1.0000
  O   O15       1.0  0.07507  0.18044  0.80261  1.0000
  O   O16       1.0  0.92493  0.81956  0.30261  1.0000
  O   O17       1.0  0.70472  0.71669  0.86913  1.0000
  O   O18       1.0  0.29528  0.28332  0.36913  1.0000
  O   O19       1.0  0.79528  0.21669  0.86913  1.0000
  O   O20       1.0  0.20472  0.78332  0.36913  1.0000
  F   F1        1.0  0.44517  0.45554  0.88778  1.0000
  F   F2        1.0  0.55483  0.54446  0.38778  1.0000
  F   F3        1.0  0.05483  0.95554  0.88778  1.0000
  F   F4        1.0  0.94517  0.04446  0.38778  1.0000
  F   F5        1.0  0.46468  0.58754  0.99093  1.0000
  F   F6        1.0  0.53531  0.41246  0.49093  1.0000
  F   F7        1.0  0.03532  0.08754  0.99092  1.0000
  F   F8        1.0  0.96468  0.91246  0.49093  1.0000
  F   F9        1.0  0.68721  0.49134  0.95316  1.0000
  F   F10       1.0  0.31279  0.50866  0.45316  1.0000
  F   F11       1.0  0.81279  0.99134  0.95316  1.0000
  F   F12       1.0  0.18721  0.00866  0.45316  1.0000
