data_image0
_chemical_formula_structural       Cu2H24C40N6O8
_chemical_formula_sum              "Cu2 H24 C40 N6 O8"
_cell_length_a       7.54906
_cell_length_b       10.4166
_cell_length_c       12.207
_cell_angle_alpha    104.01
_cell_angle_beta     104.416
_cell_angle_gamma    106.952

_space_group_name_H-M_alt    "P 1"
_space_group_IT_number       1

loop_
  _space_group_symop_operation_xyz
  'x, y, z'

loop_
  _atom_site_type_symbol
  _atom_site_label
  _atom_site_symmetry_multiplicity
  _atom_site_fract_x
  _atom_site_fract_y
  _atom_site_fract_z
  _atom_site_occupancy
  Cu  Cu1       1.0  0.07023  0.34048  0.24581  1.0000
  Cu  Cu2       1.0  0.92977  0.65952  0.75419  1.0000
  H   H1        1.0  0.07064  0.64353  0.29315  1.0000
  H   H2        1.0  0.92937  0.35648  0.70685  1.0000
  H   H3        1.0  0.33384  0.89006  0.38631  1.0000
  H   H4        1.0  0.66619  0.10994  0.61369  1.0000
  H   H5        1.0  0.68901  0.91580  0.46234  1.0000
  H   H6        1.0  0.31101  0.08420  0.53765  1.0000
  H   H7        1.0  0.76457  0.69633  0.46015  1.0000
  H   H8        1.0  0.23544  0.30367  0.53984  1.0000
  H   H9        1.0  0.79980  0.48362  0.43495  1.0000
  H   H10       1.0  0.20020  0.51637  0.56505  1.0000
  H   H11       1.0  0.46880  0.03175  0.26919  1.0000
  H   H12       1.0  0.53120  0.96825  0.73081  1.0000
  H   H13       1.0  0.16110  0.87173  0.14050  1.0000
  H   H14       1.0  0.83889  0.12827  0.85952  1.0000
  H   H15       1.0  0.81538  0.71879  0.02050  1.0000
  H   H16       1.0  0.18461  0.28120  0.97951  1.0000
  H   H17       1.0  0.55790  0.82926  0.99833  1.0000
  H   H18       1.0  0.44209  0.17074  0.00168  1.0000
  H   H19       1.0  0.66886  0.09545  0.09504  1.0000
  H   H20       1.0  0.33114  0.90456  0.90495  1.0000
  H   H21       1.0  0.67670  0.55118  0.21555  1.0000
  H   H22       1.0  0.32328  0.44882  0.78445  1.0000
  H   H23       1.0  0.58338  0.34876  0.84496  1.0000
  H   H24       1.0  0.41659  0.65123  0.15503  1.0000
  C   C1        1.0  0.22643  0.66133  0.32985  1.0000
  C   C2        1.0  0.77359  0.33868  0.67015  1.0000
  C   C3        1.0  0.37421  0.79726  0.38096  1.0000
  C   C4        1.0  0.62581  0.20274  0.61904  1.0000
  C   C5        1.0  0.57027  0.81090  0.42588  1.0000
  C   C6        1.0  0.42975  0.18910  0.57412  1.0000
  C   C7        1.0  0.61312  0.68830  0.42049  1.0000
  C   C8        1.0  0.38689  0.31169  0.57951  1.0000
  C   C9        1.0  0.45847  0.55526  0.36630  1.0000
  C   C10       1.0  0.54154  0.44474  0.63370  1.0000
  C   C11       1.0  0.48317  0.41691  0.34727  1.0000
  C   C12       1.0  0.51683  0.58309  0.65273  1.0000
  C   C13       1.0  0.65930  0.39471  0.38360  1.0000
  C   C14       1.0  0.34071  0.60529  0.61640  1.0000
  C   C15       1.0  0.65243  0.25436  0.35543  1.0000
  C   C16       1.0  0.34758  0.74564  0.64457  1.0000
  C   C17       1.0  0.47198  0.14033  0.28973  1.0000
  C   C18       1.0  0.52803  0.85968  0.71027  1.0000
  C   C19       1.0  0.30150  0.16930  0.25390  1.0000
  C   C20       1.0  0.69850  0.83070  0.74611  1.0000
  C   C21       1.0  0.09943  0.06554  0.18307  1.0000
  C   C22       1.0  0.90057  0.93447  0.81693  1.0000
  C   C23       1.0  0.04976  0.91918  0.13188  1.0000
  C   C24       1.0  0.95023  0.08082  0.86813  1.0000
  C   C25       1.0  0.85381  0.83250  0.06343  1.0000
  C   C26       1.0  0.14618  0.16750  0.93658  1.0000
  C   C27       1.0  0.71229  0.89407  0.05016  1.0000
  C   C28       1.0  0.28770  0.10593  0.94985  1.0000
  C   C29       1.0  0.77213  0.04100  0.10345  1.0000
  C   C30       1.0  0.22786  0.95900  0.89655  1.0000
  C   C31       1.0  0.83963  0.22495  0.39816  1.0000
  C   C32       1.0  0.16037  0.77504  0.60183  1.0000
  C   C33       1.0  0.79685  0.38115  0.06911  1.0000
  C   C34       1.0  0.20314  0.61885  0.93090  1.0000
  C   C35       1.0  0.64448  0.44388  0.03377  1.0000
  C   C36       1.0  0.35551  0.55612  0.96623  1.0000
  C   C37       1.0  0.59752  0.52887  0.12133  1.0000
  C   C38       1.0  0.40247  0.47113  0.87867  1.0000
  C   C39       1.0  0.54613  0.41559  0.91195  1.0000
  C   C40       1.0  0.45385  0.58440  0.08805  1.0000
  N   N1        1.0  0.26831  0.54382  0.32131  1.0000
  N   N2        1.0  0.73169  0.45618  0.67869  1.0000
  N   N3        1.0  0.31236  0.30501  0.28441  1.0000
  N   N4        1.0  0.68763  0.69499  0.71559  1.0000
  N   N5        1.0  0.96060  0.12468  0.16692  1.0000
  N   N6        1.0  0.03939  0.87532  0.83308  1.0000
  O   O1        1.0  0.84854  0.39085  0.18202  1.0000
  O   O2        1.0  0.15146  0.60916  0.81798  1.0000
  O   O3        1.0  0.85990  0.32384  0.99348  1.0000
  O   O4        1.0  0.14009  0.67617  0.00653  1.0000
  O   O5        1.0  0.00066  0.32414  0.41317  1.0000
  O   O6        1.0  0.99934  0.67585  0.58682  1.0000
  O   O7        1.0  0.82038  0.10883  0.41572  1.0000
  O   O8        1.0  0.17962  0.89117  0.58427  1.0000
