data_image0
_chemical_formula_structural       Zn2H36C52N8O10
_chemical_formula_sum              "Zn2 H36 C52 N8 O10"
_cell_length_a       8.63214
_cell_length_b       11.0062
_cell_length_c       14.3434
_cell_angle_alpha    111.761
_cell_angle_beta     100.448
_cell_angle_gamma    98.3815

_space_group_name_H-M_alt    "P 1"
_space_group_IT_number       1

loop_
  _space_group_symop_operation_xyz
  'x, y, z'

loop_
  _atom_site_type_symbol
  _atom_site_label
  _atom_site_symmetry_multiplicity
  _atom_site_fract_x
  _atom_site_fract_y
  _atom_site_fract_z
  _atom_site_occupancy
  Zn  Zn1       1.0  0.13663  0.77802  0.87964  1.0000
  Zn  Zn2       1.0  0.86337  0.22198  0.12036  1.0000
  H   H1        1.0  0.16468  0.47008  0.49943  1.0000
  H   H2        1.0  0.83532  0.52992  0.50057  1.0000
  H   H3        1.0  0.33684  0.32585  0.41131  1.0000
  H   H4        1.0  0.66316  0.67415  0.58869  1.0000
  H   H5        1.0  0.54534  0.29728  0.69696  1.0000
  H   H6        1.0  0.45466  0.70271  0.30304  1.0000
  H   H7        1.0  0.37721  0.44825  0.78636  1.0000
  H   H8        1.0  0.62279  0.55175  0.21364  1.0000
  H   H9        1.0  0.65043  0.23187  0.34098  1.0000
  H   H10       1.0  0.34957  0.76813  0.65901  1.0000
  H   H11       1.0  0.51935  0.06357  0.15682  1.0000
  H   H12       1.0  0.48065  0.93643  0.84317  1.0000
  H   H13       1.0  0.18962  0.85058  0.26491  1.0000
  H   H14       1.0  0.81038  0.14941  0.73509  1.0000
  H   H15       1.0  0.31625  0.01991  0.44898  1.0000
  H   H16       1.0  0.68376  0.98009  0.55102  1.0000
  H   H17       1.0  0.02004  0.78258  0.65831  1.0000
  H   H18       1.0  0.97996  0.21742  0.34169  1.0000
  H   H19       1.0  0.25575  0.10212  0.94663  1.0000
  H   H20       1.0  0.74424  0.89788  0.05337  1.0000
  H   H21       1.0  0.21676  0.20597  0.79582  1.0000
  H   H22       1.0  0.78323  0.79403  0.20418  1.0000
  H   H23       1.0  0.04162  0.20867  0.65880  1.0000
  H   H24       1.0  0.95837  0.79132  0.34120  1.0000
  H   H25       1.0  0.05388  0.78962  0.51204  1.0000
  H   H26       1.0  0.94612  0.21037  0.48796  1.0000
  H   H27       1.0  0.92579  0.61178  0.97287  1.0000
  H   H28       1.0  0.07420  0.38822  0.02713  1.0000
  H   H29       1.0  0.78570  0.82475  0.79343  1.0000
  H   H30       1.0  0.21430  0.17525  0.20657  1.0000
  H   H31       1.0  0.51090  0.71146  0.83770  1.0000
  H   H32       1.0  0.48910  0.28854  0.16230  1.0000
  H   H33       1.0  0.71858  0.40623  0.92720  1.0000
  H   H34       1.0  0.28142  0.59378  0.07280  1.0000
  H   H35       1.0  0.44674  0.71508  0.99722  1.0000
  H   H36       1.0  0.55326  0.28493  0.00279  1.0000
  C   C1        1.0  0.17238  0.56957  0.70447  1.0000
  C   C2        1.0  0.82761  0.43043  0.29553  1.0000
  C   C3        1.0  0.26251  0.47047  0.64941  1.0000
  C   C4        1.0  0.73749  0.52953  0.35059  1.0000
  C   C5        1.0  0.24863  0.43302  0.54292  1.0000
  C   C6        1.0  0.75137  0.56698  0.45708  1.0000
  C   C7        1.0  0.34349  0.35115  0.49320  1.0000
  C   C8        1.0  0.65652  0.64885  0.50680  1.0000
  C   C9        1.0  0.45184  0.30495  0.54993  1.0000
  C   C10       1.0  0.54816  0.69505  0.45007  1.0000
  C   C11       1.0  0.46307  0.33726  0.65516  1.0000
  C   C12       1.0  0.53694  0.66274  0.34484  1.0000
  C   C13       1.0  0.36896  0.42046  0.70412  1.0000
  C   C14       1.0  0.63104  0.57954  0.29588  1.0000
  C   C15       1.0  0.48823  0.13487  0.40353  1.0000
  C   C16       1.0  0.51177  0.86513  0.59647  1.0000
  C   C17       1.0  0.55033  0.14735  0.32332  1.0000
  C   C18       1.0  0.44967  0.85265  0.67668  1.0000
  C   C19       1.0  0.47755  0.05401  0.22152  1.0000
  C   C20       1.0  0.52245  0.94600  0.77847  1.0000
  C   C21       1.0  0.34550  0.94875  0.20039  1.0000
  C   C22       1.0  0.65450  0.05125  0.79961  1.0000
  C   C23       1.0  0.29046  0.93465  0.28287  1.0000
  C   C24       1.0  0.70954  0.06535  0.71713  1.0000
  C   C25       1.0  0.36031  0.02782  0.38441  1.0000
  C   C26       1.0  0.63969  0.97218  0.61559  1.0000
  C   C27       1.0  0.25620  0.85359  0.09161  1.0000
  C   C28       1.0  0.74380  0.14640  0.90839  1.0000
  C   C29       1.0  0.07744  0.88395  0.71569  1.0000
  C   C30       1.0  0.92256  0.11604  0.28431  1.0000
  C   C31       1.0  0.19940  0.05284  0.86395  1.0000
  C   C32       1.0  0.80060  0.94716  0.13605  1.0000
  C   C33       1.0  0.17981  0.10484  0.79046  1.0000
  C   C34       1.0  0.82019  0.89516  0.20954  1.0000
  C   C35       1.0  0.02506  0.11727  0.58952  1.0000
  C   C36       1.0  0.97494  0.88272  0.41048  1.0000
  C   C37       1.0  0.05352  0.99912  0.59731  1.0000
  C   C38       1.0  0.94648  0.00087  0.40269  1.0000
  C   C39       1.0  0.02913  0.88176  0.50751  1.0000
  C   C40       1.0  0.97087  0.11823  0.49249  1.0000
  C   C41       1.0  0.85080  0.64994  0.92637  1.0000
  C   C42       1.0  0.14919  0.35006  0.07364  1.0000
  C   C43       1.0  0.77342  0.76245  0.83615  1.0000
  C   C44       1.0  0.22659  0.23756  0.16385  1.0000
  C   C45       1.0  0.63773  0.71018  0.85842  1.0000
  C   C46       1.0  0.36227  0.28982  0.14158  1.0000
  C   C47       1.0  0.59302  0.56889  0.95854  1.0000
  C   C48       1.0  0.40698  0.43112  0.04146  1.0000
  C   C49       1.0  0.62401  0.44840  0.95971  1.0000
  C   C50       1.0  0.37599  0.55161  0.04030  1.0000
  C   C51       1.0  0.46962  0.62104  0.99848  1.0000
  C   C52       1.0  0.53039  0.37897  0.00153  1.0000
  N   N1        1.0  0.13553  0.91544  0.81618  1.0000
  N   N2        1.0  0.86447  0.08455  0.18382  1.0000
  N   N3        1.0  0.10255  0.99654  0.69640  1.0000
  N   N4        1.0  0.89745  0.00346  0.30360  1.0000
  N   N5        1.0  0.90477  0.72474  0.87934  1.0000
  N   N6        1.0  0.09523  0.27526  0.12066  1.0000
  N   N7        1.0  0.68908  0.63877  0.91543  1.0000
  N   N8        1.0  0.31092  0.36123  0.08457  1.0000
  O   O1        1.0  0.55553  0.23004  0.50492  1.0000
  O   O2        1.0  0.44447  0.76996  0.49507  1.0000
  O   O3        1.0  0.05216  0.59114  0.65522  1.0000
  O   O4        1.0  0.94785  0.40886  0.34478  1.0000
  O   O5        1.0  0.23433  0.63272  0.80494  1.0000
  O   O6        1.0  0.76567  0.36727  0.19506  1.0000
  O   O7        1.0  0.28713  0.88858  0.01837  1.0000
  O   O8        1.0  0.71287  0.11142  0.98163  1.0000
  O   O9        1.0  0.15756  0.74852  0.07654  1.0000
  O   O10       1.0  0.84244  0.25149  0.92346  1.0000
