data_image0
_chemical_formula_structural       NiH28C20N4O8
_chemical_formula_sum              "Ni1 H28 C20 N4 O8"
_cell_length_a       7.94974
_cell_length_b       7.96842
_cell_length_c       9.46903
_cell_angle_alpha    69.236
_cell_angle_beta     82.343
_cell_angle_gamma    73.6029

_space_group_name_H-M_alt    "P 1"
_space_group_IT_number       1

loop_
  _space_group_symop_operation_xyz
  'x, y, z'

loop_
  _atom_site_type_symbol
  _atom_site_label
  _atom_site_symmetry_multiplicity
  _atom_site_fract_x
  _atom_site_fract_y
  _atom_site_fract_z
  _atom_site_occupancy
  Ni  Ni1       1.0  0.00000  1.00000  0.00000  1.0000
  H   H1        1.0  0.11139  0.83745  0.26423  1.0000
  H   H2        1.0  0.88862  0.16255  0.73578  1.0000
  H   H3        1.0  0.02824  0.73335  0.91203  1.0000
  H   H4        1.0  0.97177  0.26665  0.08797  1.0000
  H   H5        1.0  0.28696  0.53987  0.25355  1.0000
  H   H6        1.0  0.71304  0.46014  0.74645  1.0000
  H   H7        1.0  0.29766  0.64408  0.05369  1.0000
  H   H8        1.0  0.70234  0.35593  0.94632  1.0000
  H   H9        1.0  0.05675  0.46906  0.14626  1.0000
  H   H10       1.0  0.94326  0.53094  0.85374  1.0000
  H   H11       1.0  0.95360  0.62707  0.24139  1.0000
  H   H12       1.0  0.04640  0.37292  0.75861  1.0000
  H   H13       1.0  0.70016  0.79829  0.09569  1.0000
  H   H14       1.0  0.29985  0.20170  0.90432  1.0000
  H   H15       1.0  0.75438  0.62300  0.01143  1.0000
  H   H16       1.0  0.24562  0.37699  0.98857  1.0000
  H   H17       1.0  0.56934  0.88028  0.83602  1.0000
  H   H18       1.0  0.43067  0.11972  0.16398  1.0000
  H   H19       1.0  0.78118  0.88061  0.75426  1.0000
  H   H20       1.0  0.21883  0.11939  0.24575  1.0000
  H   H21       1.0  0.42404  0.80357  0.25566  1.0000
  H   H22       1.0  0.57596  0.19643  0.74435  1.0000
  H   H23       1.0  0.41599  0.87726  0.05543  1.0000
  H   H24       1.0  0.58402  0.12273  0.94458  1.0000
  H   H25       1.0  0.87618  0.44909  0.48295  1.0000
  H   H26       1.0  0.12381  0.55092  0.51703  1.0000
  H   H27       1.0  0.50394  0.32848  0.36637  1.0000
  H   H28       1.0  0.49605  0.67153  0.63363  1.0000
  C   C1        1.0  0.21514  0.64690  0.15628  1.0000
  C   C2        1.0  0.78486  0.35311  0.84372  1.0000
  C   C3        1.0  0.04023  0.61157  0.14429  1.0000
  C   C4        1.0  0.95978  0.38843  0.85571  1.0000
  C   C5        1.0  0.77107  0.76080  0.99895  1.0000
  C   C6        1.0  0.22893  0.23920  0.00105  1.0000
  C   C7        1.0  0.69483  0.90345  0.85060  1.0000
  C   C8        1.0  0.30518  0.09654  0.14940  1.0000
  C   C9        1.0  0.34206  0.89445  0.15806  1.0000
  C   C10       1.0  0.65794  0.10555  0.84194  1.0000
  C   C11       1.0  0.64085  0.04567  0.39808  1.0000
  C   C12       1.0  0.35914  0.95433  0.60191  1.0000
  C   C13       1.0  0.63973  0.85890  0.47575  1.0000
  C   C14       1.0  0.36027  0.14110  0.52425  1.0000
  C   C15       1.0  0.50199  0.18431  0.42632  1.0000
  C   C16       1.0  0.49801  0.81569  0.57368  1.0000
  C   C17       1.0  0.77177  0.10257  0.26994  1.0000
  C   C18       1.0  0.22822  0.89744  0.73005  1.0000
  C   C19       1.0  0.79740  0.70577  0.47154  1.0000
  C   C20       1.0  0.20260  0.29423  0.52846  1.0000
  N   N1        1.0  0.18161  0.83431  0.16561  1.0000
  N   N2        1.0  0.81840  0.16569  0.83440  1.0000
  N   N3        1.0  0.95609  0.75237  0.00785  1.0000
  N   N4        1.0  0.04392  0.24763  0.99215  1.0000
  O   O1        1.0  0.80811  0.00209  0.18395  1.0000
  O   O2        1.0  0.19188  0.99790  0.81605  1.0000
  O   O3        1.0  0.82335  0.24405  0.25329  1.0000
  O   O4        1.0  0.17664  0.75596  0.74671  1.0000
  O   O5        1.0  0.94809  0.71940  0.47872  1.0000
  O   O6        1.0  0.05189  0.28060  0.52128  1.0000
  O   O7        1.0  0.76290  0.55290  0.46996  1.0000
  O   O8        1.0  0.23708  0.44711  0.53002  1.0000
