data_image0
_chemical_formula_structural       Tl2B2H28C32N12
_chemical_formula_sum              "Tl2 B2 H28 C32 N12"
_cell_length_a       5.81594
_cell_length_b       10.0142
_cell_length_c       13.9
_cell_angle_alpha    97.6954
_cell_angle_beta     90
_cell_angle_gamma    90.0013

_space_group_name_H-M_alt    "P 1"
_space_group_IT_number       1

loop_
  _space_group_symop_operation_xyz
  'x, y, z'

loop_
  _atom_site_type_symbol
  _atom_site_label
  _atom_site_symmetry_multiplicity
  _atom_site_fract_x
  _atom_site_fract_y
  _atom_site_fract_z
  _atom_site_occupancy
  Tl  Tl1       1.0  0.12467  0.21879  0.25038  1.0000
  Tl  Tl2       1.0  0.62465  0.78119  0.74962  1.0000
  B   B1        1.0  0.44143  0.50791  0.21734  1.0000
  B   B2        1.0  0.94145  0.49209  0.78267  1.0000
  H   H1        1.0  0.87003  0.59215  0.30901  1.0000
  H   H2        1.0  0.37003  0.40787  0.69097  1.0000
  H   H3        1.0  0.67080  0.32163  0.90015  1.0000
  H   H4        1.0  0.17086  0.67837  0.09986  1.0000
  H   H5        1.0  0.99490  0.45911  0.46178  1.0000
  H   H6        1.0  0.49491  0.54091  0.53821  1.0000
  H   H7        1.0  0.77514  0.49595  0.06338  1.0000
  H   H8        1.0  0.27515  0.50403  0.93660  1.0000
  H   H9        1.0  0.71124  0.01678  0.93383  1.0000
  H   H10       1.0  0.21130  0.98320  0.06617  1.0000
  H   H11       1.0  0.94255  0.18760  0.03557  1.0000
  H   H12       1.0  0.44261  0.81238  0.96444  1.0000
  H   H13       1.0  0.94881  0.30940  0.57146  1.0000
  H   H14       1.0  0.44880  0.69062  0.42853  1.0000
  H   H15       1.0  0.30884  0.16846  0.43474  1.0000
  H   H16       1.0  0.80884  0.83156  0.56527  1.0000
  H   H17       1.0  0.88070  0.15380  0.69171  1.0000
  H   H18       1.0  0.38068  0.84621  0.30829  1.0000
  H   H19       1.0  0.26858  0.01901  0.56051  1.0000
  H   H20       1.0  0.76858  0.98102  0.43951  1.0000
  H   H21       1.0  0.20990  0.96883  0.71899  1.0000
  H   H22       1.0  0.70991  0.03115  0.28102  1.0000
  H   H23       1.0  0.46236  0.13648  0.81081  1.0000
  H   H24       1.0  0.96238  0.86350  0.18920  1.0000
  H   H25       1.0  0.51215  0.61976  0.20834  1.0000
  H   H26       1.0  0.01216  0.38024  0.79164  1.0000
  H   H27       1.0  0.23977  0.50741  0.24016  1.0000
  H   H28       1.0  0.73980  0.49258  0.75984  1.0000
  C   C1        1.0  0.37204  0.27371  0.99357  1.0000
  C   C2        1.0  0.87210  0.72628  0.00643  1.0000
  C   C3        1.0  0.66829  0.34498  0.41855  1.0000
  C   C4        1.0  0.16828  0.65504  0.58145  1.0000
  C   C5        1.0  0.63586  0.25240  0.49000  1.0000
  C   C6        1.0  0.13585  0.74762  0.51000  1.0000
  C   C7        1.0  0.78557  0.50997  0.33838  1.0000
  C   C8        1.0  0.28560  0.49005  0.66161  1.0000
  C   C9        1.0  0.57788  0.33620  0.96829  1.0000
  C   C10       1.0  0.07790  0.66377  0.03171  1.0000
  C   C11       1.0  0.84584  0.44125  0.41503  1.0000
  C   C12       1.0  0.34583  0.55876  0.58495  1.0000
  C   C13       1.0  0.63310  0.42585  0.04980  1.0000
  C   C14       1.0  0.13314  0.57414  0.95019  1.0000
  C   C15       1.0  0.22902  0.17536  0.93470  1.0000
  C   C16       1.0  0.72907  0.82461  0.06531  1.0000
  C   C17       1.0  0.88081  0.04404  0.90925  1.0000
  C   C18       1.0  0.38089  0.95594  0.09075  1.0000
  C   C19       1.0  0.01144  0.13917  0.96690  1.0000
  C   C20       1.0  0.51150  0.86081  0.03311  1.0000
  C   C21       1.0  0.79589  0.24603  0.56504  1.0000
  C   C22       1.0  0.29589  0.75398  0.43495  1.0000
  C   C23       1.0  0.44182  0.16869  0.48979  1.0000
  C   C24       1.0  0.94181  0.83133  0.51023  1.0000
  C   C25       1.0  0.75771  0.15826  0.63296  1.0000
  C   C26       1.0  0.25770  0.84178  0.36703  1.0000
  C   C27       1.0  0.41924  0.08414  0.56083  1.0000
  C   C28       1.0  0.91923  0.91589  0.43919  1.0000
  C   C29       1.0  0.15638  0.01768  0.79041  1.0000
  C   C30       1.0  0.65641  0.98230  0.20960  1.0000
  C   C31       1.0  0.29894  0.11268  0.84274  1.0000
  C   C32       1.0  0.79896  0.88730  0.15728  1.0000
  N   N1        1.0  0.51289  0.35534  0.34720  1.0000
  N   N2        1.0  0.01289  0.64465  0.65279  1.0000
  N   N3        1.0  0.30858  0.32415  0.08519  1.0000
  N   N4        1.0  0.80861  0.67585  0.91481  1.0000
  N   N5        1.0  0.58625  0.45636  0.29912  1.0000
  N   N6        1.0  0.08627  0.54364  0.70087  1.0000
  N   N7        1.0  0.46872  0.41683  0.11834  1.0000
  N   N8        1.0  0.96874  0.58316  0.88167  1.0000
  N   N9        1.0  0.57392  0.07640  0.63188  1.0000
  N   N10       1.0  0.07390  0.92363  0.36813  1.0000
  N   N11       1.0  0.95019  0.98163  0.82243  1.0000
  N   N12       1.0  0.45022  0.01835  0.17758  1.0000
