data_image0
_chemical_formula_structural       Cd2H28C38N8O8
_chemical_formula_sum              "Cd2 H28 C38 N8 O8"
_cell_length_a       8.54782
_cell_length_b       9.19549
_cell_length_c       15.3504
_cell_angle_alpha    88.1459
_cell_angle_beta     84.2548
_cell_angle_gamma    76.7601

_space_group_name_H-M_alt    "P 1"
_space_group_IT_number       1

loop_
  _space_group_symop_operation_xyz
  'x, y, z'

loop_
  _atom_site_type_symbol
  _atom_site_label
  _atom_site_symmetry_multiplicity
  _atom_site_fract_x
  _atom_site_fract_y
  _atom_site_fract_z
  _atom_site_occupancy
  Cd  Cd1       1.0  0.76903  0.71081  0.92997  1.0000
  Cd  Cd2       1.0  0.23097  0.28919  0.07003  1.0000
  H   H1        1.0  0.19053  0.69685  0.81811  1.0000
  H   H2        1.0  0.80947  0.30315  0.18189  1.0000
  H   H3        1.0  0.02003  0.51561  0.64180  1.0000
  H   H4        1.0  0.97997  0.48439  0.35820  1.0000
  H   H5        1.0  0.21720  0.34115  0.54158  1.0000
  H   H6        1.0  0.78280  0.65885  0.45842  1.0000
  H   H7        1.0  0.43306  0.14473  0.60345  1.0000
  H   H8        1.0  0.56694  0.85527  0.39655  1.0000
  H   H9        1.0  0.45942  0.13797  0.76375  1.0000
  H   H10       1.0  0.54058  0.86203  0.23625  1.0000
  H   H11       1.0  0.78457  0.80878  0.73089  1.0000
  H   H12       1.0  0.21543  0.19122  0.26911  1.0000
  H   H13       1.0  0.72622  0.85192  0.57449  1.0000
  H   H14       1.0  0.27378  0.14808  0.42551  1.0000
  H   H15       1.0  0.46555  0.82731  0.52656  1.0000
  H   H16       1.0  0.53445  0.17269  0.47344  1.0000
  H   H17       1.0  0.25037  0.76359  0.63289  1.0000
  H   H18       1.0  0.74963  0.23641  0.36711  1.0000
  H   H19       1.0  0.25125  0.60834  0.97609  1.0000
  H   H20       1.0  0.74875  0.39166  0.02391  1.0000
  H   H21       1.0  0.43546  0.63208  0.01419  1.0000
  H   H22       1.0  0.56454  0.36792  0.98581  1.0000
  H   H23       1.0  0.38218  0.97921  0.95999  1.0000
  H   H24       1.0  0.61782  0.02079  0.04001  1.0000
  H   H25       1.0  0.07214  0.74176  0.10606  1.0000
  H   H26       1.0  0.92786  0.25824  0.89394  1.0000
  H   H27       1.0  0.99675  0.04038  0.15927  1.0000
  H   H28       1.0  0.00326  0.95962  0.84073  1.0000
  C   C1        1.0  0.00087  0.53017  0.81541  1.0000
  C   C2        1.0  0.99913  0.46983  0.18459  1.0000
  C   C3        1.0  0.12849  0.42515  0.75862  1.0000
  C   C4        1.0  0.87150  0.57485  0.24138  1.0000
  C   C5        1.0  0.11708  0.43247  0.66807  1.0000
  C   C6        1.0  0.88292  0.56753  0.33193  1.0000
  C   C7        1.0  0.22697  0.33360  0.61200  1.0000
  C   C8        1.0  0.77303  0.66640  0.38800  1.0000
  C   C9        1.0  0.34912  0.22538  0.64613  1.0000
  C   C10       1.0  0.65088  0.77462  0.35387  1.0000
  C   C11       1.0  0.36373  0.21983  0.73572  1.0000
  C   C12       1.0  0.63627  0.78017  0.26428  1.0000
  C   C13       1.0  0.25539  0.31982  0.79266  1.0000
  C   C14       1.0  0.74461  0.68018  0.20734  1.0000
  C   C15       1.0  0.27794  0.31028  0.88840  1.0000
  C   C16       1.0  0.72206  0.68972  0.11160  1.0000
  C   C17       1.0  0.54760  0.76497  0.76950  1.0000
  C   C18       1.0  0.45240  0.23503  0.23050  1.0000
  C   C19       1.0  0.66881  0.80018  0.70982  1.0000
  C   C20       1.0  0.33119  0.19982  0.29018  1.0000
  C   C21       1.0  0.63531  0.82300  0.62281  1.0000
  C   C22       1.0  0.36469  0.17701  0.37719  1.0000
  C   C23       1.0  0.48628  0.80986  0.59539  1.0000
  C   C24       1.0  0.51372  0.19014  0.40461  1.0000
  C   C25       1.0  0.36501  0.77460  0.65400  1.0000
  C   C26       1.0  0.63499  0.22540  0.34600  1.0000
  C   C27       1.0  0.39785  0.75344  0.74143  1.0000
  C   C28       1.0  0.60215  0.24656  0.25857  1.0000
  C   C29       1.0  0.39783  0.71097  0.88410  1.0000
  C   C30       1.0  0.60217  0.28903  0.11590  1.0000
  C   C31       1.0  0.33454  0.68335  0.97596  1.0000
  C   C32       1.0  0.66546  0.31664  0.02404  1.0000
  C   C33       1.0  0.28764  0.95671  0.00730  1.0000
  C   C34       1.0  0.71236  0.04329  0.99270  1.0000
  C   C35       1.0  0.12077  0.83712  0.08388  1.0000
  C   C36       1.0  0.87923  0.16288  0.91612  1.0000
  C   C37       1.0  0.08777  0.98331  0.10999  1.0000
  C   C38       1.0  0.91223  0.01669  0.89001  1.0000
  N   N1        1.0  0.54344  0.73726  0.85915  1.0000
  N   N2        1.0  0.45656  0.26274  0.14085  1.0000
  N   N3        1.0  0.30732  0.71956  0.81553  1.0000
  N   N4        1.0  0.69268  0.28044  0.18447  1.0000
  N   N5        1.0  0.24733  0.82281  0.01875  1.0000
  N   N6        1.0  0.75267  0.17719  0.98125  1.0000
  N   N7        1.0  0.19232  0.05649  0.06157  1.0000
  N   N8        1.0  0.80768  0.94351  0.93843  1.0000
  O   O1        1.0  0.87687  0.48755  0.84766  1.0000
  O   O2        1.0  0.12313  0.51245  0.15234  1.0000
  O   O3        1.0  0.01607  0.66474  0.82440  1.0000
  O   O4        1.0  0.98393  0.33526  0.17560  1.0000
  O   O5        1.0  0.17332  0.40065  0.93968  1.0000
  O   O6        1.0  0.82667  0.59935  0.06032  1.0000
  O   O7        1.0  0.39439  0.21533  0.91599  1.0000
  O   O8        1.0  0.60561  0.78468  0.08401  1.0000
