data_image0
_chemical_formula_structural       Fe4H20C28N4O20
_chemical_formula_sum              "Fe4 H20 C28 N4 O20"
_cell_length_a       8.50742
_cell_length_b       8.49066
_cell_length_c       10.1638
_cell_angle_alpha    90.1074
_cell_angle_beta     89.6527
_cell_angle_gamma    95.085

_space_group_name_H-M_alt    "P 1"
_space_group_IT_number       1

loop_
  _space_group_symop_operation_xyz
  'x, y, z'

loop_
  _atom_site_type_symbol
  _atom_site_label
  _atom_site_symmetry_multiplicity
  _atom_site_fract_x
  _atom_site_fract_y
  _atom_site_fract_z
  _atom_site_occupancy
  Fe  Fe1       1.0  0.20215  0.35010  0.07365  1.0000
  Fe  Fe2       1.0  0.29876  0.63305  0.57007  1.0000
  Fe  Fe3       1.0  0.79619  0.63392  0.93280  1.0000
  Fe  Fe4       1.0  0.69132  0.36664  0.42599  1.0000
  H   H1        1.0  0.09357  0.01760  0.97423  1.0000
  H   H2        1.0  0.38681  0.97880  0.45976  1.0000
  H   H3        1.0  0.88936  0.98013  0.04227  1.0000
  H   H4        1.0  0.60116  0.02105  0.53171  1.0000
  H   H5        1.0  0.58224  0.99314  0.22447  1.0000
  H   H6        1.0  0.91767  0.00459  0.73946  1.0000
  H   H7        1.0  0.42440  0.01262  0.76469  1.0000
  H   H8        1.0  0.08569  0.99622  0.27149  1.0000
  H   H9        1.0  0.41895  0.73471  0.16829  1.0000
  H   H10       1.0  0.08866  0.25956  0.68857  1.0000
  H   H11       1.0  0.59646  0.26500  0.81434  1.0000
  H   H12       1.0  0.91917  0.73972  0.32329  1.0000
  H   H13       1.0  0.38244  0.44693  0.88119  1.0000
  H   H14       1.0  0.21202  0.65192  0.30852  1.0000
  H   H15       1.0  0.71521  0.64317  0.19592  1.0000
  H   H16       1.0  0.82513  0.36171  0.66121  1.0000
  H   H17       1.0  0.21109  0.46800  0.83925  1.0000
  H   H18       1.0  0.22856  0.47561  0.33757  1.0000
  H   H19       1.0  0.72708  0.46961  0.15567  1.0000
  H   H20       1.0  0.76218  0.52578  0.65881  1.0000
  C   C1        1.0  0.13636  0.71170  0.03673  1.0000
  C   C2        1.0  0.36083  0.27886  0.53927  1.0000
  C   C3        1.0  0.87368  0.28166  0.95616  1.0000
  C   C4        1.0  0.63219  0.72138  0.45542  1.0000
  C   C5        1.0  0.24139  0.85845  0.07032  1.0000
  C   C6        1.0  0.25166  0.13703  0.57125  1.0000
  C   C7        1.0  0.75893  0.14118  0.93071  1.0000
  C   C8        1.0  0.74371  0.86306  0.42757  1.0000
  C   C9        1.0  0.19691  0.00679  0.03405  1.0000
  C   C10       1.0  0.28747  0.98885  0.52597  1.0000
  C   C11       1.0  0.79154  0.99191  0.97595  1.0000
  C   C12       1.0  0.70391  0.01101  0.46941  1.0000
  C   C13       1.0  0.46987  0.99070  0.17354  1.0000
  C   C14       1.0  0.02527  0.00562  0.68100  1.0000
  C   C15       1.0  0.53181  0.01182  0.82217  1.0000
  C   C16       1.0  0.97433  0.99488  0.32466  1.0000
  C   C17       1.0  0.49575  0.29191  0.16677  1.0000
  C   C18       1.0  0.99305  0.70387  0.67180  1.0000
  C   C19       1.0  0.49206  0.71129  0.83081  1.0000
  C   C20       1.0  0.99838  0.29676  0.32666  1.0000
  C   C21       1.0  0.41364  0.13431  0.14065  1.0000
  C   C22       1.0  0.07484  0.86181  0.63808  1.0000
  C   C23       1.0  0.57909  0.86704  0.86373  1.0000
  C   C24       1.0  0.91985  0.13886  0.36168  1.0000
  C   C25       1.0  0.38147  0.84997  0.14162  1.0000
  C   C26       1.0  0.11716  0.14507  0.65116  1.0000
  C   C27       1.0  0.62455  0.15081  0.85212  1.0000
  C   C28       1.0  0.88381  0.85464  0.35431  1.0000
  N   N1        1.0  0.27464  0.14320  0.07493  1.0000
  N   N2        1.0  0.20637  0.85403  0.56323  1.0000
  N   N3        1.0  0.70977  0.85726  0.93839  1.0000
  N   N4        1.0  0.78479  0.14641  0.43281  1.0000
  O   O1        1.0  0.41837  0.40911  0.13472  1.0000
  O   O2        1.0  0.07163  0.58447  0.65191  1.0000
  O   O3        1.0  0.55993  0.58716  0.86366  1.0000
  O   O4        1.0  0.92100  0.41483  0.35097  1.0000
  O   O5        1.0  0.63622  0.30541  0.21148  1.0000
  O   O6        1.0  0.85109  0.69644  0.71411  1.0000
  O   O7        1.0  0.35783  0.70846  0.77817  1.0000
  O   O8        1.0  0.13975  0.30622  0.27977  1.0000
  O   O9        1.0  0.17018  0.58589  0.09296  1.0000
  O   O10       1.0  0.33451  0.40840  0.59308  1.0000
  O   O11       1.0  0.85142  0.41057  0.89840  1.0000
  O   O12       1.0  0.65427  0.59548  0.39214  1.0000
  O   O13       1.0  0.02247  0.72954  0.95865  1.0000
  O   O14       1.0  0.47692  0.25798  0.46209  1.0000
  O   O15       1.0  0.99175  0.25597  0.02787  1.0000
  O   O16       1.0  0.51997  0.73858  0.53611  1.0000
  O   O17       1.0  0.27332  0.39278  0.88436  1.0000
  O   O18       1.0  0.26165  0.58501  0.37071  1.0000
  O   O19       1.0  0.76353  0.58083  0.12845  1.0000
  O   O20       1.0  0.73883  0.41510  0.62428  1.0000
