data_image0
_chemical_formula_structural       Zn2H24C34N6O8
_chemical_formula_sum              "Zn2 H24 C34 N6 O8"
_cell_length_a       8.64771
_cell_length_b       9.75903
_cell_length_c       11.6633
_cell_angle_alpha    101.854
_cell_angle_beta     101.751
_cell_angle_gamma    115.362

_space_group_name_H-M_alt    "P 1"
_space_group_IT_number       1

loop_
  _space_group_symop_operation_xyz
  'x, y, z'

loop_
  _atom_site_type_symbol
  _atom_site_label
  _atom_site_symmetry_multiplicity
  _atom_site_fract_x
  _atom_site_fract_y
  _atom_site_fract_z
  _atom_site_occupancy
  Zn  Zn1       1.0  0.25742  0.37210  0.49656  1.0000
  Zn  Zn2       1.0  0.74258  0.62790  0.50344  1.0000
  H   H1        1.0  0.87562  0.34476  0.32993  1.0000
  H   H2        1.0  0.12438  0.65523  0.67007  1.0000
  H   H3        1.0  0.68933  0.84573  0.25663  1.0000
  H   H4        1.0  0.31067  0.15427  0.74337  1.0000
  H   H5        1.0  0.40762  0.82801  0.22962  1.0000
  H   H6        1.0  0.59238  0.17198  0.77038  1.0000
  H   H7        1.0  0.10712  0.76361  0.09533  1.0000
  H   H8        1.0  0.89287  0.23638  0.90467  1.0000
  H   H9        1.0  0.35772  0.19747  0.00680  1.0000
  H   H10       1.0  0.64228  0.80253  0.99320  1.0000
  H   H11       1.0  0.65853  0.26031  0.13796  1.0000
  H   H12       1.0  0.34147  0.73969  0.86204  1.0000
  H   H13       1.0  0.92595  0.81804  0.94385  1.0000
  H   H14       1.0  0.07404  0.18196  0.05615  1.0000
  H   H15       1.0  0.03208  0.96299  0.87566  1.0000
  H   H16       1.0  0.96791  0.03701  0.12434  1.0000
  H   H17       1.0  0.20020  0.48884  0.94732  1.0000
  H   H18       1.0  0.79980  0.51116  0.05268  1.0000
  H   H19       1.0  0.62408  0.45145  0.83078  1.0000
  H   H20       1.0  0.37593  0.54855  0.16922  1.0000
  H   H21       1.0  0.18844  0.76497  0.42618  1.0000
  H   H22       1.0  0.81157  0.23503  0.57382  1.0000
  H   H23       1.0  0.76672  0.97020  0.58980  1.0000
  H   H24       1.0  0.23328  0.02980  0.41020  1.0000
  C   C1        1.0  0.87206  0.23109  0.32726  1.0000
  C   C2        1.0  0.12794  0.76890  0.67274  1.0000
  C   C3        1.0  0.77754  0.97482  0.29000  1.0000
  C   C4        1.0  0.22246  0.02518  0.71000  1.0000
  C   C5        1.0  0.55044  0.04691  0.19038  1.0000
  C   C6        1.0  0.44956  0.95308  0.80962  1.0000
  C   C7        1.0  0.39668  0.90674  0.17829  1.0000
  C   C8        1.0  0.60332  0.09326  0.82171  1.0000
  C   C9        1.0  0.22802  0.87174  0.10314  1.0000
  C   C10       1.0  0.77197  0.12826  0.89686  1.0000
  C   C11       1.0  0.21111  0.97521  0.04050  1.0000
  C   C12       1.0  0.78889  0.02478  0.95951  1.0000
  C   C13       1.0  0.36806  0.11536  0.05479  1.0000
  C   C14       1.0  0.63193  0.88464  0.94521  1.0000
  C   C15       1.0  0.53750  0.15178  0.12860  1.0000
  C   C16       1.0  0.46250  0.84821  0.87140  1.0000
  C   C17       1.0  0.02914  0.94378  0.96514  1.0000
  C   C18       1.0  0.97085  0.05622  0.03486  1.0000
  C   C19       1.0  0.29673  0.43133  0.74436  1.0000
  C   C20       1.0  0.70327  0.56867  0.25564  1.0000
  C   C21       1.0  0.40070  0.46439  0.87632  1.0000
  C   C22       1.0  0.59931  0.53562  0.12368  1.0000
  C   C23       1.0  0.33140  0.49343  0.97168  1.0000
  C   C24       1.0  0.66860  0.50658  0.02831  1.0000
  C   C25       1.0  0.57044  0.47154  0.90565  1.0000
  C   C26       1.0  0.42957  0.52847  0.09435  1.0000
  C   C27       1.0  0.32417  0.86887  0.45891  1.0000
  C   C28       1.0  0.67583  0.13113  0.54109  1.0000
  C   C29       1.0  0.47445  0.85236  0.50996  1.0000
  C   C30       1.0  0.52555  0.14764  0.49004  1.0000
  C   C31       1.0  0.65051  0.98380  0.55067  1.0000
  C   C32       1.0  0.34949  0.01620  0.44933  1.0000
  C   C33       1.0  0.44697  0.69558  0.52336  1.0000
  C   C34       1.0  0.55303  0.30442  0.47665  1.0000
  N   N1        1.0  0.00641  0.21155  0.38429  1.0000
  N   N2        1.0  0.99359  0.78845  0.61571  1.0000
  N   N3        1.0  0.94814  0.05007  0.36105  1.0000
  N   N4        1.0  0.05186  0.94993  0.63895  1.0000
  N   N5        1.0  0.72408  0.08289  0.26555  1.0000
  N   N6        1.0  0.27592  0.91710  0.73445  1.0000
  O   O1        1.0  0.34836  0.36648  0.66193  1.0000
  O   O2        1.0  0.65164  0.63353  0.33807  1.0000
  O   O3        1.0  0.17371  0.46684  0.72071  1.0000
  O   O4        1.0  0.82629  0.53316  0.27929  1.0000
  O   O5        1.0  0.28442  0.57756  0.47896  1.0000
  O   O6        1.0  0.71558  0.42244  0.52103  1.0000
  O   O7        1.0  0.58227  0.68571  0.58031  1.0000
  O   O8        1.0  0.41773  0.31430  0.41969  1.0000
