data_image0
_chemical_formula_structural       Li4H36C20O8
_chemical_formula_sum              "Li4 H36 C20 O8"
_cell_length_a       4.94763
_cell_length_b       8.40802
_cell_length_c       13.9959
_cell_angle_alpha    90.2539
_cell_angle_beta     89.9995
_cell_angle_gamma    90.0003

_space_group_name_H-M_alt    "P 1"
_space_group_IT_number       1

loop_
  _space_group_symop_operation_xyz
  'x, y, z'

loop_
  _atom_site_type_symbol
  _atom_site_label
  _atom_site_symmetry_multiplicity
  _atom_site_fract_x
  _atom_site_fract_y
  _atom_site_fract_z
  _atom_site_occupancy
  Li  Li1       1.0  0.90235  0.85301  0.99713  1.0000
  Li  Li2       1.0  0.40232  0.64700  0.00288  1.0000
  Li  Li3       1.0  0.09763  0.14700  0.00287  1.0000
  Li  Li4       1.0  0.59761  0.35301  0.99711  1.0000
  H   H1        1.0  0.60020  0.09748  0.80852  1.0000
  H   H2        1.0  0.10018  0.40251  0.19147  1.0000
  H   H3        1.0  0.39982  0.90253  0.19147  1.0000
  H   H4        1.0  0.89982  0.59749  0.80852  1.0000
  H   H5        1.0  0.60330  0.91035  0.75213  1.0000
  H   H6        1.0  0.10330  0.58966  0.24787  1.0000
  H   H7        1.0  0.39669  0.08967  0.24788  1.0000
  H   H8        1.0  0.89669  0.41037  0.75211  1.0000
  H   H9        1.0  0.10702  0.12768  0.77903  1.0000
  H   H10       1.0  0.60702  0.37231  0.22098  1.0000
  H   H11       1.0  0.89297  0.87233  0.22097  1.0000
  H   H12       1.0  0.39297  0.62773  0.77902  1.0000
  H   H13       1.0  0.08493  0.93383  0.73382  1.0000
  H   H14       1.0  0.58492  0.56615  0.26620  1.0000
  H   H15       1.0  0.91509  0.06617  0.26619  1.0000
  H   H16       1.0  0.41510  0.43386  0.73381  1.0000
  H   H17       1.0  0.41373  0.19958  0.63924  1.0000
  H   H18       1.0  0.91375  0.30041  0.36077  1.0000
  H   H19       1.0  0.58624  0.80044  0.36076  1.0000
  H   H20       1.0  0.08629  0.69958  0.63921  1.0000
  H   H21       1.0  0.37173  0.00550  0.59402  1.0000
  H   H22       1.0  0.87173  0.49448  0.40599  1.0000
  H   H23       1.0  0.62827  0.99451  0.40599  1.0000
  H   H24       1.0  0.12833  0.50549  0.59400  1.0000
  H   H25       1.0  0.04607  0.18964  0.51406  1.0000
  H   H26       1.0  0.54612  0.31033  0.48596  1.0000
  H   H27       1.0  0.95387  0.81034  0.48594  1.0000
  H   H28       1.0  0.45400  0.68963  0.51405  1.0000
  H   H29       1.0  0.91279  0.24746  0.62662  1.0000
  H   H30       1.0  0.41280  0.25249  0.37340  1.0000
  H   H31       1.0  0.08718  0.75252  0.37339  1.0000
  H   H32       1.0  0.58726  0.74747  0.62661  1.0000
  H   H33       1.0  0.86524  0.05091  0.58457  1.0000
  H   H34       1.0  0.36524  0.44907  0.41545  1.0000
  H   H35       1.0  0.13475  0.94907  0.41545  1.0000
  H   H36       1.0  0.63481  0.55090  0.58457  1.0000
  C   C1        1.0  0.40969  0.91468  0.88850  1.0000
  C   C2        1.0  0.90965  0.58532  0.11151  1.0000
  C   C3        1.0  0.59031  0.08534  0.11151  1.0000
  C   C4        1.0  0.09029  0.41468  0.88849  1.0000
  C   C5        1.0  0.47429  0.99193  0.79329  1.0000
  C   C6        1.0  0.97424  0.50806  0.20672  1.0000
  C   C7        1.0  0.52572  0.00809  0.20671  1.0000
  C   C8        1.0  0.02570  0.49193  0.79329  1.0000
  C   C9        1.0  0.21989  0.03797  0.73785  1.0000
  C   C10       1.0  0.71987  0.46201  0.26216  1.0000
  C   C11       1.0  0.78011  0.96204  0.26216  1.0000
  C   C12       1.0  0.28011  0.53799  0.73784  1.0000
  C   C13       1.0  0.27162  0.09875  0.63686  1.0000
  C   C14       1.0  0.77165  0.40123  0.36314  1.0000
  C   C15       1.0  0.72839  0.90125  0.36315  1.0000
  C   C16       1.0  0.22844  0.59876  0.63683  1.0000
  C   C17       1.0  0.01071  0.14951  0.58753  1.0000
  C   C18       1.0  0.51076  0.35046  0.41248  1.0000
  C   C19       1.0  0.98926  0.85048  0.41248  1.0000
  C   C20       1.0  0.48936  0.64951  0.58751  1.0000
  O   O1        1.0  0.07239  0.68836  0.07719  1.0000
  O   O2        1.0  0.57244  0.81165  0.92281  1.0000
  O   O3        1.0  0.92757  0.31166  0.92278  1.0000
  O   O4        1.0  0.42755  0.18838  0.07719  1.0000
  O   O5        1.0  0.19065  0.95450  0.92975  1.0000
  O   O6        1.0  0.69054  0.54548  0.07026  1.0000
  O   O7        1.0  0.80936  0.04552  0.07025  1.0000
  O   O8        1.0  0.30933  0.45450  0.92974  1.0000
