data_image0
_chemical_formula_structural       Zn2H30C40N6O10
_chemical_formula_sum              "Zn2 H30 C40 N6 O10"
_cell_length_a       8.80336
_cell_length_b       9.06205
_cell_length_c       12.6331
_cell_angle_alpha    102.515
_cell_angle_beta     107.168
_cell_angle_gamma    89.7006

_space_group_name_H-M_alt    "P 1"
_space_group_IT_number       1

loop_
  _space_group_symop_operation_xyz
  'x, y, z'

loop_
  _atom_site_type_symbol
  _atom_site_label
  _atom_site_symmetry_multiplicity
  _atom_site_fract_x
  _atom_site_fract_y
  _atom_site_fract_z
  _atom_site_occupancy
  Zn  Zn1       1.0  0.56872  0.83473  0.70817  1.0000
  Zn  Zn2       1.0  0.43128  0.16527  0.29183  1.0000
  H   H1        1.0  0.54489  0.16120  0.68818  1.0000
  H   H2        1.0  0.45510  0.83881  0.31182  1.0000
  H   H3        1.0  0.44200  0.39552  0.77986  1.0000
  H   H4        1.0  0.55800  0.60448  0.22014  1.0000
  H   H5        1.0  0.29406  0.12938  0.98307  1.0000
  H   H6        1.0  0.70594  0.87062  0.01693  1.0000
  H   H7        1.0  0.40006  0.90547  0.87997  1.0000
  H   H8        1.0  0.59995  0.09453  0.12002  1.0000
  H   H9        1.0  0.13490  0.55981  0.22480  1.0000
  H   H10       1.0  0.86510  0.44019  0.77520  1.0000
  H   H11       1.0  0.03695  0.82094  0.23241  1.0000
  H   H12       1.0  0.96305  0.17906  0.76760  1.0000
  H   H13       1.0  0.04586  0.95982  0.08752  1.0000
  H   H14       1.0  0.95414  0.04018  0.91248  1.0000
  H   H15       1.0  0.14728  0.84473  0.92424  1.0000
  H   H16       1.0  0.85272  0.15527  0.07576  1.0000
  H   H17       1.0  0.70648  0.00014  0.46102  1.0000
  H   H18       1.0  0.29353  0.99986  0.53898  1.0000
  H   H19       1.0  0.16254  0.90916  0.66756  1.0000
  H   H20       1.0  0.83746  0.09084  0.33245  1.0000
  H   H21       1.0  0.18927  0.60885  0.42110  1.0000
  H   H22       1.0  0.81072  0.39115  0.57890  1.0000
  H   H23       1.0  0.07578  0.50949  0.70708  1.0000
  H   H24       1.0  0.92422  0.49050  0.29292  1.0000
  H   H25       1.0  0.29341  0.57507  0.84417  1.0000
  H   H26       1.0  0.70659  0.42493  0.15583  1.0000
  H   H27       1.0  0.83445  0.79303  0.80692  1.0000
  H   H28       1.0  0.16555  0.20697  0.19308  1.0000
  H   H29       1.0  0.73994  0.70234  0.87820  1.0000
  H   H30       1.0  0.26006  0.29766  0.12180  1.0000
  C   C1        1.0  0.48752  0.15957  0.75354  1.0000
  C   C2        1.0  0.51248  0.84043  0.24645  1.0000
  C   C3        1.0  0.43009  0.28977  0.80540  1.0000
  C   C4        1.0  0.56990  0.71024  0.19460  1.0000
  C   C5        1.0  0.36010  0.28251  0.89097  1.0000
  C   C6        1.0  0.63990  0.71749  0.10903  1.0000
  C   C7        1.0  0.34933  0.14147  0.91861  1.0000
  C   C8        1.0  0.65067  0.85853  0.08139  1.0000
  C   C9        1.0  0.40829  0.01702  0.86211  1.0000
  C   C10       1.0  0.59172  0.98298  0.13789  1.0000
  C   C11       1.0  0.29748  0.41343  0.95005  1.0000
  C   C12       1.0  0.70252  0.58657  0.04995  1.0000
  C   C13       1.0  0.19685  0.55726  0.07035  1.0000
  C   C14       1.0  0.80315  0.44274  0.92965  1.0000
  C   C15       1.0  0.13740  0.62166  0.16033  1.0000
  C   C16       1.0  0.86261  0.37834  0.83967  1.0000
  C   C17       1.0  0.08354  0.76646  0.16365  1.0000
  C   C18       1.0  0.91646  0.23354  0.83635  1.0000
  C   C19       1.0  0.08798  0.84610  0.07986  1.0000
  C   C20       1.0  0.91202  0.15390  0.92014  1.0000
  C   C21       1.0  0.14708  0.78465  0.99020  1.0000
  C   C22       1.0  0.85292  0.21535  0.00980  1.0000
  C   C23       1.0  0.20234  0.63933  0.98730  1.0000
  C   C24       1.0  0.79766  0.36067  0.01270  1.0000
  C   C25       1.0  0.84985  0.89147  0.64680  1.0000
  C   C26       1.0  0.15015  0.10853  0.35320  1.0000
  C   C27       1.0  0.92717  0.94804  0.57093  1.0000
  C   C28       1.0  0.07284  0.05196  0.42907  1.0000
  C   C29       1.0  0.83474  0.99951  0.47660  1.0000
  C   C30       1.0  0.16526  0.00049  0.52340  1.0000
  C   C31       1.0  0.09287  0.94939  0.59392  1.0000
  C   C32       1.0  0.90714  0.05061  0.40608  1.0000
  C   C33       1.0  0.30656  0.64013  0.64652  1.0000
  C   C34       1.0  0.69344  0.35987  0.35348  1.0000
  C   C35       1.0  0.14966  0.56450  0.57111  1.0000
  C   C36       1.0  0.85033  0.43550  0.42889  1.0000
  C   C37       1.0  0.10523  0.56009  0.45428  1.0000
  C   C38       1.0  0.89476  0.43991  0.54572  1.0000
  C   C39       1.0  0.04293  0.50407  0.61622  1.0000
  C   C40       1.0  0.95707  0.49594  0.38378  1.0000
  N   N1        1.0  0.47732  0.02505  0.78107  1.0000
  N   N2        1.0  0.52268  0.97494  0.21893  1.0000
  N   N3        1.0  0.25659  0.41776  0.04470  1.0000
  N   N4        1.0  0.74341  0.58224  0.95530  1.0000
  N   N5        1.0  0.26812  0.54556  0.91352  1.0000
  N   N6        1.0  0.73188  0.45444  0.08648  1.0000
  O   O1        1.0  0.69681  0.89836  0.62005  1.0000
  O   O2        1.0  0.30320  0.10164  0.37995  1.0000
  O   O3        1.0  0.73918  0.78690  0.83546  1.0000
  O   O4        1.0  0.26082  0.21310  0.16453  1.0000
  O   O5        1.0  0.93591  0.84289  0.72992  1.0000
  O   O6        1.0  0.06409  0.15710  0.27008  1.0000
  O   O7        1.0  0.39175  0.70123  0.59820  1.0000
  O   O8        1.0  0.60825  0.29877  0.40180  1.0000
  O   O9        1.0  0.35032  0.64739  0.75262  1.0000
  O   O10       1.0  0.64968  0.35261  0.24738  1.0000
