data_image0
_chemical_formula_structural       Mn2H12C4N20Cl4
_chemical_formula_sum              "Mn2 H12 C4 N20 Cl4"
_cell_length_a       3.63059
_cell_length_b       7.96621
_cell_length_c       16.1522
_cell_angle_alpha    90
_cell_angle_beta     90
_cell_angle_gamma    95.0412

_space_group_name_H-M_alt    "P 1"
_space_group_IT_number       1

loop_
  _space_group_symop_operation_xyz
  'x, y, z'

loop_
  _atom_site_type_symbol
  _atom_site_label
  _atom_site_symmetry_multiplicity
  _atom_site_fract_x
  _atom_site_fract_y
  _atom_site_fract_z
  _atom_site_occupancy
  Mn  Mn1       1.0  0.50000  0.50000  0.50000  1.0000
  Mn  Mn2       1.0  0.00000  0.00000  0.00000  1.0000
  H   H1        1.0  0.65821  0.14009  0.22111  1.0000
  H   H2        1.0  0.84179  0.35991  0.72111  1.0000
  H   H3        1.0  0.34179  0.85991  0.77889  1.0000
  H   H4        1.0  0.15821  0.64009  0.27889  1.0000
  H   H5        1.0  0.77129  0.12421  0.45334  1.0000
  H   H6        1.0  0.72871  0.37579  0.95334  1.0000
  H   H7        1.0  0.22871  0.87579  0.54666  1.0000
  H   H8        1.0  0.27129  0.62421  0.04666  1.0000
  H   H9        1.0  0.79872  0.99515  0.36502  1.0000
  H   H10       1.0  0.70128  0.50486  0.86502  1.0000
  H   H11       1.0  0.20128  0.00485  0.63498  1.0000
  H   H12       1.0  0.29873  0.49514  0.13498  1.0000
  C   C1        1.0  0.59179  0.22259  0.34795  1.0000
  C   C2        1.0  0.90820  0.27742  0.84795  1.0000
  C   C3        1.0  0.40820  0.77741  0.65205  1.0000
  C   C4        1.0  0.09179  0.72259  0.15206  1.0000
  N   N1        1.0  0.47749  0.36991  0.37582  1.0000
  N   N2        1.0  0.02251  0.13009  0.87582  1.0000
  N   N3        1.0  0.52250  0.63009  0.62418  1.0000
  N   N4        1.0  0.97750  0.86991  0.12418  1.0000
  N   N5        1.0  0.38802  0.45639  0.30755  1.0000
  N   N6        1.0  0.11198  0.04361  0.80756  1.0000
  N   N7        1.0  0.61198  0.54361  0.69244  1.0000
  N   N8        1.0  0.88802  0.95639  0.19245  1.0000
  N   N9        1.0  0.44047  0.37313  0.24061  1.0000
  N   N10       1.0  0.05952  0.12687  0.74061  1.0000
  N   N11       1.0  0.55952  0.62687  0.75939  1.0000
  N   N12       1.0  0.94048  0.87313  0.25939  1.0000
  N   N13       1.0  0.56817  0.22619  0.26399  1.0000
  N   N14       1.0  0.93183  0.27381  0.76399  1.0000
  N   N15       1.0  0.43183  0.77381  0.73601  1.0000
  N   N16       1.0  0.06817  0.72620  0.23601  1.0000
  N   N17       1.0  0.69345  0.09503  0.39374  1.0000
  N   N18       1.0  0.80655  0.40497  0.89374  1.0000
  N   N19       1.0  0.30655  0.90497  0.60626  1.0000
  N   N20       1.0  0.19346  0.59503  0.10626  1.0000
  Cl  Cl1       1.0  0.96227  0.30400  0.55274  1.0000
  Cl  Cl2       1.0  0.53773  0.19600  0.05274  1.0000
  Cl  Cl3       1.0  0.03773  0.69600  0.44726  1.0000
  Cl  Cl4       1.0  0.46227  0.80400  0.94726  1.0000
