data_image0
_chemical_formula_structural       Ag8H44C40N20O16
_chemical_formula_sum              "Ag8 H44 C40 N20 O16"
_cell_length_a       10.0238
_cell_length_b       10.1264
_cell_length_c       13.5832
_cell_angle_alpha    114.031
_cell_angle_beta     90
_cell_angle_gamma    89.9999

_space_group_name_H-M_alt    "P 1"
_space_group_IT_number       1

loop_
  _space_group_symop_operation_xyz
  'x, y, z'

loop_
  _atom_site_type_symbol
  _atom_site_label
  _atom_site_symmetry_multiplicity
  _atom_site_fract_x
  _atom_site_fract_y
  _atom_site_fract_z
  _atom_site_occupancy
  Ag  Ag1       1.0  0.71889  0.00724  0.11463  1.0000
  Ag  Ag2       1.0  0.21889  0.49276  0.38537  1.0000
  Ag  Ag3       1.0  0.28111  0.99276  0.88537  1.0000
  Ag  Ag4       1.0  0.78111  0.50724  0.61463  1.0000
  Ag  Ag5       1.0  0.18763  0.45908  0.15120  1.0000
  Ag  Ag6       1.0  0.68763  0.04092  0.34880  1.0000
  Ag  Ag7       1.0  0.81237  0.54092  0.84880  1.0000
  Ag  Ag8       1.0  0.31237  0.95908  0.65120  1.0000
  H   H1        1.0  0.25070  0.22799  0.11560  1.0000
  H   H2        1.0  0.75070  0.27201  0.38440  1.0000
  H   H3        1.0  0.74930  0.77201  0.88440  1.0000
  H   H4        1.0  0.24930  0.72799  0.61560  1.0000
  H   H5        1.0  0.41695  0.06119  0.13556  1.0000
  H   H6        1.0  0.91695  0.43881  0.36444  1.0000
  H   H7        1.0  0.58305  0.93881  0.86444  1.0000
  H   H8        1.0  0.08305  0.56119  0.63555  1.0000
  H   H9        1.0  0.11900  0.79416  0.17034  1.0000
  H   H10       1.0  0.61900  0.70584  0.32966  1.0000
  H   H11       1.0  0.88100  0.20584  0.82966  1.0000
  H   H12       1.0  0.38100  0.29416  0.67034  1.0000
  H   H13       1.0  0.93972  0.95218  0.15201  1.0000
  H   H14       1.0  0.43972  0.54783  0.34799  1.0000
  H   H15       1.0  0.06028  0.04783  0.84799  1.0000
  H   H16       1.0  0.56028  0.45218  0.65201  1.0000
  H   H17       1.0  0.56676  0.77180  0.02661  1.0000
  H   H18       1.0  0.06676  0.72820  0.47339  1.0000
  H   H19       1.0  0.43324  0.22820  0.97339  1.0000
  H   H20       1.0  0.93324  0.27180  0.52661  1.0000
  H   H21       1.0  0.38789  0.65678  0.20016  1.0000
  H   H22       1.0  0.88789  0.84323  0.29984  1.0000
  H   H23       1.0  0.61211  0.34323  0.79984  1.0000
  H   H24       1.0  0.11211  0.15678  0.70016  1.0000
  H   H25       1.0  0.57179  0.81625  0.15858  1.0000
  H   H26       1.0  0.07180  0.68375  0.34142  1.0000
  H   H27       1.0  0.42821  0.18375  0.84142  1.0000
  H   H28       1.0  0.92821  0.31625  0.65858  1.0000
  H   H29       1.0  0.44813  0.49369  0.12081  1.0000
  H   H30       1.0  0.94813  0.00631  0.37920  1.0000
  H   H31       1.0  0.55187  0.50631  0.87919  1.0000
  H   H32       1.0  0.05187  0.99369  0.62081  1.0000
  H   H33       1.0  0.35492  0.57893  0.06767  1.0000
  H   H34       1.0  0.85492  0.92107  0.43233  1.0000
  H   H35       1.0  0.64508  0.42108  0.93233  1.0000
  H   H36       1.0  0.14508  0.07893  0.56767  1.0000
  H   H37       1.0  0.69997  0.72783  0.08200  1.0000
  H   H38       1.0  0.19997  0.77217  0.41800  1.0000
  H   H39       1.0  0.30003  0.27217  0.91800  1.0000
  H   H40       1.0  0.80003  0.22783  0.58200  1.0000
  H   H41       1.0  0.34460  0.87293  0.18196  1.0000
  H   H42       1.0  0.84460  0.62707  0.31803  1.0000
  H   H43       1.0  0.65540  0.12707  0.81804  1.0000
  H   H44       1.0  0.15540  0.37293  0.68196  1.0000
  C   C1        1.0  0.64270  0.29934  0.08617  1.0000
  C   C2        1.0  0.14270  0.20066  0.41384  1.0000
  C   C3        1.0  0.35730  0.70066  0.91384  1.0000
  C   C4        1.0  0.85730  0.79934  0.58616  1.0000
  C   C5        1.0  0.78908  0.29608  0.10571  1.0000
  C   C6        1.0  0.28908  0.20392  0.39429  1.0000
  C   C7        1.0  0.21092  0.70392  0.89429  1.0000
  C   C8        1.0  0.71091  0.79608  0.60571  1.0000
  C   C9        1.0  0.04398  0.98011  0.14728  1.0000
  C   C10       1.0  0.54398  0.51989  0.35272  1.0000
  C   C11       1.0  0.95602  0.01989  0.85272  1.0000
  C   C12       1.0  0.45602  0.48011  0.64728  1.0000
  C   C13       1.0  0.31042  0.04120  0.13763  1.0000
  C   C14       1.0  0.81042  0.45880  0.36237  1.0000
  C   C15       1.0  0.68958  0.95880  0.86237  1.0000
  C   C16       1.0  0.18958  0.54120  0.63763  1.0000
  C   C17       1.0  0.21593  0.13298  0.12678  1.0000
  C   C18       1.0  0.71593  0.36702  0.37322  1.0000
  C   C19       1.0  0.78407  0.86702  0.87322  1.0000
  C   C20       1.0  0.28407  0.63299  0.62678  1.0000
  C   C21       1.0  0.89025  0.39939  0.11941  1.0000
  C   C22       1.0  0.39025  0.10061  0.38059  1.0000
  C   C23       1.0  0.10975  0.60061  0.88059  1.0000
  C   C24       1.0  0.60975  0.89939  0.61941  1.0000
  C   C25       1.0  0.88633  0.55381  0.13054  1.0000
  C   C26       1.0  0.38634  0.94619  0.36946  1.0000
  C   C27       1.0  0.11367  0.44619  0.86946  1.0000
  C   C28       1.0  0.61367  0.05381  0.63054  1.0000
  C   C29       1.0  0.97895  0.20850  0.13078  1.0000
  C   C30       1.0  0.47895  0.29150  0.36922  1.0000
  C   C31       1.0  0.02106  0.79150  0.86922  1.0000
  C   C32       1.0  0.52105  0.70850  0.63078  1.0000
  C   C33       1.0  0.14185  0.89088  0.15712  1.0000
  C   C34       1.0  0.64185  0.60912  0.34288  1.0000
  C   C35       1.0  0.85815  0.10912  0.84288  1.0000
  C   C36       1.0  0.35814  0.39088  0.65712  1.0000
  C   C37       1.0  0.07866  0.10805  0.13547  1.0000
  C   C38       1.0  0.57866  0.39195  0.36453  1.0000
  C   C39       1.0  0.92134  0.89195  0.86453  1.0000
  C   C40       1.0  0.42134  0.60805  0.63547  1.0000
  N   N1        1.0  0.84643  0.17974  0.11571  1.0000
  N   N2        1.0  0.34643  0.32026  0.38429  1.0000
  N   N3        1.0  0.15357  0.82026  0.88429  1.0000
  N   N4        1.0  0.65357  0.67974  0.61571  1.0000
  N   N5        1.0  0.00751  0.34306  0.13593  1.0000
  N   N6        1.0  0.50751  0.15694  0.36407  1.0000
  N   N7        1.0  0.99250  0.65694  0.86406  1.0000
  N   N8        1.0  0.49249  0.84306  0.63594  1.0000
  N   N9        1.0  0.27213  0.92388  0.15374  1.0000
  N   N10       1.0  0.77213  0.57612  0.34626  1.0000
  N   N11       1.0  0.72786  0.07612  0.84626  1.0000
  N   N12       1.0  0.22786  0.42388  0.65374  1.0000
  N   N13       1.0  0.36492  0.56049  0.13683  1.0000
  N   N14       1.0  0.86492  0.93951  0.36317  1.0000
  N   N15       1.0  0.63508  0.43951  0.86317  1.0000
  N   N16       1.0  0.13508  0.06049  0.63683  1.0000
  N   N17       1.0  0.62855  0.80617  0.09297  1.0000
  N   N18       1.0  0.12855  0.69383  0.40703  1.0000
  N   N19       1.0  0.37145  0.19383  0.90703  1.0000
  N   N20       1.0  0.87145  0.30617  0.59297  1.0000
  O   O1        1.0  0.83610  0.58455  0.05847  1.0000
  O   O2        1.0  0.33611  0.91545  0.44152  1.0000
  O   O3        1.0  0.16390  0.41545  0.94152  1.0000
  O   O4        1.0  0.66390  0.08455  0.55848  1.0000
  O   O5        1.0  0.60010  0.40340  0.06537  1.0000
  O   O6        1.0  0.10010  0.09660  0.43464  1.0000
  O   O7        1.0  0.39991  0.59661  0.93464  1.0000
  O   O8        1.0  0.89990  0.90340  0.56537  1.0000
  O   O9        1.0  0.57049  0.19747  0.08920  1.0000
  O   O10       1.0  0.07049  0.30253  0.41080  1.0000
  O   O11       1.0  0.42951  0.80253  0.91080  1.0000
  O   O12       1.0  0.92951  0.69747  0.58920  1.0000
  O   O13       1.0  0.93778  0.64704  0.21953  1.0000
  O   O14       1.0  0.43779  0.85296  0.28047  1.0000
  O   O15       1.0  0.06222  0.35296  0.78047  1.0000
  O   O16       1.0  0.56221  0.14704  0.71954  1.0000
