data_image0
_chemical_formula_structural       Ba4H44C36O30
_chemical_formula_sum              "Ba4 H44 C36 O30"
_cell_length_a       7.49086
_cell_length_b       12.0302
_cell_length_c       14.4615
_cell_angle_alpha    114.568
_cell_angle_beta     100.014
_cell_angle_gamma    90.0052

_space_group_name_H-M_alt    "P 1"
_space_group_IT_number       1

loop_
  _space_group_symop_operation_xyz
  'x, y, z'

loop_
  _atom_site_type_symbol
  _atom_site_label
  _atom_site_symmetry_multiplicity
  _atom_site_fract_x
  _atom_site_fract_y
  _atom_site_fract_z
  _atom_site_occupancy
  Ba  Ba1       1.0  0.93994  0.16141  0.88538  1.0000
  Ba  Ba2       1.0  0.55972  0.27600  0.11459  1.0000
  Ba  Ba3       1.0  0.06006  0.83859  0.11461  1.0000
  Ba  Ba4       1.0  0.44028  0.72400  0.88541  1.0000
  H   H1        1.0  0.09925  0.45615  0.99483  1.0000
  H   H2        1.0  0.40082  0.46166  0.00523  1.0000
  H   H3        1.0  0.90083  0.54380  0.00516  1.0000
  H   H4        1.0  0.59926  0.53837  0.99477  1.0000
  H   H5        1.0  0.09661  0.42631  0.09148  1.0000
  H   H6        1.0  0.40332  0.33511  0.90864  1.0000
  H   H7        1.0  0.90337  0.57369  0.90852  1.0000
  H   H8        1.0  0.59666  0.66489  0.09136  1.0000
  H   H9        1.0  0.19128  0.09204  0.04544  1.0000
  H   H10       1.0  0.30851  0.04656  0.95443  1.0000
  H   H11       1.0  0.80872  0.90796  0.95456  1.0000
  H   H12       1.0  0.69148  0.95344  0.04556  1.0000
  H   H13       1.0  0.77521  0.36982  0.78914  1.0000
  H   H14       1.0  0.72501  0.58046  0.21068  1.0000
  H   H15       1.0  0.22478  0.63018  0.21086  1.0000
  H   H16       1.0  0.27499  0.41954  0.78932  1.0000
  H   H17       1.0  0.60435  0.28986  0.78758  1.0000
  H   H18       1.0  0.89580  0.50203  0.21229  1.0000
  H   H19       1.0  0.39565  0.71015  0.21242  1.0000
  H   H20       1.0  0.10419  0.49797  0.78771  1.0000
  H   H21       1.0  0.43753  0.30242  0.63305  1.0000
  H   H22       1.0  0.06228  0.66883  0.36684  1.0000
  H   H23       1.0  0.56247  0.69759  0.36695  1.0000
  H   H24       1.0  0.93773  0.33118  0.63316  1.0000
  H   H25       1.0  0.47798  0.22807  0.45253  1.0000
  H   H26       1.0  0.02206  0.77524  0.54734  1.0000
  H   H27       1.0  0.52201  0.77193  0.54746  1.0000
  H   H28       1.0  0.97794  0.22476  0.45266  1.0000
  H   H29       1.0  0.18837  0.88247  0.37893  1.0000
  H   H30       1.0  0.31149  0.50341  0.62125  1.0000
  H   H31       1.0  0.81163  0.11753  0.62107  1.0000
  H   H32       1.0  0.68851  0.49659  0.37875  1.0000
  H   H33       1.0  0.14641  0.96103  0.56298  1.0000
  H   H34       1.0  0.35318  0.39761  0.43719  1.0000
  H   H35       1.0  0.85360  0.03897  0.43702  1.0000
  H   H36       1.0  0.64682  0.60239  0.56281  1.0000
  H   H37       1.0  0.59927  0.08810  0.32248  1.0000
  H   H38       1.0  0.90085  0.76543  0.67755  1.0000
  H   H39       1.0  0.40073  0.91191  0.67752  1.0000
  H   H40       1.0  0.09915  0.23457  0.32245  1.0000
  H   H41       1.0  0.41007  0.15710  0.27949  1.0000
  H   H42       1.0  0.08994  0.87750  0.72031  1.0000
  H   H43       1.0  0.58993  0.84290  0.72051  1.0000
  H   H44       1.0  0.91006  0.12250  0.27969  1.0000
  C   C1        1.0  0.28840  0.13684  0.61033  1.0000
  C   C2        1.0  0.21133  0.52603  0.38969  1.0000
  C   C3        1.0  0.71160  0.86317  0.38967  1.0000
  C   C4        1.0  0.78868  0.47398  0.61031  1.0000
  C   C5        1.0  0.38086  0.21083  0.57743  1.0000
  C   C6        1.0  0.11902  0.63294  0.42253  1.0000
  C   C7        1.0  0.61913  0.78917  0.42257  1.0000
  C   C8        1.0  0.88099  0.36706  0.57748  1.0000
  C   C9        1.0  0.40227  0.16920  0.47493  1.0000
  C   C10       1.0  0.09771  0.69395  0.52501  1.0000
  C   C11       1.0  0.59773  0.83080  0.52507  1.0000
  C   C12       1.0  0.90230  0.30605  0.47498  1.0000
  C   C13       1.0  0.33084  0.05064  0.40350  1.0000
  C   C14       1.0  0.16920  0.64698  0.59655  1.0000
  C   C15       1.0  0.66916  0.94937  0.59650  1.0000
  C   C16       1.0  0.83080  0.35302  0.40345  1.0000
  C   C17       1.0  0.23886  0.97509  0.43520  1.0000
  C   C18       1.0  0.26102  0.53968  0.56491  1.0000
  C   C19       1.0  0.76113  0.02491  0.56480  1.0000
  C   C20       1.0  0.73899  0.46032  0.43509  1.0000
  C   C21       1.0  0.21805  0.01860  0.53752  1.0000
  C   C22       1.0  0.28170  0.48070  0.46259  1.0000
  C   C23       1.0  0.78195  0.98140  0.46248  1.0000
  C   C24       1.0  0.71830  0.51930  0.53741  1.0000
  C   C25       1.0  0.26683  0.18176  0.72057  1.0000
  C   C26       1.0  0.23280  0.46074  0.27944  1.0000
  C   C27       1.0  0.73316  0.81824  0.27943  1.0000
  C   C28       1.0  0.76720  0.53926  0.72056  1.0000
  C   C29       1.0  0.46428  0.06912  0.27191  1.0000
  C   C30       1.0  0.03587  0.79716  0.72805  1.0000
  C   C31       1.0  0.53572  0.93088  0.72809  1.0000
  C   C32       1.0  0.96412  0.20284  0.27195  1.0000
  C   C33       1.0  0.48896  0.99859  0.16039  1.0000
  C   C34       1.0  0.01125  0.83837  0.83962  1.0000
  C   C35       1.0  0.51105  0.00142  0.83962  1.0000
  C   C36       1.0  0.98874  0.16163  0.16038  1.0000
  O   O1        1.0  0.16230  0.12129  0.74589  1.0000
  O   O2        1.0  0.33704  0.37481  0.25403  1.0000
  O   O3        1.0  0.83770  0.87872  0.25411  1.0000
  O   O4        1.0  0.66295  0.62519  0.74597  1.0000
  O   O5        1.0  0.35951  0.28364  0.78548  1.0000
  O   O6        1.0  0.14043  0.49792  0.21459  1.0000
  O   O7        1.0  0.64049  0.71636  0.21452  1.0000
  O   O8        1.0  0.85956  0.50208  0.78540  1.0000
  O   O9        1.0  0.34541  0.00136  0.30092  1.0000
  O   O10       1.0  0.15481  0.70042  0.69915  1.0000
  O   O11       1.0  0.65458  0.99865  0.69908  1.0000
  O   O12       1.0  0.84519  0.29958  0.30085  1.0000
  O   O13       1.0  0.59571  0.05764  0.13366  1.0000
  O   O14       1.0  0.90429  0.92399  0.86622  1.0000
  O   O15       1.0  0.40427  0.94236  0.86634  1.0000
  O   O16       1.0  0.09571  0.07600  0.13378  1.0000
  O   O17       1.0  0.41013  0.89333  0.10357  1.0000
  O   O18       1.0  0.09040  0.79021  0.89658  1.0000
  O   O19       1.0  0.58988  0.10665  0.89643  1.0000
  O   O20       1.0  0.90960  0.20978  0.10342  1.0000
  O   O21       1.0  0.04915  0.39599  0.01440  1.0000
  O   O22       1.0  0.45078  0.38188  0.98570  1.0000
  O   O23       1.0  0.95081  0.60402  0.98561  1.0000
  O   O24       1.0  0.54918  0.61811  0.01430  1.0000
  O   O25       1.0  0.24983  0.11900  0.99991  1.0000
  O   O26       1.0  0.75016  0.88099  0.00009  1.0000
  O   O27       1.0  0.73867  0.29614  0.79785  1.0000
  O   O28       1.0  0.76146  0.49809  0.20204  1.0000
  O   O29       1.0  0.26132  0.70386  0.20215  1.0000
  O   O30       1.0  0.23854  0.50191  0.79797  1.0000
