data_image0
_chemical_formula_structural       Dy2H22C20N4O18
_chemical_formula_sum              "Dy2 H22 C20 N4 O18"
_cell_length_a       6.4908
_cell_length_b       9.43691
_cell_length_c       11.5563
_cell_angle_alpha    116.981
_cell_angle_beta     97.2603
_cell_angle_gamma    103.264

_space_group_name_H-M_alt    "P 1"
_space_group_IT_number       1

loop_
  _space_group_symop_operation_xyz
  'x, y, z'

loop_
  _atom_site_type_symbol
  _atom_site_label
  _atom_site_symmetry_multiplicity
  _atom_site_fract_x
  _atom_site_fract_y
  _atom_site_fract_z
  _atom_site_occupancy
  Dy  Dy1       1.0  0.36270  0.29071  0.68387  1.0000
  Dy  Dy2       1.0  0.63730  0.70930  0.31614  1.0000
  H   H1        1.0  0.59075  0.39777  0.53760  1.0000
  H   H2        1.0  0.40925  0.60223  0.46239  1.0000
  H   H3        1.0  0.24770  0.55504  0.61860  1.0000
  H   H4        1.0  0.75230  0.44496  0.38140  1.0000
  H   H5        1.0  0.05622  0.44065  0.64310  1.0000
  H   H6        1.0  0.94378  0.55935  0.35689  1.0000
  H   H7        1.0  0.86639  0.60214  0.74674  1.0000
  H   H8        1.0  0.13360  0.39786  0.25326  1.0000
  H   H9        1.0  0.57294  0.57105  0.64547  1.0000
  H   H10       1.0  0.42706  0.42895  0.35452  1.0000
  H   H11       1.0  0.30548  0.06433  0.86072  1.0000
  H   H12       1.0  0.69452  0.93567  0.13928  1.0000
  H   H13       1.0  0.05175  0.77873  0.65540  1.0000
  H   H14       1.0  0.94825  0.22126  0.34460  1.0000
  H   H15       1.0  0.42729  0.20041  0.14482  1.0000
  H   H16       1.0  0.57271  0.79959  0.85517  1.0000
  H   H17       1.0  0.95092  0.61700  0.01040  1.0000
  H   H18       1.0  0.04907  0.38300  0.98960  1.0000
  H   H19       1.0  0.21670  0.92487  0.53156  1.0000
  H   H20       1.0  0.78331  0.07514  0.46845  1.0000
  H   H21       1.0  0.00831  0.95373  0.58792  1.0000
  H   H22       1.0  0.99171  0.04627  0.41208  1.0000
  C   C1        1.0  0.49072  0.41912  0.00351  1.0000
  C   C2        1.0  0.50926  0.58087  0.99648  1.0000
  C   C3        1.0  0.15943  0.79410  0.26898  1.0000
  C   C4        1.0  0.84057  0.20590  0.73102  1.0000
  C   C5        1.0  0.08317  0.81411  0.76040  1.0000
  C   C6        1.0  0.91683  0.18589  0.23960  1.0000
  C   C7        1.0  0.22014  0.95696  0.98435  1.0000
  C   C8        1.0  0.77987  0.04303  0.01565  1.0000
  C   C9        1.0  0.32292  0.07589  0.11699  1.0000
  C   C10       1.0  0.67708  0.92411  0.88301  1.0000
  C   C11       1.0  0.28063  0.03140  0.21712  1.0000
  C   C12       1.0  0.71937  0.96860  0.78288  1.0000
  C   C13       1.0  0.36046  0.15715  0.35687  1.0000
  C   C14       1.0  0.63956  0.84286  0.64313  1.0000
  C   C15       1.0  0.15296  0.86180  0.17474  1.0000
  C   C16       1.0  0.84703  0.13821  0.82527  1.0000
  C   C17       1.0  0.04487  0.74542  0.04046  1.0000
  C   C18       1.0  0.95513  0.25459  0.95954  1.0000
  C   C19       1.0  0.07560  0.79552  0.94505  1.0000
  C   C20       1.0  0.92440  0.20448  0.05495  1.0000
  N   N1        1.0  0.21969  0.96166  0.86542  1.0000
  N   N2        1.0  0.78031  0.03833  0.13458  1.0000
  N   N3        1.0  0.00102  0.71158  0.80664  1.0000
  N   N4        1.0  0.99898  0.28842  0.19336  1.0000
  O   O1        1.0  0.28259  0.13510  0.44928  1.0000
  O   O2        1.0  0.71742  0.86490  0.55072  1.0000
  O   O3        1.0  0.43773  0.28332  0.89118  1.0000
  O   O4        1.0  0.56225  0.71667  0.10882  1.0000
  O   O5        1.0  0.52898  0.43598  0.12025  1.0000
  O   O6        1.0  0.47101  0.56402  0.87976  1.0000
  O   O7        1.0  0.34432  0.80535  0.33124  1.0000
  O   O8        1.0  0.65568  0.19466  0.66877  1.0000
  O   O9        1.0  0.51769  0.29804  0.39324  1.0000
  O   O10       1.0  0.48231  0.70196  0.60676  1.0000
  O   O11       1.0  0.16961  0.43870  0.59477  1.0000
  O   O12       1.0  0.83039  0.56129  0.40522  1.0000
  O   O13       1.0  0.97948  0.71808  0.28077  1.0000
  O   O14       1.0  0.02050  0.28192  0.71922  1.0000
  O   O15       1.0  0.17215  0.99851  0.60880  1.0000
  O   O16       1.0  0.82785  0.00149  0.39120  1.0000
  O   O17       1.0  0.61985  0.47559  0.64296  1.0000
  O   O18       1.0  0.38015  0.52441  0.35704  1.0000
