data_image0
_chemical_formula_structural       Dy2H22C24N12O16
_chemical_formula_sum              "Dy2 H22 C24 N12 O16"
_cell_length_a       6.27096
_cell_length_b       12.4034
_cell_length_c       13.3721
_cell_angle_alpha    59.892
_cell_angle_beta     84.9976
_cell_angle_gamma    83.4663

_space_group_name_H-M_alt    "P 1"
_space_group_IT_number       1

loop_
  _space_group_symop_operation_xyz
  'x, y, z'

loop_
  _atom_site_type_symbol
  _atom_site_label
  _atom_site_symmetry_multiplicity
  _atom_site_fract_x
  _atom_site_fract_y
  _atom_site_fract_z
  _atom_site_occupancy
  Dy  Dy1       1.0  0.45119  0.14079  0.25673  1.0000
  Dy  Dy2       1.0  0.54882  0.85921  0.74327  1.0000
  H   H1        1.0  0.71012  0.75476  0.26616  1.0000
  H   H2        1.0  0.28988  0.24524  0.73383  1.0000
  H   H3        1.0  0.72945  0.49107  0.69931  1.0000
  H   H4        1.0  0.27053  0.50893  0.30069  1.0000
  H   H5        1.0  0.81393  0.28329  0.46030  1.0000
  H   H6        1.0  0.18607  0.71671  0.53971  1.0000
  H   H7        1.0  0.78206  0.50638  0.28857  1.0000
  H   H8        1.0  0.21795  0.49361  0.71144  1.0000
  H   H9        1.0  0.89320  0.37661  0.90514  1.0000
  H   H10       1.0  0.10681  0.62339  0.09487  1.0000
  H   H11       1.0  0.64257  0.41584  0.98757  1.0000
  H   H12       1.0  0.35743  0.58416  0.01243  1.0000
  H   H13       1.0  0.57947  0.52212  0.84477  1.0000
  H   H14       1.0  0.42053  0.47787  0.15524  1.0000
  H   H15       1.0  0.67761  0.09760  0.46468  1.0000
  H   H16       1.0  0.32240  0.90241  0.53532  1.0000
  H   H17       1.0  0.86090  0.10935  0.36520  1.0000
  H   H18       1.0  0.13912  0.89065  0.63481  1.0000
  H   H19       1.0  0.50664  0.98442  0.16230  1.0000
  H   H20       1.0  0.49337  0.01558  0.83771  1.0000
  H   H21       1.0  0.25768  0.98138  0.18231  1.0000
  H   H22       1.0  0.74232  0.01863  0.81769  1.0000
  C   C1        1.0  0.68361  0.75233  0.42945  1.0000
  C   C2        1.0  0.31638  0.24767  0.57055  1.0000
  C   C3        1.0  0.71718  0.69724  0.35989  1.0000
  C   C4        1.0  0.28281  0.30277  0.64011  1.0000
  C   C5        1.0  0.74846  0.56727  0.41466  1.0000
  C   C6        1.0  0.25153  0.43273  0.58534  1.0000
  C   C7        1.0  0.74871  0.49119  0.53728  1.0000
  C   C8        1.0  0.25128  0.50881  0.46272  1.0000
  C   C9        1.0  0.72339  0.54743  0.60556  1.0000
  C   C10       1.0  0.27659  0.45257  0.39444  1.0000
  C   C11       1.0  0.69296  0.67766  0.55209  1.0000
  C   C12       1.0  0.30703  0.32234  0.44791  1.0000
  C   C13       1.0  0.68464  0.73519  0.62596  1.0000
  C   C14       1.0  0.31534  0.26482  0.37404  1.0000
  C   C15       1.0  0.60912  0.88786  0.36802  1.0000
  C   C16       1.0  0.39088  0.11215  0.63198  1.0000
  C   C17       1.0  0.09850  0.29517  0.04810  1.0000
  C   C18       1.0  0.90151  0.70483  0.95191  1.0000
  C   C19       1.0  0.36675  0.39127  0.94534  1.0000
  C   C20       1.0  0.63326  0.60872  0.05466  1.0000
  C   C21       1.0  0.79286  0.36620  0.46927  1.0000
  C   C22       1.0  0.20714  0.63380  0.53074  1.0000
  C   C23       1.0  0.96003  0.21747  0.15044  1.0000
  C   C24       1.0  0.03998  0.78253  0.84956  1.0000
  N   N1        1.0  0.77721  0.36575  0.56859  1.0000
  N   N2        1.0  0.22279  0.63425  0.43141  1.0000
  N   N3        1.0  0.77743  0.48422  0.37421  1.0000
  N   N4        1.0  0.22256  0.51577  0.62579  1.0000
  N   N5        1.0  0.30494  0.30715  0.05596  1.0000
  N   N6        1.0  0.69507  0.69285  0.94404  1.0000
  N   N7        1.0  0.04078  0.36653  0.93795  1.0000
  N   N8        1.0  0.95923  0.63347  0.06206  1.0000
  N   N9        1.0  0.56760  0.43306  0.91581  1.0000
  N   N10       1.0  0.43240  0.56694  0.08419  1.0000
  N   N11       1.0  0.20852  0.42947  0.86976  1.0000
  N   N12       1.0  0.79148  0.57053  0.13023  1.0000
  O   O1        1.0  0.63302  0.67128  0.73525  1.0000
  O   O2        1.0  0.36698  0.32872  0.26475  1.0000
  O   O3        1.0  0.72542  0.84869  0.58346  1.0000
  O   O4        1.0  0.27459  0.15131  0.41655  1.0000
  O   O5        1.0  0.43347  0.92845  0.40069  1.0000
  O   O6        1.0  0.56653  0.07156  0.59931  1.0000
  O   O7        1.0  0.70678  0.96285  0.27429  1.0000
  O   O8        1.0  0.29322  0.03715  0.72571  1.0000
  O   O9        1.0  0.70994  0.12929  0.38107  1.0000
  O   O10       1.0  0.29008  0.87072  0.61893  1.0000
  O   O11       1.0  0.06129  0.14550  0.24204  1.0000
  O   O12       1.0  0.93873  0.85450  0.75796  1.0000
  O   O13       1.0  0.75851  0.23285  0.13724  1.0000
  O   O14       1.0  0.24150  0.76715  0.86276  1.0000
  O   O15       1.0  0.37082  0.03757  0.14083  1.0000
  O   O16       1.0  0.62918  0.96243  0.85916  1.0000
