data_image0
_chemical_formula_structural       Zn2H44C60N8O8
_chemical_formula_sum              "Zn2 H44 C60 N8 O8"
_cell_length_a       8.39258
_cell_length_b       13.3559
_cell_length_c       13.3558
_cell_angle_alpha    112.306
_cell_angle_beta     101.717
_cell_angle_gamma    101.716

_space_group_name_H-M_alt    "P 1"
_space_group_IT_number       1

loop_
  _space_group_symop_operation_xyz
  'x, y, z'

loop_
  _atom_site_type_symbol
  _atom_site_label
  _atom_site_symmetry_multiplicity
  _atom_site_fract_x
  _atom_site_fract_y
  _atom_site_fract_z
  _atom_site_occupancy
  Zn  Zn1       1.0  0.29125  0.61552  0.88319  1.0000
  Zn  Zn2       1.0  0.79125  0.88319  0.61552  1.0000
  H   H1        1.0  0.28857  0.43222  0.65292  1.0000
  H   H2        1.0  0.78858  0.65292  0.43222  1.0000
  H   H3        1.0  0.30348  0.42659  0.46415  1.0000
  H   H4        1.0  0.80348  0.46415  0.42659  1.0000
  H   H5        1.0  0.30532  0.60063  0.43464  1.0000
  H   H6        1.0  0.80533  0.43464  0.60063  1.0000
  H   H7        1.0  0.29886  0.77431  0.59302  1.0000
  H   H8        1.0  0.79886  0.59302  0.77430  1.0000
  H   H9        1.0  0.29408  0.91178  0.73036  1.0000
  H   H10       1.0  0.79407  0.73035  0.91178  1.0000
  H   H11       1.0  0.28398  0.06722  0.90252  1.0000
  H   H12       1.0  0.78397  0.90252  0.06722  1.0000
  H   H13       1.0  0.27312  0.03265  0.07509  1.0000
  H   H14       1.0  0.77312  0.07509  0.03265  1.0000
  H   H15       1.0  0.28035  0.84185  0.06525  1.0000
  H   H16       1.0  0.78035  0.06525  0.84185  1.0000
  H   H17       1.0  0.70060  0.50991  0.88485  1.0000
  H   H18       1.0  0.20060  0.88485  0.50991  1.0000
  H   H19       1.0  0.42605  0.36309  0.81973  1.0000
  H   H20       1.0  0.92605  0.81973  0.36310  1.0000
  H   H21       1.0  0.65723  0.10416  0.67248  1.0000
  H   H22       1.0  0.15722  0.67248  0.10416  1.0000
  H   H23       1.0  0.93449  0.25286  0.73922  1.0000
  H   H24       1.0  0.43449  0.73923  0.25286  1.0000
  H   H25       1.0  0.37383  0.04416  0.66048  1.0000
  H   H26       1.0  0.87382  0.66047  0.04416  1.0000
  H   H27       1.0  0.19226  0.22459  0.74735  1.0000
  H   H28       1.0  0.69225  0.74735  0.22459  1.0000
  H   H29       1.0  0.98229  0.25032  0.56081  1.0000
  H   H30       1.0  0.48229  0.56081  0.25033  1.0000
  H   H31       1.0  0.80791  0.04674  0.48449  1.0000
  H   H32       1.0  0.30792  0.48450  0.04674  1.0000
  H   H33       1.0  0.61514  0.94791  0.28131  1.0000
  H   H34       1.0  0.11515  0.28132  0.94791  1.0000
  H   H35       1.0  0.60901  0.05627  0.16544  1.0000
  H   H36       1.0  0.10900  0.16544  0.05627  1.0000
  H   H37       1.0  0.55255  0.17142  0.10599  1.0000
  H   H38       1.0  0.05255  0.10599  0.17142  1.0000
  H   H39       1.0  0.57115  0.28492  0.99538  1.0000
  H   H40       1.0  0.07115  0.99538  0.28491  1.0000
  H   H41       1.0  0.82435  0.45975  0.07006  1.0000
  H   H42       1.0  0.32435  0.07006  0.45975  1.0000
  H   H43       1.0  0.04664  0.51228  0.25300  1.0000
  H   H44       1.0  0.54664  0.25300  0.51228  1.0000
  C   C1        1.0  0.29182  0.50598  0.63558  1.0000
  C   C2        1.0  0.79183  0.63559  0.50598  1.0000
  C   C3        1.0  0.29822  0.50279  0.53103  1.0000
  C   C4        1.0  0.79822  0.53103  0.50279  1.0000
  C   C5        1.0  0.29984  0.60025  0.51531  1.0000
  C   C6        1.0  0.79984  0.51531  0.60025  1.0000
  C   C7        1.0  0.29533  0.69711  0.60344  1.0000
  C   C8        1.0  0.79533  0.60344  0.69710  1.0000
  C   C9        1.0  0.29204  0.69461  0.70665  1.0000
  C   C10       1.0  0.79204  0.70665  0.69461  1.0000
  C   C11       1.0  0.29152  0.79412  0.80640  1.0000
  C   C12       1.0  0.79152  0.80640  0.79412  1.0000
  C   C13       1.0  0.29262  0.89884  0.80578  1.0000
  C   C14       1.0  0.79261  0.80578  0.89884  1.0000
  C   C15       1.0  0.28570  0.98575  0.90250  1.0000
  C   C16       1.0  0.78570  0.90250  0.98575  1.0000
  C   C17       1.0  0.28001  0.96729  0.99802  1.0000
  C   C18       1.0  0.78000  0.99802  0.96729  1.0000
  C   C19       1.0  0.28273  0.86167  0.99334  1.0000
  C   C20       1.0  0.78273  0.99334  0.86167  1.0000
  C   C21       1.0  0.00385  0.48185  0.85497  1.0000
  C   C22       1.0  0.50385  0.85497  0.48185  1.0000
  C   C23       1.0  0.83776  0.39162  0.81695  1.0000
  C   C24       1.0  0.33776  0.81695  0.39162  1.0000
  C   C25       1.0  0.69251  0.42121  0.83858  1.0000
  C   C26       1.0  0.19251  0.83858  0.42121  1.0000
  C   C27       1.0  0.53651  0.33784  0.80119  1.0000
  C   C28       1.0  0.03651  0.80119  0.33784  1.0000
  C   C29       1.0  0.52181  0.22210  0.74097  1.0000
  C   C30       1.0  0.02180  0.74097  0.22210  1.0000
  C   C31       1.0  0.66762  0.19332  0.71925  1.0000
  C   C32       1.0  0.16762  0.71925  0.19332  1.0000
  C   C33       1.0  0.82359  0.27711  0.75672  1.0000
  C   C34       1.0  0.32359  0.75672  0.27711  1.0000
  C   C35       1.0  0.36374  0.12991  0.70104  1.0000
  C   C36       1.0  0.86374  0.70104  0.12991  1.0000
  C   C37       1.0  0.21027  0.14117  0.70948  1.0000
  C   C38       1.0  0.71027  0.70948  0.14117  1.0000
  C   C39       1.0  0.05749  0.04270  0.66865  1.0000
  C   C40       1.0  0.55748  0.66865  0.04270  1.0000
  C   C41       1.0  0.89803  0.20456  0.47274  1.0000
  C   C42       1.0  0.39804  0.47274  0.20457  1.0000
  C   C43       1.0  0.80106  0.09062  0.43043  1.0000
  C   C44       1.0  0.30106  0.43043  0.09062  1.0000
  C   C45       1.0  0.69462  0.03647  0.31801  1.0000
  C   C46       1.0  0.19463  0.31801  0.03647  1.0000
  C   C47       1.0  0.69108  0.09760  0.25355  1.0000
  C   C48       1.0  0.19108  0.25356  0.09760  1.0000
  C   C49       1.0  0.79353  0.21201  0.30311  1.0000
  C   C50       1.0  0.29353  0.30311  0.21201  1.0000
  C   C51       1.0  0.79545  0.27979  0.23628  1.0000
  C   C52       1.0  0.29545  0.23628  0.27979  1.0000
  C   C53       1.0  0.66312  0.24590  0.13539  1.0000
  C   C54       1.0  0.16312  0.13539  0.24589  1.0000
  C   C55       1.0  0.67226  0.30987  0.07393  1.0000
  C   C56       1.0  0.17226  0.07393  0.30986  1.0000
  C   C57       1.0  0.81201  0.40720  0.11530  1.0000
  C   C58       1.0  0.31201  0.11530  0.40719  1.0000
  C   C59       1.0  0.93595  0.43590  0.21735  1.0000
  C   C60       1.0  0.43595  0.21735  0.43590  1.0000
  N   N1        1.0  0.28965  0.59944  0.72099  1.0000
  N   N2        1.0  0.78965  0.72099  0.59944  1.0000
  N   N3        1.0  0.28807  0.77793  0.89994  1.0000
  N   N4        1.0  0.78807  0.89994  0.77793  1.0000
  N   N5        1.0  0.89530  0.26465  0.41218  1.0000
  N   N6        1.0  0.39530  0.41218  0.26465  1.0000
  N   N7        1.0  0.92992  0.37455  0.27659  1.0000
  N   N8        1.0  0.42992  0.27658  0.37455  1.0000
  O   O1        1.0  0.01355  0.58588  0.90558  1.0000
  O   O2        1.0  0.51355  0.90558  0.58588  1.0000
  O   O3        1.0  0.13458  0.45227  0.83226  1.0000
  O   O4        1.0  0.63459  0.83226  0.45227  1.0000
  O   O5        1.0  0.06287  0.94029  0.62678  1.0000
  O   O6        1.0  0.56287  0.62678  0.94029  1.0000
  O   O7        1.0  0.91575  0.06159  0.67739  1.0000
  O   O8        1.0  0.41574  0.67739  0.06159  1.0000
