data_image0
_chemical_formula_structural       Cu4H32C48S4N12O4
_chemical_formula_sum              "Cu4 H32 C48 S4 N12 O4"
_cell_length_a       8.07058
_cell_length_b       10.9398
_cell_length_c       13.3508
_cell_angle_alpha    90
_cell_angle_beta     90.0001
_cell_angle_gamma    90

_space_group_name_H-M_alt    "P 1"
_space_group_IT_number       1

loop_
  _space_group_symop_operation_xyz
  'x, y, z'

loop_
  _atom_site_type_symbol
  _atom_site_label
  _atom_site_symmetry_multiplicity
  _atom_site_fract_x
  _atom_site_fract_y
  _atom_site_fract_z
  _atom_site_occupancy
  Cu  Cu1       1.0  0.73230  0.06579  0.75000  1.0000
  Cu  Cu2       1.0  0.76770  0.56578  0.25000  1.0000
  Cu  Cu3       1.0  0.23230  0.43422  0.75000  1.0000
  Cu  Cu4       1.0  0.26771  0.93421  0.25000  1.0000
  H   H1        1.0  0.79028  0.06086  0.96256  1.0000
  H   H2        1.0  0.70973  0.56086  0.03744  1.0000
  H   H3        1.0  0.29027  0.43915  0.53744  1.0000
  H   H4        1.0  0.20973  0.93914  0.46256  1.0000
  H   H5        1.0  0.20973  0.93914  0.03744  1.0000
  H   H6        1.0  0.29027  0.43915  0.96257  1.0000
  H   H7        1.0  0.70973  0.56086  0.46256  1.0000
  H   H8        1.0  0.79027  0.06086  0.53744  1.0000
  H   H9        1.0  0.55629  0.74166  0.08810  1.0000
  H   H10       1.0  0.94371  0.24166  0.91190  1.0000
  H   H11       1.0  0.05628  0.75835  0.41190  1.0000
  H   H12       1.0  0.44371  0.25834  0.58810  1.0000
  H   H13       1.0  0.44370  0.25834  0.91190  1.0000
  H   H14       1.0  0.05628  0.75835  0.08810  1.0000
  H   H15       1.0  0.94371  0.24165  0.58810  1.0000
  H   H16       1.0  0.55629  0.74166  0.41190  1.0000
  H   H17       1.0  0.44728  0.69609  0.91459  1.0000
  H   H18       1.0  0.05272  0.19609  0.08541  1.0000
  H   H19       1.0  0.94727  0.80391  0.58542  1.0000
  H   H20       1.0  0.55272  0.30391  0.41458  1.0000
  H   H21       1.0  0.55272  0.30391  0.08541  1.0000
  H   H22       1.0  0.94728  0.80391  0.91458  1.0000
  H   H23       1.0  0.05272  0.19609  0.41458  1.0000
  H   H24       1.0  0.44728  0.69609  0.58541  1.0000
  H   H25       1.0  0.73208  0.93044  0.11073  1.0000
  H   H26       1.0  0.76792  0.43044  0.88927  1.0000
  H   H27       1.0  0.23208  0.56957  0.38927  1.0000
  H   H28       1.0  0.26792  0.06956  0.61073  1.0000
  H   H29       1.0  0.26792  0.06956  0.88927  1.0000
  H   H30       1.0  0.23208  0.56957  0.11073  1.0000
  H   H31       1.0  0.76792  0.43043  0.61073  1.0000
  H   H32       1.0  0.73208  0.93044  0.38927  1.0000
  C   C1        1.0  0.48941  0.82097  0.75000  1.0000
  C   C2        1.0  0.01059  0.32097  0.25000  1.0000
  C   C3        1.0  0.98941  0.67903  0.75000  1.0000
  C   C4        1.0  0.51059  0.17903  0.25000  1.0000
  C   C5        1.0  0.56242  0.85414  0.84975  1.0000
  C   C6        1.0  0.93758  0.35413  0.15025  1.0000
  C   C7        1.0  0.06242  0.64587  0.65026  1.0000
  C   C8        1.0  0.43758  0.14586  0.34974  1.0000
  C   C9        1.0  0.43758  0.14586  0.15025  1.0000
  C   C10       1.0  0.06242  0.64587  0.84975  1.0000
  C   C11       1.0  0.93758  0.35413  0.34974  1.0000
  C   C12       1.0  0.56242  0.85413  0.65026  1.0000
  C   C13       1.0  0.71501  0.97864  0.95532  1.0000
  C   C14       1.0  0.78499  0.47863  0.04469  1.0000
  C   C15       1.0  0.21501  0.52137  0.54469  1.0000
  C   C16       1.0  0.28499  0.02136  0.45531  1.0000
  C   C17       1.0  0.28499  0.02136  0.04468  1.0000
  C   C18       1.0  0.21501  0.52137  0.95532  1.0000
  C   C19       1.0  0.78499  0.47863  0.45531  1.0000
  C   C20       1.0  0.71501  0.97864  0.54469  1.0000
  C   C21       1.0  0.58470  0.80092  0.02479  1.0000
  C   C22       1.0  0.91530  0.30092  0.97521  1.0000
  C   C23       1.0  0.08470  0.69908  0.47521  1.0000
  C   C24       1.0  0.41530  0.19907  0.52479  1.0000
  C   C25       1.0  0.41530  0.19907  0.97521  1.0000
  C   C26       1.0  0.08470  0.69908  0.02479  1.0000
  C   C27       1.0  0.91530  0.30092  0.52479  1.0000
  C   C28       1.0  0.58470  0.80092  0.47521  1.0000
  C   C29       1.0  0.52408  0.77572  0.92964  1.0000
  C   C30       1.0  0.97592  0.27571  0.07036  1.0000
  C   C31       1.0  0.02408  0.72429  0.57036  1.0000
  C   C32       1.0  0.47592  0.22429  0.42964  1.0000
  C   C33       1.0  0.47592  0.22429  0.07036  1.0000
  C   C34       1.0  0.02408  0.72429  0.92964  1.0000
  C   C35       1.0  0.97592  0.27571  0.42964  1.0000
  C   C36       1.0  0.52408  0.77572  0.57036  1.0000
  C   C37       1.0  0.68162  0.90549  0.03793  1.0000
  C   C38       1.0  0.81838  0.40548  0.96208  1.0000
  C   C39       1.0  0.18162  0.59452  0.46208  1.0000
  C   C40       1.0  0.31838  0.09452  0.53792  1.0000
  C   C41       1.0  0.31838  0.09451  0.96208  1.0000
  C   C42       1.0  0.18162  0.59452  0.03793  1.0000
  C   C43       1.0  0.81838  0.40548  0.53793  1.0000
  C   C44       1.0  0.68162  0.90548  0.46207  1.0000
  C   C45       1.0  0.09791  0.17312  0.75000  1.0000
  C   C46       1.0  0.40210  0.67310  0.25000  1.0000
  C   C47       1.0  0.59791  0.32689  0.75000  1.0000
  C   C48       1.0  0.90208  0.82688  0.25000  1.0000
  S   S1        1.0  0.01781  0.03554  0.75000  1.0000
  S   S2        1.0  0.48220  0.53552  0.25000  1.0000
  S   S3        1.0  0.51781  0.46447  0.75000  1.0000
  S   S4        1.0  0.98220  0.96446  0.25000  1.0000
  N   N1        1.0  0.65854  0.95424  0.86227  1.0000
  N   N2        1.0  0.84147  0.45424  0.13773  1.0000
  N   N3        1.0  0.15853  0.54576  0.63773  1.0000
  N   N4        1.0  0.34147  0.04576  0.36227  1.0000
  N   N5        1.0  0.34147  0.04576  0.13773  1.0000
  N   N6        1.0  0.15853  0.54576  0.86227  1.0000
  N   N7        1.0  0.84147  0.45424  0.36227  1.0000
  N   N8        1.0  0.65853  0.95424  0.63773  1.0000
  N   N9        1.0  0.15835  0.27180  0.75000  1.0000
  N   N10       1.0  0.34166  0.77178  0.25000  1.0000
  N   N11       1.0  0.65835  0.22821  0.75000  1.0000
  N   N12       1.0  0.84165  0.72821  0.25000  1.0000
  O   O1        1.0  0.36454  0.75550  0.75000  1.0000
  O   O2        1.0  0.13546  0.25549  0.25000  1.0000
  O   O3        1.0  0.86454  0.74451  0.75000  1.0000
  O   O4        1.0  0.63546  0.24451  0.25000  1.0000
