data_image0
_chemical_formula_structural       Zn8P8H48C34N16O24
_chemical_formula_sum              "Zn8 P8 H48 C34 N16 O24"
_cell_length_a       9.69007
_cell_length_b       12.0393
_cell_length_c       15.1556
_cell_angle_alpha    69.6936
_cell_angle_beta     71.3393
_cell_angle_gamma    66.2419

_space_group_name_H-M_alt    "P 1"
_space_group_IT_number       1

loop_
  _space_group_symop_operation_xyz
  'x, y, z'

loop_
  _atom_site_type_symbol
  _atom_site_label
  _atom_site_symmetry_multiplicity
  _atom_site_fract_x
  _atom_site_fract_y
  _atom_site_fract_z
  _atom_site_occupancy
  Zn  Zn1       1.0  0.09549  0.18672  0.33575  1.0000
  Zn  Zn2       1.0  0.61843  0.31335  0.16404  1.0000
  Zn  Zn3       1.0  0.90451  0.81327  0.66425  1.0000
  Zn  Zn4       1.0  0.38157  0.68665  0.83596  1.0000
  Zn  Zn5       1.0  0.49836  0.18174  0.46870  1.0000
  Zn  Zn6       1.0  0.14907  0.31818  0.03117  1.0000
  Zn  Zn7       1.0  0.50164  0.81826  0.53130  1.0000
  Zn  Zn8       1.0  0.85093  0.68183  0.96883  1.0000
  P   P1        1.0  0.43727  0.02743  0.35142  1.0000
  P   P2        1.0  0.81629  0.47246  0.14860  1.0000
  P   P3        1.0  0.56273  0.97257  0.64858  1.0000
  P   P4        1.0  0.18371  0.52755  0.85140  1.0000
  P   P5        1.0  0.81368  0.11657  0.32233  1.0000
  P   P6        1.0  0.25282  0.38329  0.17748  1.0000
  P   P7        1.0  0.18632  0.88343  0.67767  1.0000
  P   P8        1.0  0.74718  0.61671  0.82251  1.0000
  H   H1        1.0  0.14877  0.32599  0.45551  1.0000
  H   H2        1.0  0.93070  0.17385  0.04417  1.0000
  H   H3        1.0  0.85123  0.67402  0.54449  1.0000
  H   H4        1.0  0.06930  0.82615  0.95583  1.0000
  H   H5        1.0  0.00986  0.30892  0.64943  1.0000
  H   H6        1.0  0.96860  0.19083  0.85031  1.0000
  H   H7        1.0  0.99014  0.69108  0.35057  1.0000
  H   H8        1.0  0.03140  0.80916  0.14969  1.0000
  H   H9        1.0  0.86054  0.10503  0.54132  1.0000
  H   H10       1.0  0.50709  0.39502  0.95852  1.0000
  H   H11       1.0  0.13946  0.89497  0.45868  1.0000
  H   H12       1.0  0.49291  0.60498  0.04148  1.0000
  H   H13       1.0  0.88914  0.11130  0.76880  1.0000
  H   H14       1.0  0.76928  0.38875  0.73094  1.0000
  H   H15       1.0  0.11086  0.88870  0.23120  1.0000
  H   H16       1.0  0.23072  0.61125  0.26906  1.0000
  H   H17       1.0  0.79118  0.07614  0.70750  1.0000
  H   H18       1.0  0.57481  0.42396  0.79243  1.0000
  H   H19       1.0  0.20881  0.92386  0.29250  1.0000
  H   H20       1.0  0.42519  0.57604  0.20757  1.0000
  H   H21       1.0  0.57541  0.25953  0.62989  1.0000
  H   H22       1.0  0.46483  0.24065  0.87014  1.0000
  H   H23       1.0  0.42459  0.74047  0.37011  1.0000
  H   H24       1.0  0.53517  0.75935  0.12986  1.0000
  H   H25       1.0  0.44523  0.35703  0.70626  1.0000
  H   H26       1.0  0.50851  0.14318  0.79381  1.0000
  H   H27       1.0  0.55477  0.64297  0.29375  1.0000
  H   H28       1.0  0.49149  0.85682  0.20619  1.0000
  H   H29       1.0  0.46334  0.57017  0.68406  1.0000
  H   H30       1.0  0.71777  0.92995  0.81601  1.0000
  H   H31       1.0  0.53665  0.42983  0.31594  1.0000
  H   H32       1.0  0.28223  0.07005  0.18400  1.0000
  H   H33       1.0  0.74719  0.36425  0.47711  1.0000
  H   H34       1.0  0.58828  0.13594  0.02290  1.0000
  H   H35       1.0  0.25281  0.63575  0.52289  1.0000
  H   H36       1.0  0.41172  0.86407  0.97710  1.0000
  H   H37       1.0  0.74189  0.61150  0.40389  1.0000
  H   H38       1.0  0.75666  0.88857  0.09632  1.0000
  H   H39       1.0  0.25810  0.38850  0.59611  1.0000
  H   H40       1.0  0.24334  0.11143  0.90368  1.0000
  H   H41       1.0  0.53301  0.06648  0.26349  1.0000
  H   H42       1.0  0.86300  0.43336  0.23656  1.0000
  H   H43       1.0  0.46699  0.93352  0.73651  1.0000
  H   H44       1.0  0.13700  0.56664  0.76344  1.0000
  H   H45       1.0  0.83659  0.98675  0.35791  1.0000
  H   H46       1.0  0.18124  0.51308  0.14199  1.0000
  H   H47       1.0  0.16341  0.01325  0.64209  1.0000
  H   H48       1.0  0.81876  0.48692  0.85801  1.0000
  C   C1        1.0  0.06808  0.27816  0.50252  1.0000
  C   C2        1.0  0.84916  0.22180  0.99718  1.0000
  C   C3        1.0  0.93192  0.72184  0.49748  1.0000
  C   C4        1.0  0.15084  0.77820  0.00282  1.0000
  C   C5        1.0  0.99972  0.27030  0.59798  1.0000
  C   C6        1.0  0.86835  0.22960  0.90174  1.0000
  C   C7        1.0  0.00027  0.72970  0.40202  1.0000
  C   C8        1.0  0.13165  0.77040  0.09826  1.0000
  C   C9        1.0  0.92267  0.16163  0.54291  1.0000
  C   C10       1.0  0.62749  0.33840  0.95690  1.0000
  C   C11       1.0  0.07733  0.83837  0.45709  1.0000
  C   C12       1.0  0.37251  0.66161  0.04310  1.0000
  C   C13       1.0  0.81616  0.15276  0.71550  1.0000
  C   C14       1.0  0.68450  0.34733  0.78433  1.0000
  C   C15       1.0  0.18383  0.84724  0.28450  1.0000
  C   C16       1.0  0.31550  0.65267  0.21567  1.0000
  C   C17       1.0  0.66353  0.25007  0.74995  1.0000
  C   C18       1.0  0.33648  0.74993  0.25005  1.0000
  C   C19       1.0  0.56670  0.32320  0.67012  1.0000
  C   C20       1.0  0.56008  0.17696  0.82989  1.0000
  C   C21       1.0  0.43329  0.67680  0.32987  1.0000
  C   C22       1.0  0.43992  0.82304  0.17011  1.0000
  C   C23       1.0  0.54369  0.54961  0.61835  1.0000
  C   C24       1.0  0.71162  0.95050  0.88175  1.0000
  C   C25       1.0  0.45631  0.45039  0.38165  1.0000
  C   C26       1.0  0.28839  0.04950  0.11825  1.0000
  C   C27       1.0  0.69261  0.44298  0.50946  1.0000
  C   C28       1.0  0.64483  0.05716  0.99061  1.0000
  C   C29       1.0  0.30738  0.55702  0.49054  1.0000
  C   C30       1.0  0.35517  0.94283  0.00939  1.0000
  C   C31       1.0  0.68791  0.56556  0.47383  1.0000
  C   C32       1.0  0.72686  0.93451  0.02635  1.0000
  C   C33       1.0  0.31209  0.43444  0.52617  1.0000
  C   C34       1.0  0.27315  0.06549  0.97365  1.0000
  N   N1        1.0  0.01892  0.21009  0.46938  1.0000
  N   N2        1.0  0.69876  0.28995  0.03037  1.0000
  N   N3        1.0  0.98107  0.78992  0.53062  1.0000
  N   N4        1.0  0.30124  0.71005  0.96963  1.0000
  N   N5        1.0  0.90712  0.19702  0.62227  1.0000
  N   N6        1.0  0.72665  0.30295  0.87752  1.0000
  N   N7        1.0  0.09287  0.80298  0.37773  1.0000
  N   N8        1.0  0.27335  0.69706  0.12248  1.0000
  N   N9        1.0  0.60231  0.43370  0.60175  1.0000
  N   N10       1.0  0.63781  0.06646  0.89827  1.0000
  N   N11       1.0  0.39769  0.56630  0.39825  1.0000
  N   N12       1.0  0.36220  0.93354  0.10173  1.0000
  N   N13       1.0  0.59448  0.63106  0.54252  1.0000
  N   N14       1.0  0.76778  0.86900  0.95766  1.0000
  N   N15       1.0  0.40551  0.36894  0.45748  1.0000
  N   N16       1.0  0.23223  0.13100  0.04234  1.0000
  O   O1        1.0  0.40281  0.11215  0.41661  1.0000
  O   O2        1.0  0.93171  0.38768  0.08343  1.0000
  O   O3        1.0  0.59719  0.88785  0.58339  1.0000
  O   O4        1.0  0.06829  0.61232  0.91657  1.0000
  O   O5        1.0  0.28680  0.04091  0.32724  1.0000
  O   O6        1.0  0.65504  0.45917  0.17265  1.0000
  O   O7        1.0  0.71320  0.95909  0.67277  1.0000
  O   O8        1.0  0.34496  0.54082  0.82736  1.0000
  O   O9        1.0  0.52545  0.88817  0.39119  1.0000
  O   O10       1.0  0.80512  0.61168  0.10890  1.0000
  O   O11       1.0  0.47455  0.11183  0.60881  1.0000
  O   O12       1.0  0.19488  0.38832  0.89110  1.0000
  O   O13       1.0  0.71220  0.17760  0.40589  1.0000
  O   O14       1.0  0.29597  0.32232  0.09390  1.0000
  O   O15       1.0  0.28780  0.82240  0.59411  1.0000
  O   O16       1.0  0.70403  0.67768  0.90609  1.0000
  O   O17       1.0  0.97327  0.13223  0.29058  1.0000
  O   O18       1.0  0.39640  0.36767  0.20910  1.0000
  O   O19       1.0  0.02673  0.86778  0.70942  1.0000
  O   O20       1.0  0.60360  0.63233  0.79089  1.0000
  O   O21       1.0  0.73702  0.15470  0.23725  1.0000
  O   O22       1.0  0.12931  0.34509  0.26263  1.0000
  O   O23       1.0  0.26298  0.84530  0.76275  1.0000
  O   O24       1.0  0.87070  0.65491  0.73737  1.0000
