data_image0
_chemical_formula_structural       Ag4P4H56C62N8O12
_chemical_formula_sum              "Ag4 P4 H56 C62 N8 O12"
_cell_length_a       9.61524
_cell_length_b       13.7175
_cell_length_c       14.0333
_cell_angle_alpha    115.856
_cell_angle_beta     100.971
_cell_angle_gamma    95.5269

_space_group_name_H-M_alt    "P 1"
_space_group_IT_number       1

loop_
  _space_group_symop_operation_xyz
  'x, y, z'

loop_
  _atom_site_type_symbol
  _atom_site_label
  _atom_site_symmetry_multiplicity
  _atom_site_fract_x
  _atom_site_fract_y
  _atom_site_fract_z
  _atom_site_occupancy
  Ag  Ag1       1.0  0.67898  0.31017  0.21898  1.0000
  Ag  Ag2       1.0  0.32101  0.68983  0.78102  1.0000
  Ag  Ag3       1.0  0.81940  0.66360  0.48329  1.0000
  Ag  Ag4       1.0  0.18060  0.33640  0.51671  1.0000
  P   P1        1.0  0.43472  0.24895  0.19336  1.0000
  P   P2        1.0  0.56528  0.75106  0.80664  1.0000
  P   P3        1.0  0.68314  0.79727  0.48279  1.0000
  P   P4        1.0  0.31686  0.20273  0.51721  1.0000
  H   H1        1.0  0.37783  0.38610  0.35646  1.0000
  H   H2        1.0  0.62217  0.61390  0.64354  1.0000
  H   H3        1.0  0.26987  0.25457  0.30891  1.0000
  H   H4        1.0  0.73013  0.74543  0.69109  1.0000
  H   H5        1.0  0.13751  0.29892  0.19501  1.0000
  H   H6        1.0  0.86249  0.70109  0.80500  1.0000
  H   H7        1.0  0.45687  0.29461  0.01472  1.0000
  H   H8        1.0  0.54313  0.70539  0.98528  1.0000
  H   H9        1.0  0.60112  0.07983  0.16884  1.0000
  H   H10       1.0  0.39888  0.92017  0.83116  1.0000
  H   H11       1.0  0.14896  0.09298  0.08970  1.0000
  H   H12       1.0  0.85103  0.90702  0.91030  1.0000
  H   H13       1.0  0.52057  0.14458  0.43489  1.0000
  H   H14       1.0  0.47943  0.85542  0.56511  1.0000
  H   H15       1.0  0.35882  0.11682  0.33522  1.0000
  H   H16       1.0  0.64118  0.88318  0.66478  1.0000
  H   H17       1.0  0.97474  0.35623  0.08017  1.0000
  H   H18       1.0  0.02525  0.64378  0.91983  1.0000
  H   H19       1.0  0.28569  0.34324  0.89304  1.0000
  H   H20       1.0  0.71430  0.65676  0.10696  1.0000
  H   H21       1.0  0.53357  0.87664  0.09962  1.0000
  H   H22       1.0  0.46643  0.12336  0.90038  1.0000
  H   H23       1.0  0.08328  0.88916  0.01378  1.0000
  H   H24       1.0  0.91671  0.11084  0.98621  1.0000
  H   H25       1.0  0.97503  0.55367  0.62595  1.0000
  H   H26       1.0  0.02497  0.44633  0.37405  1.0000
  H   H27       1.0  0.58266  0.46391  0.39753  1.0000
  H   H28       1.0  0.41734  0.53609  0.60247  1.0000
  H   H29       1.0  0.67494  0.26766  0.56608  1.0000
  H   H30       1.0  0.32506  0.73234  0.43392  1.0000
  H   H31       1.0  0.04839  0.37762  0.92724  1.0000
  H   H32       1.0  0.95161  0.62238  0.07276  1.0000
  H   H33       1.0  0.27421  0.78097  0.01869  1.0000
  H   H34       1.0  0.72579  0.21904  0.98131  1.0000
  H   H35       1.0  0.90816  0.39717  0.66701  1.0000
  H   H36       1.0  0.09184  0.60283  0.33299  1.0000
  H   H37       1.0  0.61923  0.59781  0.28004  1.0000
  H   H38       1.0  0.38077  0.40219  0.71996  1.0000
  H   H39       1.0  0.45193  0.89781  0.40421  1.0000
  H   H40       1.0  0.54807  0.10220  0.59579  1.0000
  H   H41       1.0  0.69962  0.93491  0.36714  1.0000
  H   H42       1.0  0.30037  0.06509  0.63286  1.0000
  H   H43       1.0  0.87170  0.96512  0.68904  1.0000
  H   H44       1.0  0.12830  0.03489  0.31096  1.0000
  H   H45       1.0  0.43123  0.52386  0.10314  1.0000
  H   H46       1.0  0.56876  0.47614  0.89687  1.0000
  H   H47       1.0  0.26527  0.82327  0.22946  1.0000
  H   H48       1.0  0.73474  0.17673  0.77054  1.0000
  H   H49       1.0  0.84257  0.12239  0.42806  1.0000
  H   H50       1.0  0.15743  0.87761  0.57194  1.0000
  H   H51       1.0  0.00961  0.15253  0.74893  1.0000
  H   H52       1.0  0.99039  0.84747  0.25107  1.0000
  H   H53       1.0  0.25398  0.63537  0.07741  1.0000
  H   H54       1.0  0.74602  0.36463  0.92259  1.0000
  H   H55       1.0  0.99743  0.23095  0.61898  1.0000
  H   H56       1.0  0.00257  0.76905  0.38101  1.0000
  C   C1        1.0  0.38045  0.29792  0.32519  1.0000
  C   C2        1.0  0.61955  0.70208  0.67481  1.0000
  C   C3        1.0  0.30845  0.29124  0.11204  1.0000
  C   C4        1.0  0.69155  0.70876  0.88796  1.0000
  C   C5        1.0  0.37971  0.09947  0.13439  1.0000
  C   C6        1.0  0.62029  0.90053  0.86561  1.0000
  C   C7        1.0  0.17258  0.30970  0.13034  1.0000
  C   C8        1.0  0.82742  0.69030  0.86966  1.0000
  C   C9        1.0  0.34919  0.30452  0.02670  1.0000
  C   C10       1.0  0.65082  0.69548  0.97331  1.0000
  C   C11       1.0  0.48746  0.03797  0.13687  1.0000
  C   C12       1.0  0.51254  0.96203  0.86313  1.0000
  C   C13       1.0  0.23357  0.04572  0.09077  1.0000
  C   C14       1.0  0.76643  0.95429  0.90922  1.0000
  C   C15       1.0  0.42841  0.18001  0.41475  1.0000
  C   C16       1.0  0.57159  0.81999  0.58525  1.0000
  C   C17       1.0  0.60635  0.35006  0.46793  1.0000
  C   C18       1.0  0.39365  0.64995  0.53207  1.0000
  C   C19       1.0  0.07933  0.34099  0.06440  1.0000
  C   C20       1.0  0.92067  0.65901  0.93560  1.0000
  C   C21       1.0  0.25430  0.33322  0.95940  1.0000
  C   C22       1.0  0.74569  0.66678  0.04060  1.0000
  C   C23       1.0  0.44931  0.92384  0.09698  1.0000
  C   C24       1.0  0.55069  0.07616  0.90302  1.0000
  C   C25       1.0  0.19634  0.93145  0.04943  1.0000
  C   C26       1.0  0.80366  0.06855  0.95057  1.0000
  C   C27       1.0  0.87088  0.49681  0.58471  1.0000
  C   C28       1.0  0.12912  0.50319  0.41529  1.0000
  C   C29       1.0  0.65148  0.44354  0.45443  1.0000
  C   C30       1.0  0.34852  0.55646  0.54557  1.0000
  C   C31       1.0  0.54978  0.75257  0.35348  1.0000
  C   C32       1.0  0.45022  0.24744  0.64652  1.0000
  C   C33       1.0  0.77166  0.93843  0.52487  1.0000
  C   C34       1.0  0.22834  0.06157  0.47513  1.0000
  C   C35       1.0  0.70209  0.33544  0.54809  1.0000
  C   C36       1.0  0.29792  0.66456  0.45191  1.0000
  C   C37       1.0  0.11964  0.35235  0.97874  1.0000
  C   C38       1.0  0.88035  0.64765  0.02126  1.0000
  C   C39       1.0  0.30404  0.87045  0.05235  1.0000
  C   C40       1.0  0.69596  0.12955  0.94765  1.0000
  C   C41       1.0  0.83347  0.40876  0.60576  1.0000
  C   C42       1.0  0.16652  0.59124  0.39424  1.0000
  C   C43       1.0  0.54224  0.64739  0.26787  1.0000
  C   C44       1.0  0.45776  0.35261  0.73214  1.0000
  C   C45       1.0  0.44921  0.81600  0.33855  1.0000
  C   C46       1.0  0.55080  0.18400  0.66145  1.0000
  C   C47       1.0  0.76539  0.98302  0.45143  1.0000
  C   C48       1.0  0.23461  0.01698  0.54857  1.0000
  C   C49       1.0  0.86056  0.00033  0.63238  1.0000
  C   C50       1.0  0.13944  0.99967  0.36762  1.0000
  C   C51       1.0  0.43642  0.60583  0.16894  1.0000
  C   C52       1.0  0.56358  0.39417  0.83106  1.0000
  C   C53       1.0  0.34312  0.77383  0.23986  1.0000
  C   C54       1.0  0.65688  0.22617  0.76013  1.0000
  C   C55       1.0  0.84600  0.08806  0.48529  1.0000
  C   C56       1.0  0.15400  0.91194  0.51470  1.0000
  C   C57       1.0  0.94028  0.10526  0.66560  1.0000
  C   C58       1.0  0.05973  0.89474  0.33439  1.0000
  C   C59       1.0  0.33625  0.66867  0.15499  1.0000
  C   C60       1.0  0.66375  0.33133  0.84500  1.0000
  C   C61       1.0  0.93324  0.14932  0.59232  1.0000
  C   C62       1.0  0.06676  0.85068  0.40768  1.0000
  N   N1        1.0  0.82116  0.50585  0.20851  1.0000
  N   N2        1.0  0.17884  0.49415  0.79149  1.0000
  N   N3        1.0  0.95260  0.22562  0.28489  1.0000
  N   N4        1.0  0.04741  0.77438  0.71511  1.0000
  N   N5        1.0  0.47590  0.27797  0.40506  1.0000
  N   N6        1.0  0.52411  0.72203  0.59494  1.0000
  N   N7        1.0  0.77955  0.51387  0.51097  1.0000
  N   N8        1.0  0.22044  0.48613  0.48902  1.0000
  O   O1        1.0  0.81346  0.49698  0.29583  1.0000
  O   O2        1.0  0.18655  0.50302  0.70417  1.0000
  O   O3        1.0  0.76234  0.42293  0.11619  1.0000
  O   O4        1.0  0.23765  0.57707  0.88382  1.0000
  O   O5        1.0  0.87573  0.23000  0.20205  1.0000
  O   O6        1.0  0.12427  0.77000  0.79795  1.0000
  O   O7        1.0  0.07230  0.72409  0.62161  1.0000
  O   O8        1.0  0.92769  0.27591  0.37839  1.0000
  O   O9        1.0  0.88498  0.59457  0.21800  1.0000
  O   O10       1.0  0.11502  0.40543  0.78201  1.0000
  O   O11       1.0  0.05301  0.17259  0.27154  1.0000
  O   O12       1.0  0.94699  0.82742  0.72846  1.0000
