data_image0
_chemical_formula_structural       Tb2H18C22N4O14
_chemical_formula_sum              "Tb2 H18 C22 N4 O14"
_cell_length_a       7.35932
_cell_length_b       8.82025
_cell_length_c       9.57774
_cell_angle_alpha    85.9453
_cell_angle_beta     86.9178
_cell_angle_gamma    84.0148

_space_group_name_H-M_alt    "P 1"
_space_group_IT_number       1

loop_
  _space_group_symop_operation_xyz
  'x, y, z'

loop_
  _atom_site_type_symbol
  _atom_site_label
  _atom_site_symmetry_multiplicity
  _atom_site_fract_x
  _atom_site_fract_y
  _atom_site_fract_z
  _atom_site_occupancy
  Tb  Tb1       1.0  0.14371  0.13908  0.60228  1.0000
  Tb  Tb2       1.0  0.85629  0.86091  0.39772  1.0000
  H   H1        1.0  0.79314  0.22177  0.44962  1.0000
  H   H2        1.0  0.20685  0.77822  0.55038  1.0000
  H   H3        1.0  0.87465  0.38683  0.44300  1.0000
  H   H4        1.0  0.12534  0.61316  0.55701  1.0000
  H   H5        1.0  0.76441  0.27627  0.84303  1.0000
  H   H6        1.0  0.23559  0.72373  0.15698  1.0000
  H   H7        1.0  0.57422  0.26412  0.63486  1.0000
  H   H8        1.0  0.42579  0.73589  0.36514  1.0000
  H   H9        1.0  0.69656  0.21949  0.14980  1.0000
  H   H10       1.0  0.30344  0.78052  0.85019  1.0000
  H   H11       1.0  0.09738  0.09389  0.98610  1.0000
  H   H12       1.0  0.90262  0.90611  0.01390  1.0000
  H   H13       1.0  0.86008  0.63311  0.72988  1.0000
  H   H14       1.0  0.13992  0.36689  0.27013  1.0000
  H   H15       1.0  0.04725  0.62015  0.83969  1.0000
  H   H16       1.0  0.95276  0.37985  0.16031  1.0000
  H   H17       1.0  0.84841  0.52788  0.89580  1.0000
  H   H18       1.0  0.15160  0.47212  0.10421  1.0000
  C   C1        1.0  0.52466  0.24168  0.74224  1.0000
  C   C2        1.0  0.47535  0.75832  0.25775  1.0000
  C   C3        1.0  0.52528  0.21409  0.97260  1.0000
  C   C4        1.0  0.47471  0.78591  0.02740  1.0000
  C   C5        1.0  0.56411  0.19866  0.11384  1.0000
  C   C6        1.0  0.43588  0.80136  0.88616  1.0000
  C   C7        1.0  0.42991  0.14949  0.21048  1.0000
  C   C8        1.0  0.57008  0.85052  0.78951  1.0000
  C   C9        1.0  0.25860  0.11406  0.16413  1.0000
  C   C10       1.0  0.74140  0.88594  0.83587  1.0000
  C   C11       1.0  0.22469  0.12654  0.02108  1.0000
  C   C12       1.0  0.77532  0.87346  0.97891  1.0000
  C   C13       1.0  0.35779  0.17619  0.92488  1.0000
  C   C14       1.0  0.64220  0.82381  0.07512  1.0000
  C   C15       1.0  0.47923  0.14933  0.36077  1.0000
  C   C16       1.0  0.52077  0.85067  0.63922  1.0000
  C   C17       1.0  0.10928  0.05337  0.25690  1.0000
  C   C18       1.0  0.89072  0.94663  0.74311  1.0000
  C   C19       1.0  0.01894  0.41842  0.73359  1.0000
  C   C20       1.0  0.98106  0.58157  0.26642  1.0000
  C   C21       1.0  0.93859  0.55699  0.80545  1.0000
  C   C22       1.0  0.06141  0.44301  0.19456  1.0000
  N   N1        1.0  0.36270  0.19339  0.77892  1.0000
  N   N2        1.0  0.63730  0.80661  0.22108  1.0000
  N   N3        1.0  0.62611  0.25710  0.85380  1.0000
  N   N4        1.0  0.37389  0.74291  0.14620  1.0000
  O   O1        1.0  0.63849  0.09159  0.39377  1.0000
  O   O2        1.0  0.36151  0.90842  0.60623  1.0000
  O   O3        1.0  0.95830  0.03571  0.20520  1.0000
  O   O4        1.0  0.04171  0.96428  0.79480  1.0000
  O   O5        1.0  0.36640  0.21912  0.44594  1.0000
  O   O6        1.0  0.63360  0.78088  0.55406  1.0000
  O   O7        1.0  0.13224  0.01004  0.38730  1.0000
  O   O8        1.0  0.86777  0.98996  0.61270  1.0000
  O   O9        1.0  0.97418  0.28618  0.77863  1.0000
  O   O10       1.0  0.02581  0.71381  0.22137  1.0000
  O   O11       1.0  0.12871  0.43014  0.62677  1.0000
  O   O12       1.0  0.87128  0.56985  0.37323  1.0000
  O   O13       1.0  0.89094  0.27788  0.48153  1.0000
  O   O14       1.0  0.10906  0.72211  0.51847  1.0000
