data_image0
_chemical_formula_structural       Gd4Ag4H24C48N16O32
_chemical_formula_sum              "Gd4 Ag4 H24 C48 N16 O32"
_cell_length_a       8.05911
_cell_length_b       10.0808
_cell_length_c       18.5041
_cell_angle_alpha    90
_cell_angle_beta     89.9999
_cell_angle_gamma    95.6626

_space_group_name_H-M_alt    "P 1"
_space_group_IT_number       1

loop_
  _space_group_symop_operation_xyz
  'x, y, z'

loop_
  _atom_site_type_symbol
  _atom_site_label
  _atom_site_symmetry_multiplicity
  _atom_site_fract_x
  _atom_site_fract_y
  _atom_site_fract_z
  _atom_site_occupancy
  Gd  Gd1       1.0  0.25867  0.14376  0.10582  1.0000
  Gd  Gd2       1.0  0.24133  0.85624  0.60582  1.0000
  Gd  Gd3       1.0  0.74134  0.85624  0.89418  1.0000
  Gd  Gd4       1.0  0.75867  0.14375  0.39418  1.0000
  Ag  Ag1       1.0  0.60605  0.65122  0.07406  1.0000
  Ag  Ag2       1.0  0.89395  0.34877  0.57406  1.0000
  Ag  Ag3       1.0  0.39395  0.34877  0.92593  1.0000
  Ag  Ag4       1.0  0.10605  0.65122  0.42593  1.0000
  H   H1        1.0  0.61634  0.35182  0.08258  1.0000
  H   H2        1.0  0.88366  0.64818  0.58258  1.0000
  H   H3        1.0  0.38366  0.64818  0.91742  1.0000
  H   H4        1.0  0.11634  0.35182  0.41742  1.0000
  H   H5        1.0  0.81561  0.17456  0.09201  1.0000
  H   H6        1.0  0.68439  0.82544  0.59201  1.0000
  H   H7        1.0  0.18439  0.82544  0.90799  1.0000
  H   H8        1.0  0.31561  0.17457  0.40799  1.0000
  H   H9        1.0  0.01836  0.64515  0.08414  1.0000
  H   H10       1.0  0.48164  0.35485  0.58414  1.0000
  H   H11       1.0  0.98165  0.35485  0.91586  1.0000
  H   H12       1.0  0.51836  0.64515  0.41586  1.0000
  H   H13       1.0  0.80330  0.79471  0.35045  1.0000
  H   H14       1.0  0.69670  0.20529  0.85045  1.0000
  H   H15       1.0  0.19670  0.20529  0.64955  1.0000
  H   H16       1.0  0.30329  0.79471  0.14955  1.0000
  H   H17       1.0  0.76562  0.63892  0.24315  1.0000
  H   H18       1.0  0.73438  0.36108  0.74315  1.0000
  H   H19       1.0  0.23438  0.36109  0.75685  1.0000
  H   H20       1.0  0.26562  0.63892  0.25685  1.0000
  H   H21       1.0  0.61921  0.94911  0.11827  1.0000
  H   H22       1.0  0.88079  0.05089  0.61827  1.0000
  H   H23       1.0  0.38078  0.05089  0.88173  1.0000
  H   H24       1.0  0.11921  0.94911  0.38173  1.0000
  C   C1        1.0  0.75049  0.37736  0.08503  1.0000
  C   C2        1.0  0.74951  0.62264  0.58503  1.0000
  C   C3        1.0  0.24951  0.62264  0.91497  1.0000
  C   C4        1.0  0.25049  0.37736  0.41497  1.0000
  C   C5        1.0  0.86098  0.27972  0.09025  1.0000
  C   C6        1.0  0.63902  0.72028  0.59024  1.0000
  C   C7        1.0  0.13902  0.72028  0.90975  1.0000
  C   C8        1.0  0.36098  0.27972  0.40976  1.0000
  C   C9        1.0  0.08133  0.44149  0.09174  1.0000
  C   C10       1.0  0.41867  0.55851  0.59174  1.0000
  C   C11       1.0  0.91867  0.55851  0.90826  1.0000
  C   C12       1.0  0.58133  0.44149  0.40826  1.0000
  C   C13       1.0  0.97176  0.53995  0.08657  1.0000
  C   C14       1.0  0.52824  0.46005  0.58657  1.0000
  C   C15       1.0  0.02824  0.46005  0.91343  1.0000
  C   C16       1.0  0.47176  0.53995  0.41343  1.0000
  C   C17       1.0  0.26791  0.47360  0.09247  1.0000
  C   C18       1.0  0.23209  0.52639  0.59247  1.0000
  C   C19       1.0  0.73209  0.52640  0.90753  1.0000
  C   C20       1.0  0.76791  0.47360  0.40753  1.0000
  C   C21       1.0  0.66449  0.99566  0.23055  1.0000
  C   C22       1.0  0.83551  0.00434  0.73055  1.0000
  C   C23       1.0  0.33551  0.00434  0.76945  1.0000
  C   C24       1.0  0.16449  0.99566  0.26945  1.0000
  C   C25       1.0  0.76057  0.82864  0.29836  1.0000
  C   C26       1.0  0.73943  0.17136  0.79836  1.0000
  C   C27       1.0  0.23943  0.17136  0.70163  1.0000
  C   C28       1.0  0.26057  0.82864  0.20164  1.0000
  C   C29       1.0  0.74094  0.74319  0.23885  1.0000
  C   C30       1.0  0.75906  0.25680  0.73884  1.0000
  C   C31       1.0  0.25906  0.25681  0.76115  1.0000
  C   C32       1.0  0.24094  0.74320  0.26116  1.0000
  C   C33       1.0  0.65672  0.91259  0.17030  1.0000
  C   C34       1.0  0.84328  0.08742  0.67030  1.0000
  C   C35       1.0  0.34328  0.08742  0.82970  1.0000
  C   C36       1.0  0.15672  0.91259  0.32970  1.0000
  C   C37       1.0  0.60177  0.13201  0.22831  1.0000
  C   C38       1.0  0.89823  0.86799  0.72831  1.0000
  C   C39       1.0  0.39823  0.86799  0.77170  1.0000
  C   C40       1.0  0.10177  0.13201  0.27170  1.0000
  C   C41       1.0  0.45588  0.93169  0.01208  1.0000
  C   C42       1.0  0.04411  0.06831  0.51207  1.0000
  C   C43       1.0  0.54412  0.06831  0.98792  1.0000
  C   C44       1.0  0.95588  0.93169  0.48792  1.0000
  C   C45       1.0  0.95710  0.96128  0.03240  1.0000
  C   C46       1.0  0.54290  0.03872  0.53240  1.0000
  C   C47       1.0  0.04291  0.03872  0.96760  1.0000
  C   C48       1.0  0.45710  0.96128  0.46759  1.0000
  N   N1        1.0  0.02563  0.31117  0.09277  1.0000
  N   N2        1.0  0.47436  0.68883  0.59277  1.0000
  N   N3        1.0  0.97437  0.68883  0.90723  1.0000
  N   N4        1.0  0.52564  0.31117  0.40723  1.0000
  N   N5        1.0  0.80614  0.50737  0.08238  1.0000
  N   N6        1.0  0.69386  0.49263  0.58238  1.0000
  N   N7        1.0  0.19386  0.49263  0.91762  1.0000
  N   N8        1.0  0.30614  0.50737  0.41762  1.0000
  N   N9        1.0  0.72358  0.95525  0.29385  1.0000
  N   N10       1.0  0.77642  0.04475  0.79385  1.0000
  N   N11       1.0  0.27642  0.04474  0.70615  1.0000
  N   N12       1.0  0.22358  0.95526  0.20615  1.0000
  N   N13       1.0  0.69282  0.78615  0.17428  1.0000
  N   N14       1.0  0.80718  0.21385  0.67428  1.0000
  N   N15       1.0  0.30717  0.21385  0.82572  1.0000
  N   N16       1.0  0.19282  0.78615  0.32572  1.0000
  O   O1        1.0  0.35336  0.37359  0.09149  1.0000
  O   O2        1.0  0.14663  0.62640  0.59149  1.0000
  O   O3        1.0  0.64664  0.62641  0.90851  1.0000
  O   O4        1.0  0.85336  0.37359  0.40851  1.0000
  O   O5        1.0  0.32349  0.59493  0.09201  1.0000
  O   O6        1.0  0.17650  0.40507  0.59201  1.0000
  O   O7        1.0  0.67650  0.40507  0.90799  1.0000
  O   O8        1.0  0.82350  0.59493  0.40799  1.0000
  O   O9        1.0  0.64426  0.20919  0.28044  1.0000
  O   O10       1.0  0.85574  0.79081  0.78044  1.0000
  O   O11       1.0  0.35574  0.79081  0.71956  1.0000
  O   O12       1.0  0.14426  0.20919  0.21956  1.0000
  O   O13       1.0  0.51017  0.15670  0.17522  1.0000
  O   O14       1.0  0.98984  0.84331  0.67522  1.0000
  O   O15       1.0  0.48983  0.84330  0.82478  1.0000
  O   O16       1.0  0.01017  0.15670  0.32478  1.0000
  O   O17       1.0  0.51167  0.82893  0.98554  1.0000
  O   O18       1.0  0.98833  0.17107  0.48554  1.0000
  O   O19       1.0  0.48833  0.17107  0.01446  1.0000
  O   O20       1.0  0.01167  0.82893  0.51447  1.0000
  O   O21       1.0  0.33727  0.93445  0.05666  1.0000
  O   O22       1.0  0.16273  0.06555  0.55666  1.0000
  O   O23       1.0  0.66273  0.06555  0.94334  1.0000
  O   O24       1.0  0.83728  0.93445  0.44334  1.0000
  O   O25       1.0  0.99989  0.00181  0.09514  1.0000
  O   O26       1.0  0.50011  0.99818  0.59514  1.0000
  O   O27       1.0  0.00011  0.99819  0.90487  1.0000
  O   O28       1.0  0.49989  0.00182  0.40486  1.0000
  O   O29       1.0  0.84991  0.86508  0.01693  1.0000
  O   O30       1.0  0.65009  0.13491  0.51692  1.0000
  O   O31       1.0  0.15010  0.13491  0.98308  1.0000
  O   O32       1.0  0.34990  0.86508  0.48307  1.0000
