data_image0
_chemical_formula_structural       Ba2H40C36S4N16O18
_chemical_formula_sum              "Ba2 H40 C36 S4 N16 O18"
_cell_length_a       9.47549
_cell_length_b       10.0017
_cell_length_c       14.4179
_cell_angle_alpha    110.273
_cell_angle_beta     94.1097
_cell_angle_gamma    90.0115

_space_group_name_H-M_alt    "P 1"
_space_group_IT_number       1

loop_
  _space_group_symop_operation_xyz
  'x, y, z'

loop_
  _atom_site_type_symbol
  _atom_site_label
  _atom_site_symmetry_multiplicity
  _atom_site_fract_x
  _atom_site_fract_y
  _atom_site_fract_z
  _atom_site_occupancy
  Ba  Ba1       1.0  0.74995  0.95878  0.99999  1.0000
  Ba  Ba2       1.0  0.25004  0.04123  0.00001  1.0000
  H   H1        1.0  0.35871  0.96695  0.23192  1.0000
  H   H2        1.0  0.14138  0.73459  0.76820  1.0000
  H   H3        1.0  0.64128  0.03306  0.76809  1.0000
  H   H4        1.0  0.85861  0.26539  0.23180  1.0000
  H   H5        1.0  0.92018  0.68284  0.85280  1.0000
  H   H6        1.0  0.57964  0.82998  0.14713  1.0000
  H   H7        1.0  0.07979  0.31716  0.14718  1.0000
  H   H8        1.0  0.42033  0.17002  0.85286  1.0000
  H   H9        1.0  0.79493  0.58904  0.86405  1.0000
  H   H10       1.0  0.70498  0.72511  0.13605  1.0000
  H   H11       1.0  0.20504  0.41095  0.13593  1.0000
  H   H12       1.0  0.29499  0.27489  0.86393  1.0000
  H   H13       1.0  0.72129  0.33685  0.05201  1.0000
  H   H14       1.0  0.77894  0.28433  0.94702  1.0000
  H   H15       1.0  0.27876  0.66318  0.94804  1.0000
  H   H16       1.0  0.22109  0.71573  0.05303  1.0000
  H   H17       1.0  0.33547  0.14213  0.38650  1.0000
  H   H18       1.0  0.16464  0.75585  0.61373  1.0000
  H   H19       1.0  0.66454  0.85789  0.61350  1.0000
  H   H20       1.0  0.83536  0.24414  0.38627  1.0000
  H   H21       1.0  0.45078  0.27248  0.55427  1.0000
  H   H22       1.0  0.04940  0.71873  0.44596  1.0000
  H   H23       1.0  0.54923  0.72754  0.44573  1.0000
  H   H24       1.0  0.95061  0.28127  0.55404  1.0000
  H   H25       1.0  0.82849  0.03271  0.47263  1.0000
  H   H26       1.0  0.67182  0.55971  0.52727  1.0000
  H   H27       1.0  0.17150  0.96727  0.52737  1.0000
  H   H28       1.0  0.32818  0.44028  0.47272  1.0000
  H   H29       1.0  0.71246  0.90104  0.30900  1.0000
  H   H30       1.0  0.78781  0.59114  0.69082  1.0000
  H   H31       1.0  0.28753  0.09895  0.69101  1.0000
  H   H32       1.0  0.21218  0.40884  0.30917  1.0000
  H   H33       1.0  0.09019  0.98396  0.73459  1.0000
  H   H34       1.0  0.40995  0.24948  0.26546  1.0000
  H   H35       1.0  0.90982  0.01604  0.26541  1.0000
  H   H36       1.0  0.59004  0.75052  0.73454  1.0000
  H   H37       1.0  0.04046  0.16327  0.79058  1.0000
  H   H38       1.0  0.45951  0.37298  0.20954  1.0000
  H   H39       1.0  0.95954  0.83673  0.20942  1.0000
  H   H40       1.0  0.54048  0.62702  0.79046  1.0000
  C   C1        1.0  0.51624  0.01201  0.33650  1.0000
  C   C2        1.0  0.98398  0.67511  0.66353  1.0000
  C   C3        1.0  0.48377  0.98799  0.66350  1.0000
  C   C4        1.0  0.01602  0.32487  0.33646  1.0000
  C   C5        1.0  0.44386  0.11943  0.40563  1.0000
  C   C6        1.0  0.05627  0.71386  0.59451  1.0000
  C   C7        1.0  0.55614  0.88058  0.59437  1.0000
  C   C8        1.0  0.94373  0.28613  0.40549  1.0000
  C   C9        1.0  0.50779  0.19227  0.49960  1.0000
  C   C10       1.0  0.99236  0.69289  0.50054  1.0000
  C   C11       1.0  0.49222  0.80774  0.50040  1.0000
  C   C12       1.0  0.00764  0.30711  0.49946  1.0000
  C   C13       1.0  0.64570  0.16124  0.52555  1.0000
  C   C14       1.0  0.85453  0.63566  0.47450  1.0000
  C   C15       1.0  0.35430  0.83876  0.47445  1.0000
  C   C16       1.0  0.14547  0.36433  0.52549  1.0000
  C   C17       1.0  0.71989  0.05747  0.45579  1.0000
  C   C18       1.0  0.78040  0.60132  0.54417  1.0000
  C   C19       1.0  0.28011  0.94252  0.54420  1.0000
  C   C20       1.0  0.21960  0.39866  0.45583  1.0000
  C   C21       1.0  0.65534  0.98320  0.36237  1.0000
  C   C22       1.0  0.84498  0.62021  0.63755  1.0000
  C   C23       1.0  0.34466  0.01680  0.63763  1.0000
  C   C24       1.0  0.15502  0.37978  0.36244  1.0000
  C   C25       1.0  0.99926  0.05360  0.75364  1.0000
  C   C26       1.0  0.50087  0.30017  0.24640  1.0000
  C   C27       1.0  0.00074  0.94640  0.24635  1.0000
  C   C28       1.0  0.49913  0.69983  0.75360  1.0000
  C   C29       1.0  0.91436  0.00945  0.82489  1.0000
  C   C30       1.0  0.58567  0.18499  0.17505  1.0000
  C   C31       1.0  0.08564  0.99054  0.17511  1.0000
  C   C32       1.0  0.41432  0.81501  0.82495  1.0000
  C   C33       1.0  0.80865  0.19207  0.67953  1.0000
  C   C34       1.0  0.69141  0.51279  0.32061  1.0000
  C   C35       1.0  0.19136  0.80794  0.32047  1.0000
  C   C36       1.0  0.30859  0.48720  0.67939  1.0000
  S   S1        1.0  0.90562  0.03956  0.63777  1.0000
  S   S2        1.0  0.59448  0.40183  0.36229  1.0000
  S   S3        1.0  0.09439  0.96044  0.36223  1.0000
  S   S4        1.0  0.40552  0.59816  0.63770  1.0000
  N   N1        1.0  0.70599  0.23260  0.62378  1.0000
  N   N2        1.0  0.79418  0.60900  0.37630  1.0000
  N   N3        1.0  0.29402  0.76740  0.37622  1.0000
  N   N4        1.0  0.20582  0.39100  0.62369  1.0000
  N   N5        1.0  0.65501  0.35928  0.68252  1.0000
  N   N6        1.0  0.84507  0.67703  0.31755  1.0000
  N   N7        1.0  0.34500  0.64073  0.31748  1.0000
  N   N8        1.0  0.15493  0.32296  0.68244  1.0000
  N   N9        1.0  0.72424  0.39075  0.76875  1.0000
  N   N10       1.0  0.77567  0.62241  0.23137  1.0000
  N   N11       1.0  0.27577  0.60925  0.23125  1.0000
  N   N12       1.0  0.22433  0.37758  0.76863  1.0000
  N   N13       1.0  0.81981  0.29090  0.77073  1.0000
  N   N14       1.0  0.68010  0.52059  0.22944  1.0000
  N   N15       1.0  0.18019  0.70910  0.22927  1.0000
  N   N16       1.0  0.31990  0.47940  0.77055  1.0000
  O   O1        1.0  0.78295  0.97662  0.80623  1.0000
  O   O2        1.0  0.71709  0.17076  0.19361  1.0000
  O   O3        1.0  0.21704  0.02339  0.19377  1.0000
  O   O4        1.0  0.28289  0.82921  0.80640  1.0000
  O   O5        1.0  0.98503  0.00820  0.90230  1.0000
  O   O6        1.0  0.51497  0.10652  0.09760  1.0000
  O   O7        1.0  0.01498  0.99178  0.09769  1.0000
  O   O8        1.0  0.48502  0.89350  0.90238  1.0000
  O   O9        1.0  0.45622  0.93299  0.24573  1.0000
  O   O10       1.0  0.04395  0.68662  0.75429  1.0000
  O   O11       1.0  0.54377  0.06702  0.75428  1.0000
  O   O12       1.0  0.95604  0.31337  0.24571  1.0000
  O   O13       1.0  0.83914  0.68492  0.89225  1.0000
  O   O14       1.0  0.66067  0.79259  0.10769  1.0000
  O   O15       1.0  0.16083  0.31507  0.10774  1.0000
  O   O16       1.0  0.33930  0.20741  0.89229  1.0000
  O   O17       1.0  0.75008  0.25203  0.99954  1.0000
  O   O18       1.0  0.25003  0.74802  0.00052  1.0000
