data_image0
_chemical_formula_structural       K4H8C16N12O4
_chemical_formula_sum              "K4 H8 C16 N12 O4"
_cell_length_a       3.84729
_cell_length_b       8.30006
_cell_length_c       18.9867
_cell_angle_alpha    93.701
_cell_angle_beta     89.9999
_cell_angle_gamma    90.0003

_space_group_name_H-M_alt    "P 1"
_space_group_IT_number       1

loop_
  _space_group_symop_operation_xyz
  'x, y, z'

loop_
  _atom_site_type_symbol
  _atom_site_label
  _atom_site_symmetry_multiplicity
  _atom_site_fract_x
  _atom_site_fract_y
  _atom_site_fract_z
  _atom_site_occupancy
  K   K1        1.0  0.17278  0.33836  0.90301  1.0000
  K   K2        1.0  0.32722  0.33836  0.40301  1.0000
  K   K3        1.0  0.82722  0.66164  0.09699  1.0000
  K   K4        1.0  0.67276  0.66165  0.59698  1.0000
  H   H1        1.0  0.01014  0.61766  0.73407  1.0000
  H   H2        1.0  0.48986  0.61766  0.23407  1.0000
  H   H3        1.0  0.98986  0.38234  0.26593  1.0000
  H   H4        1.0  0.51014  0.38234  0.76592  1.0000
  H   H5        1.0  0.93763  0.82153  0.75672  1.0000
  H   H6        1.0  0.56237  0.82153  0.25672  1.0000
  H   H7        1.0  0.06236  0.17846  0.24329  1.0000
  H   H8        1.0  0.43762  0.17846  0.74328  1.0000
  C   C1        1.0  0.43239  0.74344  0.93574  1.0000
  C   C2        1.0  0.06763  0.74344  0.43574  1.0000
  C   C3        1.0  0.56761  0.25656  0.06427  1.0000
  C   C4        1.0  0.93237  0.25658  0.56426  1.0000
  C   C5        1.0  0.63306  0.95334  0.86289  1.0000
  C   C6        1.0  0.86696  0.95334  0.36289  1.0000
  C   C7        1.0  0.36695  0.04665  0.13711  1.0000
  C   C8        1.0  0.13303  0.04667  0.63711  1.0000
  C   C9        1.0  0.59135  0.79026  0.87416  1.0000
  C   C10       1.0  0.90866  0.79027  0.37416  1.0000
  C   C11       1.0  0.40866  0.20973  0.12584  1.0000
  C   C12       1.0  0.09133  0.20974  0.62583  1.0000
  C   C13       1.0  0.72188  0.66354  0.82463  1.0000
  C   C14       1.0  0.77814  0.66354  0.32463  1.0000
  C   C15       1.0  0.27813  0.33646  0.17538  1.0000
  C   C16       1.0  0.22187  0.33646  0.67537  1.0000
  N   N1        1.0  0.30295  0.69841  0.98707  1.0000
  N   N2        1.0  0.19706  0.69841  0.48706  1.0000
  N   N3        1.0  0.69705  0.30159  0.01293  1.0000
  N   N4        1.0  0.80293  0.30161  0.51294  1.0000
  N   N5        1.0  0.67450  0.08957  0.85084  1.0000
  N   N6        1.0  0.82551  0.08958  0.35085  1.0000
  N   N7        1.0  0.32551  0.91043  0.14916  1.0000
  N   N8        1.0  0.17448  0.91043  0.64915  1.0000
  N   N9        1.0  0.88218  0.70493  0.76539  1.0000
  N   N10       1.0  0.61783  0.70493  0.26539  1.0000
  N   N11       1.0  0.11782  0.29506  0.23462  1.0000
  N   N12       1.0  0.38217  0.29507  0.73461  1.0000
  O   O1        1.0  0.68232  0.51586  0.83717  1.0000
  O   O2        1.0  0.81769  0.51586  0.33717  1.0000
  O   O3        1.0  0.31769  0.48414  0.16283  1.0000
  O   O4        1.0  0.18232  0.48414  0.66283  1.0000
