data_image0
_chemical_formula_structural       Cu2H16C14I2N4O2
_chemical_formula_sum              "Cu2 H16 C14 I2 N4 O2"
_cell_length_a       7.34422
_cell_length_b       7.9782
_cell_length_c       8.83161
_cell_angle_alpha    111.446
_cell_angle_beta     100.405
_cell_angle_gamma    107.855

_space_group_name_H-M_alt    "P 1"
_space_group_IT_number       1

loop_
  _space_group_symop_operation_xyz
  'x, y, z'

loop_
  _atom_site_type_symbol
  _atom_site_label
  _atom_site_symmetry_multiplicity
  _atom_site_fract_x
  _atom_site_fract_y
  _atom_site_fract_z
  _atom_site_occupancy
  Cu  Cu1       1.0  0.68813  0.57192  0.47252  1.0000
  Cu  Cu2       1.0  0.31187  0.42808  0.52748  1.0000
  H   H1        1.0  0.39999  0.13585  0.53704  1.0000
  H   H2        1.0  0.60001  0.86415  0.46296  1.0000
  H   H3        1.0  0.88752  0.30542  0.47850  1.0000
  H   H4        1.0  0.11248  0.69459  0.52150  1.0000
  H   H5        1.0  0.59909  0.40414  0.09072  1.0000
  H   H6        1.0  0.40090  0.59586  0.90927  1.0000
  H   H7        1.0  0.64124  0.13451  0.86400  1.0000
  H   H8        1.0  0.35875  0.86548  0.13599  1.0000
  H   H9        1.0  0.81023  0.93901  0.95099  1.0000
  H   H10       1.0  0.18978  0.06099  0.04901  1.0000
  H   H11       1.0  0.02396  0.74433  0.22617  1.0000
  H   H12       1.0  0.97604  0.25568  0.77383  1.0000
  H   H13       1.0  0.82979  0.73574  0.06480  1.0000
  H   H14       1.0  0.17021  0.26427  0.93520  1.0000
  H   H15       1.0  0.79284  0.74719  0.25985  1.0000
  H   H16       1.0  0.20717  0.25281  0.74014  1.0000
  C   C1        1.0  0.87477  0.11666  0.22395  1.0000
  C   C2        1.0  0.12524  0.88334  0.77606  1.0000
  C   C3        1.0  0.84062  0.26760  0.34176  1.0000
  C   C4        1.0  0.15937  0.73239  0.65823  1.0000
  C   C5        1.0  0.67660  0.31978  0.12477  1.0000
  C   C6        1.0  0.32339  0.68021  0.87522  1.0000
  C   C7        1.0  0.69958  0.16855  0.99904  1.0000
  C   C8        1.0  0.30042  0.83145  0.00096  1.0000
  C   C9        1.0  0.79548  0.06177  0.04796  1.0000
  C   C10       1.0  0.20451  0.93823  0.95203  1.0000
  C   C11       1.0  0.99167  0.01892  0.28409  1.0000
  C   C12       1.0  0.00833  0.98108  0.71592  1.0000
  C   C13       1.0  0.90769  0.79976  0.20387  1.0000
  C   C14       1.0  0.09231  0.20024  0.79613  1.0000
  I   I1        1.0  0.66729  0.45165  0.71528  1.0000
  I   I2        1.0  0.33271  0.54836  0.28473  1.0000
  N   N1        1.0  0.74129  0.36662  0.29427  1.0000
  N   N2        1.0  0.25870  0.63338  0.70573  1.0000
  N   N3        1.0  0.16551  0.13394  0.40589  1.0000
  N   N4        1.0  0.83449  0.86606  0.59411  1.0000
  O   O1        1.0  0.26513  0.02877  0.45598  1.0000
  O   O2        1.0  0.73487  0.97123  0.54402  1.0000
