data_image0
_chemical_formula_structural       Co2H22C30N4O10
_chemical_formula_sum              "Co2 H22 C30 N4 O10"
_cell_length_a       7.59332
_cell_length_b       8.91458
_cell_length_c       10.6111
_cell_angle_alpha    79.7084
_cell_angle_beta     72.2946
_cell_angle_gamma    76.7545

_space_group_name_H-M_alt    "P 1"
_space_group_IT_number       1

loop_
  _space_group_symop_operation_xyz
  'x, y, z'

loop_
  _atom_site_type_symbol
  _atom_site_label
  _atom_site_symmetry_multiplicity
  _atom_site_fract_x
  _atom_site_fract_y
  _atom_site_fract_z
  _atom_site_occupancy
  Co  Co1       1.0  0.17797  0.13608  0.27502  1.0000
  Co  Co2       1.0  0.82202  0.86392  0.72498  1.0000
  H   H1        1.0  0.22056  0.91274  0.47931  1.0000
  H   H2        1.0  0.77944  0.08726  0.52068  1.0000
  H   H3        1.0  0.39803  0.00573  0.41303  1.0000
  H   H4        1.0  0.60195  0.99427  0.58696  1.0000
  H   H5        1.0  0.82185  0.51034  0.50239  1.0000
  H   H6        1.0  0.17815  0.48965  0.49760  1.0000
  H   H7        1.0  0.00128  0.83495  0.37645  1.0000
  H   H8        1.0  0.99871  0.16506  0.62355  1.0000
  H   H9        1.0  0.98071  0.60875  0.27197  1.0000
  H   H10       1.0  0.01929  0.39126  0.72803  1.0000
  H   H11       1.0  0.09645  0.61549  0.02355  1.0000
  H   H12       1.0  0.90355  0.38451  0.97645  1.0000
  H   H13       1.0  0.24503  0.83529  0.88990  1.0000
  H   H14       1.0  0.75497  0.16471  0.11010  1.0000
  H   H15       1.0  0.36419  0.03186  0.79257  1.0000
  H   H16       1.0  0.63581  0.96814  0.20743  1.0000
  H   H17       1.0  0.48209  0.27725  0.69665  1.0000
  H   H18       1.0  0.51791  0.72275  0.30335  1.0000
  H   H19       1.0  0.45935  0.47056  0.84962  1.0000
  H   H20       1.0  0.54065  0.52945  0.15039  1.0000
  H   H21       1.0  0.33602  0.39839  0.09720  1.0000
  H   H22       1.0  0.66399  0.60160  0.90281  1.0000
  C   C1        1.0  0.68075  0.50397  0.50096  1.0000
  C   C2        1.0  0.31925  0.49604  0.49902  1.0000
  C   C3        1.0  0.65510  0.39757  0.42911  1.0000
  C   C4        1.0  0.34490  0.60243  0.57088  1.0000
  C   C5        1.0  0.47094  0.39287  0.42923  1.0000
  C   C6        1.0  0.52906  0.60713  0.57076  1.0000
  C   C7        1.0  0.43201  0.27077  0.36587  1.0000
  C   C8        1.0  0.56798  0.72923  0.63413  1.0000
  C   C9        1.0  0.83007  0.30573  0.34527  1.0000
  C   C10       1.0  0.16994  0.69426  0.65472  1.0000
  C   C11       1.0  0.05425  0.83007  0.26917  1.0000
  C   C12       1.0  0.94574  0.16994  0.73083  1.0000
  C   C13       1.0  0.04348  0.70517  0.21130  1.0000
  C   C14       1.0  0.95652  0.29483  0.78870  1.0000
  C   C15       1.0  0.11009  0.70759  0.07304  1.0000
  C   C16       1.0  0.88991  0.29241  0.92696  1.0000
  C   C17       1.0  0.19152  0.83142  0.99787  1.0000
  C   C18       1.0  0.80848  0.16858  0.00213  1.0000
  C   C19       1.0  0.20060  0.95152  0.06330  1.0000
  C   C20       1.0  0.79940  0.04848  0.93669  1.0000
  C   C21       1.0  0.28360  0.08793  0.99495  1.0000
  C   C22       1.0  0.71640  0.91208  0.00505  1.0000
  C   C23       1.0  0.35765  0.11631  0.85724  1.0000
  C   C24       1.0  0.64235  0.88370  0.14276  1.0000
  C   C25       1.0  0.42298  0.25421  0.80372  1.0000
  C   C26       1.0  0.57702  0.74580  0.19628  1.0000
  C   C27       1.0  0.41299  0.36045  0.88859  1.0000
  C   C28       1.0  0.58701  0.63955  0.11141  1.0000
  C   C29       1.0  0.34406  0.32240  0.02505  1.0000
  C   C30       1.0  0.65595  0.67760  0.97495  1.0000
  N   N1        1.0  0.12909  0.95168  0.19693  1.0000
  N   N2        1.0  0.87090  0.04832  0.80307  1.0000
  N   N3        1.0  0.28178  0.18904  0.07698  1.0000
  N   N4        1.0  0.71822  0.81096  0.92302  1.0000
  O   O1        1.0  0.29776  0.96584  0.39559  1.0000
  O   O2        1.0  0.70223  0.03415  0.60441  1.0000
  O   O3        1.0  0.91316  0.17901  0.40119  1.0000
  O   O4        1.0  0.08683  0.82098  0.59882  1.0000
  O   O5        1.0  0.90004  0.36131  0.22867  1.0000
  O   O6        1.0  0.10000  0.63869  0.77133  1.0000
  O   O7        1.0  0.55089  0.14528  0.35340  1.0000
  O   O8        1.0  0.44909  0.85471  0.64662  1.0000
  O   O9        1.0  0.27599  0.30106  0.33407  1.0000
  O   O10       1.0  0.72402  0.69893  0.66593  1.0000
