data_image0
_chemical_formula_structural       Co2H22C30N4O10
_chemical_formula_sum              "Co2 H22 C30 N4 O10"
_cell_length_a       7.55998
_cell_length_b       8.91749
_cell_length_c       10.6203
_cell_angle_alpha    79.6323
_cell_angle_beta     72.9228
_cell_angle_gamma    76.4869

_space_group_name_H-M_alt    "P 1"
_space_group_IT_number       1

loop_
  _space_group_symop_operation_xyz
  'x, y, z'

loop_
  _atom_site_type_symbol
  _atom_site_label
  _atom_site_symmetry_multiplicity
  _atom_site_fract_x
  _atom_site_fract_y
  _atom_site_fract_z
  _atom_site_occupancy
  Co  Co1       1.0  0.82852  0.36120  0.22650  1.0000
  Co  Co2       1.0  0.17150  0.63879  0.77350  1.0000
  H   H1        1.0  0.66511  0.10194  0.40352  1.0000
  H   H2        1.0  0.33487  0.89807  0.59648  1.0000
  H   H3        1.0  0.54104  0.03111  0.64991  1.0000
  H   H4        1.0  0.45897  0.96890  0.35010  1.0000
  H   H5        1.0  0.52012  0.22444  0.80200  1.0000
  H   H6        1.0  0.47990  0.77557  0.19801  1.0000
  H   H7        1.0  0.63843  0.46900  0.70625  1.0000
  H   H8        1.0  0.36158  0.53101  0.29375  1.0000
  H   H9        1.0  0.75446  0.66602  0.60922  1.0000
  H   H10       1.0  0.24553  0.33398  0.39078  1.0000
  H   H11       1.0  0.89923  0.88682  0.47592  1.0000
  H   H12       1.0  0.10078  0.11317  0.52407  1.0000
  H   H13       1.0  0.01313  0.89330  0.22858  1.0000
  H   H14       1.0  0.98688  0.10669  0.77141  1.0000
  H   H15       1.0  0.99793  0.66440  0.12530  1.0000
  H   H16       1.0  0.00207  0.33561  0.87469  1.0000
  H   H17       1.0  0.82394  0.00458  0.00476  1.0000
  H   H18       1.0  0.17606  0.99540  0.99525  1.0000
  H   H19       1.0  0.77304  0.58239  0.02481  1.0000
  H   H20       1.0  0.22698  0.41758  0.97517  1.0000
  H   H21       1.0  0.59689  0.48861  0.09472  1.0000
  H   H22       1.0  0.40313  0.51138  0.90529  1.0000
  C   C1        1.0  0.65780  0.17790  0.47529  1.0000
  C   C2        1.0  0.34219  0.82211  0.52472  1.0000
  C   C3        1.0  0.58847  0.14061  0.61112  1.0000
  C   C4        1.0  0.41152  0.85941  0.38890  1.0000
  C   C5        1.0  0.57935  0.24683  0.69551  1.0000
  C   C6        1.0  0.42066  0.75318  0.30450  1.0000
  C   C7        1.0  0.64483  0.38429  0.64206  1.0000
  C   C8        1.0  0.35517  0.61572  0.35794  1.0000
  C   C9        1.0  0.71891  0.41197  0.50505  1.0000
  C   C10       1.0  0.28107  0.58803  0.49495  1.0000
  C   C11       1.0  0.80076  0.54841  0.43695  1.0000
  C   C12       1.0  0.19925  0.45159  0.56305  1.0000
  C   C13       1.0  0.80777  0.66964  0.50176  1.0000
  C   C14       1.0  0.19223  0.33038  0.49824  1.0000
  C   C15       1.0  0.88686  0.79404  0.42675  1.0000
  C   C16       1.0  0.11316  0.20597  0.57324  1.0000
  C   C17       1.0  0.95271  0.79622  0.28916  1.0000
  C   C18       1.0  0.04729  0.20379  0.71084  1.0000
  C   C19       1.0  0.94475  0.66994  0.23196  1.0000
  C   C20       1.0  0.05525  0.33007  0.76804  1.0000
  C   C21       1.0  0.57183  0.22575  0.13575  1.0000
  C   C22       1.0  0.42816  0.77423  0.86426  1.0000
  C   C23       1.0  0.53136  0.10528  0.07143  1.0000
  C   C24       1.0  0.46862  0.89471  0.92858  1.0000
  C   C25       1.0  0.34617  0.10374  0.07002  1.0000
  C   C26       1.0  0.65382  0.89626  0.92998  1.0000
  C   C27       1.0  0.68184  0.00096  0.00232  1.0000
  C   C28       1.0  0.31814  0.99904  0.99769  1.0000
  C   C29       1.0  0.17181  0.19876  0.15083  1.0000
  C   C30       1.0  0.82816  0.80125  0.84915  1.0000
  N   N1        1.0  0.87283  0.54751  0.30414  1.0000
  N   N2        1.0  0.12717  0.45249  0.69585  1.0000
  N   N3        1.0  0.72075  0.31058  0.42345  1.0000
  N   N4        1.0  0.27924  0.68943  0.57655  1.0000
  O   O1        1.0  0.73025  0.19575  0.16575  1.0000
  O   O2        1.0  0.26974  0.80422  0.83428  1.0000
  O   O3        1.0  0.45009  0.35013  0.15098  1.0000
  O   O4        1.0  0.54992  0.64984  0.84904  1.0000
  O   O5        1.0  0.09702  0.14433  0.26639  1.0000
  O   O6        1.0  0.90294  0.85570  0.73359  1.0000
  O   O7        1.0  0.09115  0.32694  0.09426  1.0000
  O   O8        1.0  0.90885  0.67307  0.90570  1.0000
  O   O9        1.0  0.69687  0.53226  0.10965  1.0000
  O   O10       1.0  0.30317  0.46773  0.89034  1.0000
