data_image0
_chemical_formula_structural       Cu2H32C34N8O8
_chemical_formula_sum              "Cu2 H32 C34 N8 O8"
_cell_length_a       8.89819
_cell_length_b       10.13
_cell_length_c       11.5707
_cell_angle_alpha    84.3145
_cell_angle_beta     88.9075
_cell_angle_gamma    76.3535

_space_group_name_H-M_alt    "P 1"
_space_group_IT_number       1

loop_
  _space_group_symop_operation_xyz
  'x, y, z'

loop_
  _atom_site_type_symbol
  _atom_site_label
  _atom_site_symmetry_multiplicity
  _atom_site_fract_x
  _atom_site_fract_y
  _atom_site_fract_z
  _atom_site_occupancy
  Cu  Cu1       1.0  0.67571  0.37005  0.20834  1.0000
  Cu  Cu2       1.0  0.32429  0.62995  0.79166  1.0000
  H   H1        1.0  0.26638  0.16688  0.09051  1.0000
  H   H2        1.0  0.73362  0.83312  0.90950  1.0000
  H   H3        1.0  0.17700  0.95786  0.05220  1.0000
  H   H4        1.0  0.82299  0.04214  0.94780  1.0000
  H   H5        1.0  0.34970  0.72817  0.10182  1.0000
  H   H6        1.0  0.65030  0.27184  0.89817  1.0000
  H   H7        1.0  0.69592  0.91277  0.22571  1.0000
  H   H8        1.0  0.30407  0.08723  0.77430  1.0000
  H   H9        1.0  0.95205  0.17559  0.09219  1.0000
  H   H10       1.0  0.04795  0.82440  0.90781  1.0000
  H   H11       1.0  0.07760  0.26456  0.88166  1.0000
  H   H12       1.0  0.92240  0.73544  0.11834  1.0000
  H   H13       1.0  0.68587  0.56566  0.96740  1.0000
  H   H14       1.0  0.31412  0.43434  0.03260  1.0000
  H   H15       1.0  0.03172  0.53487  0.79325  1.0000
  H   H16       1.0  0.96828  0.46513  0.20676  1.0000
  H   H17       1.0  0.83210  0.62453  0.79667  1.0000
  H   H18       1.0  0.16790  0.37547  0.20333  1.0000
  H   H19       1.0  0.93595  0.51709  0.60777  1.0000
  H   H20       1.0  0.06405  0.48291  0.39223  1.0000
  H   H21       1.0  0.94919  0.35614  0.68532  1.0000
  H   H22       1.0  0.05081  0.64386  0.31468  1.0000
  H   H23       1.0  0.65611  0.43676  0.73262  1.0000
  H   H24       1.0  0.34390  0.56324  0.26738  1.0000
  H   H25       1.0  0.65328  0.58443  0.63897  1.0000
  H   H26       1.0  0.34672  0.41557  0.36103  1.0000
  H   H27       1.0  0.71526  0.54767  0.41293  1.0000
  H   H28       1.0  0.28474  0.45233  0.58707  1.0000
  H   H29       1.0  0.65379  0.21611  0.64842  1.0000
  H   H30       1.0  0.34621  0.78389  0.35158  1.0000
  H   H31       1.0  0.63522  0.15269  0.42024  1.0000
  H   H32       1.0  0.36478  0.84731  0.57975  1.0000
  C   C1        1.0  0.53844  0.17925  0.17752  1.0000
  C   C2        1.0  0.46156  0.82075  0.82249  1.0000
  C   C3        1.0  0.48622  0.05272  0.15987  1.0000
  C   C4        1.0  0.51378  0.94727  0.84014  1.0000
  C   C5        1.0  0.33917  0.06500  0.11230  1.0000
  C   C6        1.0  0.66082  0.93500  0.88770  1.0000
  C   C7        1.0  0.28965  0.94874  0.09170  1.0000
  C   C8        1.0  0.71035  0.05126  0.90830  1.0000
  C   C9        1.0  0.38570  0.81965  0.11951  1.0000
  C   C10       1.0  0.61430  0.18035  0.88049  1.0000
  C   C11       1.0  0.53181  0.80615  0.16920  1.0000
  C   C12       1.0  0.46819  0.19385  0.83080  1.0000
  C   C13       1.0  0.58178  0.92313  0.18842  1.0000
  C   C14       1.0  0.41822  0.07687  0.81159  1.0000
  C   C15       1.0  0.63479  0.66766  0.20385  1.0000
  C   C16       1.0  0.36521  0.33233  0.79615  1.0000
  C   C17       1.0  0.91690  0.26938  0.03551  1.0000
  C   C18       1.0  0.08310  0.73062  0.96449  1.0000
  C   C19       1.0  0.97858  0.31053  0.93228  1.0000
  C   C20       1.0  0.02142  0.68948  0.06772  1.0000
  C   C21       1.0  0.77569  0.47185  0.97660  1.0000
  C   C22       1.0  0.22431  0.52815  0.02340  1.0000
  C   C23       1.0  0.91198  0.52459  0.79137  1.0000
  C   C24       1.0  0.08802  0.47541  0.20863  1.0000
  C   C25       1.0  0.88529  0.46357  0.68025  1.0000
  C   C26       1.0  0.11471  0.53643  0.31975  1.0000
  C   C27       1.0  0.71386  0.47690  0.65720  1.0000
  C   C28       1.0  0.28614  0.52310  0.34280  1.0000
  C   C29       1.0  0.69427  0.44930  0.44546  1.0000
  C   C30       1.0  0.30573  0.55070  0.55455  1.0000
  C   C31       1.0  0.66328  0.27387  0.56575  1.0000
  C   C32       1.0  0.33672  0.72613  0.43425  1.0000
  C   C33       1.0  0.65330  0.24413  0.45329  1.0000
  C   C34       1.0  0.34670  0.75587  0.54671  1.0000
  N   N1        1.0  0.79104  0.37100  0.06223  1.0000
  N   N2        1.0  0.20896  0.62900  0.93777  1.0000
  N   N3        1.0  0.88770  0.43853  0.89636  1.0000
  N   N4        1.0  0.11230  0.56147  0.10364  1.0000
  N   N5        1.0  0.67286  0.35443  0.37910  1.0000
  N   N6        1.0  0.32714  0.64557  0.62090  1.0000
  N   N7        1.0  0.68875  0.40384  0.55914  1.0000
  N   N8        1.0  0.31125  0.59616  0.44086  1.0000
  O   O1        1.0  0.68165  0.16679  0.20545  1.0000
  O   O2        1.0  0.31835  0.83321  0.79455  1.0000
  O   O3        1.0  0.44351  0.29408  0.16508  1.0000
  O   O4        1.0  0.55649  0.70592  0.83493  1.0000
  O   O5        1.0  0.76376  0.65787  0.24983  1.0000
  O   O6        1.0  0.23625  0.34212  0.75016  1.0000
  O   O7        1.0  0.57661  0.56624  0.18376  1.0000
  O   O8        1.0  0.42338  0.43376  0.81623  1.0000
