data_image0
_chemical_formula_structural       Ag4H52C36N4O8
_chemical_formula_sum              "Ag4 H52 C36 N4 O8"
_cell_length_a       6.71733
_cell_length_b       9.86449
_cell_length_c       15.1447
_cell_angle_alpha    90.0005
_cell_angle_beta     90.0005
_cell_angle_gamma    103.532

_space_group_name_H-M_alt    "P 1"
_space_group_IT_number       1

loop_
  _space_group_symop_operation_xyz
  'x, y, z'

loop_
  _atom_site_type_symbol
  _atom_site_label
  _atom_site_symmetry_multiplicity
  _atom_site_fract_x
  _atom_site_fract_y
  _atom_site_fract_z
  _atom_site_occupancy
  Ag  Ag1       1.0  0.88588  0.56271  0.97278  1.0000
  Ag  Ag2       1.0  0.11410  0.43727  0.47277  1.0000
  Ag  Ag3       1.0  0.95559  0.56937  0.15593  1.0000
  Ag  Ag4       1.0  0.04443  0.43061  0.65592  1.0000
  H   H1        1.0  0.64279  0.82497  0.22801  1.0000
  H   H2        1.0  0.35722  0.17504  0.72801  1.0000
  H   H3        1.0  0.71232  0.72262  0.14157  1.0000
  H   H4        1.0  0.28767  0.27736  0.64156  1.0000
  H   H5        1.0  0.45226  0.73700  0.15399  1.0000
  H   H6        1.0  0.54776  0.26300  0.65399  1.0000
  H   H7        1.0  0.45246  0.05761  0.92659  1.0000
  H   H8        1.0  0.54752  0.94237  0.42659  1.0000
  H   H9        1.0  0.19783  0.97149  0.89951  1.0000
  H   H10       1.0  0.80215  0.02852  0.39950  1.0000
  H   H11       1.0  0.09784  0.61845  0.33918  1.0000
  H   H12       1.0  0.90216  0.38155  0.83921  1.0000
  H   H13       1.0  0.30585  0.74591  0.37811  1.0000
  H   H14       1.0  0.69413  0.25410  0.87812  1.0000
  H   H15       1.0  0.24923  0.73989  0.26344  1.0000
  H   H16       1.0  0.75078  0.26013  0.76345  1.0000
  H   H17       1.0  0.85957  0.96945  0.11775  1.0000
  H   H18       1.0  0.14045  0.03056  0.61774  1.0000
  H   H19       1.0  0.85926  0.14905  0.11380  1.0000
  H   H20       1.0  0.14076  0.85095  0.61379  1.0000
  H   H21       1.0  0.87102  0.05516  0.01442  1.0000
  H   H22       1.0  0.12899  0.94484  0.51440  1.0000
  H   H23       1.0  0.89514  0.33631  0.23202  1.0000
  H   H24       1.0  0.10487  0.66368  0.73202  1.0000
  H   H25       1.0  0.89050  0.31451  0.34905  1.0000
  H   H26       1.0  0.10949  0.68548  0.84905  1.0000
  H   H27       1.0  0.70903  0.20013  0.28401  1.0000
  H   H28       1.0  0.29096  0.79987  0.78402  1.0000
  H   H29       1.0  0.49566  0.33872  0.12814  1.0000
  H   H30       1.0  0.50437  0.66126  0.62813  1.0000
  H   H31       1.0  0.57190  0.22743  0.04873  1.0000
  H   H32       1.0  0.42809  0.77254  0.54874  1.0000
  H   H33       1.0  0.54027  0.39369  0.01741  1.0000
  H   H34       1.0  0.45977  0.60629  0.51741  1.0000
  H   H35       1.0  0.58554  0.28385  0.47433  1.0000
  H   H36       1.0  0.41443  0.71616  0.97434  1.0000
  H   H37       1.0  0.31533  0.24180  0.45529  1.0000
  H   H38       1.0  0.68464  0.75822  0.95531  1.0000
  H   H39       1.0  0.48059  0.16527  0.38991  1.0000
  H   H40       1.0  0.51938  0.83474  0.88992  1.0000
  H   H41       1.0  0.16287  0.19843  0.22184  1.0000
  H   H42       1.0  0.83714  0.80156  0.72182  1.0000
  H   H43       1.0  0.14646  0.01479  0.22201  1.0000
  H   H44       1.0  0.85353  0.98520  0.72202  1.0000
  H   H45       1.0  0.38252  0.13300  0.19824  1.0000
  H   H46       1.0  0.61750  0.86700  0.69823  1.0000
  H   H47       1.0  0.40388  0.99983  0.07355  1.0000
  H   H48       1.0  0.59613  0.00019  0.57355  1.0000
  H   H49       1.0  0.32886  0.26362  0.89639  1.0000
  H   H50       1.0  0.67113  0.73639  0.39639  1.0000
  H   H51       1.0  0.07441  0.17696  0.91811  1.0000
  H   H52       1.0  0.92558  0.82305  0.41809  1.0000
  C   C1        1.0  0.13069  0.84750  0.05222  1.0000
  C   C2        1.0  0.86931  0.15251  0.55221  1.0000
  C   C3        1.0  0.59160  0.72845  0.18940  1.0000
  C   C4        1.0  0.40841  0.27155  0.68940  1.0000
  C   C5        1.0  0.29101  0.04752  0.94468  1.0000
  C   C6        1.0  0.70899  0.95248  0.44468  1.0000
  C   C7        1.0  0.25368  0.67551  0.32196  1.0000
  C   C8        1.0  0.74632  0.32450  0.82197  1.0000
  C   C9        1.0  0.55313  0.60410  0.24865  1.0000
  C   C10       1.0  0.44685  0.39589  0.74866  1.0000
  C   C11       1.0  0.92366  0.06775  0.08319  1.0000
  C   C12       1.0  0.07636  0.93225  0.58318  1.0000
  C   C13       1.0  0.79424  0.30944  0.28955  1.0000
  C   C14       1.0  0.20577  0.69055  0.78955  1.0000
  C   C15       1.0  0.47767  0.30296  0.05970  1.0000
  C   C16       1.0  0.52235  0.69703  0.55970  1.0000
  C   C17       1.0  0.65247  0.40491  0.29740  1.0000
  C   C18       1.0  0.34752  0.59509  0.79741  1.0000
  C   C19       1.0  0.46566  0.26126  0.42322  1.0000
  C   C20       1.0  0.53432  0.73875  0.92323  1.0000
  C   C21       1.0  0.21597  0.11395  0.18920  1.0000
  C   C22       1.0  0.78405  0.88606  0.68918  1.0000
  C   C23       1.0  0.39214  0.57834  0.31054  1.0000
  C   C24       1.0  0.60785  0.42166  0.81055  1.0000
  C   C25       1.0  0.49289  0.38042  0.35992  1.0000
  C   C26       1.0  0.50708  0.61957  0.85994  1.0000
  C   C27       1.0  0.15861  0.10544  0.09116  1.0000
  C   C28       1.0  0.84140  0.89457  0.59115  1.0000
  C   C29       1.0  0.25624  0.99677  0.04128  1.0000
  C   C30       1.0  0.74377  0.00325  0.54127  1.0000
  C   C31       1.0  0.23236  0.18883  0.94112  1.0000
  C   C32       1.0  0.76764  0.81116  0.44112  1.0000
  C   C33       1.0  0.25178  0.24230  0.03678  1.0000
  C   C34       1.0  0.74825  0.75770  0.53678  1.0000
  C   C35       1.0  0.13506  0.35665  0.05343  1.0000
  C   C36       1.0  0.86495  0.64333  0.55344  1.0000
  N   N1        1.0  0.68038  0.51690  0.24368  1.0000
  N   N2        1.0  0.31963  0.48310  0.74368  1.0000
  N   N3        1.0  0.36577  0.46739  0.36497  1.0000
  N   N4        1.0  0.63422  0.53262  0.86498  1.0000
  O   O1        1.0  0.01507  0.79288  0.98860  1.0000
  O   O2        1.0  0.98496  0.20714  0.48860  1.0000
  O   O3        1.0  0.14934  0.78833  0.12544  1.0000
  O   O4        1.0  0.85067  0.21168  0.62544  1.0000
  O   O5        1.0  0.16014  0.41787  0.12777  1.0000
  O   O6        1.0  0.83983  0.58211  0.62778  1.0000
  O   O7        1.0  0.02121  0.38129  0.99089  1.0000
  O   O8        1.0  0.97878  0.61869  0.49090  1.0000
