data_image0
_chemical_formula_structural       Cd3H36C20S6N4Cl6O8
_chemical_formula_sum              "Cd3 H36 C20 S6 N4 Cl6 O8"
_cell_length_a       10.012
_cell_length_b       10.1574
_cell_length_c       11.5229
_cell_angle_alpha    66.8626
_cell_angle_beta     73.5369
_cell_angle_gamma    62.8948

_space_group_name_H-M_alt    "P 1"
_space_group_IT_number       1

loop_
  _space_group_symop_operation_xyz
  'x, y, z'

loop_
  _atom_site_type_symbol
  _atom_site_label
  _atom_site_symmetry_multiplicity
  _atom_site_fract_x
  _atom_site_fract_y
  _atom_site_fract_z
  _atom_site_occupancy
  Cd  Cd1       1.0  0.50000  0.50000  0.50000  1.0000
  Cd  Cd2       1.0  0.55712  0.84517  0.43131  1.0000
  Cd  Cd3       1.0  0.44289  0.15483  0.56868  1.0000
  H   H1        1.0  0.49474  0.11283  0.20150  1.0000
  H   H2        1.0  0.50526  0.88718  0.79850  1.0000
  H   H3        1.0  0.58708  0.13472  0.27435  1.0000
  H   H4        1.0  0.41291  0.86529  0.72565  1.0000
  H   H5        1.0  0.90414  0.03705  0.34292  1.0000
  H   H6        1.0  0.09587  0.96294  0.65709  1.0000
  H   H7        1.0  0.83711  0.23553  0.25006  1.0000
  H   H8        1.0  0.16289  0.76446  0.74995  1.0000
  H   H9        1.0  0.10270  0.22769  0.20188  1.0000
  H   H10       1.0  0.89730  0.77231  0.79813  1.0000
  H   H11       1.0  0.16978  0.03048  0.30107  1.0000
  H   H12       1.0  0.83023  0.96952  0.69893  1.0000
  H   H13       1.0  0.23087  0.00677  0.98231  1.0000
  H   H14       1.0  0.76911  0.99323  0.01768  1.0000
  H   H15       1.0  0.32620  0.01367  0.08810  1.0000
  H   H16       1.0  0.67379  0.98633  0.91189  1.0000
  H   H17       1.0  0.28460  0.22498  0.86552  1.0000
  H   H18       1.0  0.71538  0.77502  0.13448  1.0000
  H   H19       1.0  0.09061  0.30224  0.93162  1.0000
  H   H20       1.0  0.90939  0.69777  0.06838  1.0000
  H   H21       1.0  0.10391  0.53630  0.92164  1.0000
  H   H22       1.0  0.89610  0.46369  0.07835  1.0000
  H   H23       1.0  0.28575  0.46276  0.83367  1.0000
  H   H24       1.0  0.71427  0.53723  0.16633  1.0000
  H   H25       1.0  0.40756  0.46615  0.99373  1.0000
  H   H26       1.0  0.59244  0.53385  0.00629  1.0000
  H   H27       1.0  0.28863  0.65120  0.90280  1.0000
  H   H28       1.0  0.71139  0.34879  0.09720  1.0000
  H   H29       1.0  0.19625  0.79563  0.04642  1.0000
  H   H30       1.0  0.80375  0.20437  0.95358  1.0000
  H   H31       1.0  0.36234  0.63997  0.11156  1.0000
  H   H32       1.0  0.63765  0.36003  0.88844  1.0000
  H   H33       1.0  0.20649  0.76513  0.26935  1.0000
  H   H34       1.0  0.79350  0.23488  0.73065  1.0000
  H   H35       1.0  0.21441  0.57304  0.32165  1.0000
  H   H36       1.0  0.78558  0.42696  0.67835  1.0000
  C   C1        1.0  0.92026  0.61258  0.33893  1.0000
  C   C2        1.0  0.07974  0.38742  0.66107  1.0000
  C   C3        1.0  0.88371  0.37319  0.40649  1.0000
  C   C4        1.0  0.11629  0.62681  0.59351  1.0000
  C   C5        1.0  0.92494  0.14431  0.30937  1.0000
  C   C6        1.0  0.07507  0.85569  0.69063  1.0000
  C   C7        1.0  0.08293  0.11931  0.23862  1.0000
  C   C8        1.0  0.91708  0.88068  0.76138  1.0000
  C   C9        1.0  0.22220  0.07306  0.04181  1.0000
  C   C10       1.0  0.77780  0.92694  0.95818  1.0000
  C   C11       1.0  0.20793  0.23437  0.95491  1.0000
  C   C12       1.0  0.79206  0.76564  0.04509  1.0000
  C   C13       1.0  0.22575  0.46618  0.92993  1.0000
  C   C14       1.0  0.77426  0.53381  0.07007  1.0000
  C   C15       1.0  0.28875  0.54198  0.97757  1.0000
  C   C16       1.0  0.71126  0.45802  0.02243  1.0000
  C   C17       1.0  0.23838  0.67988  0.11757  1.0000
  C   C18       1.0  0.76162  0.32012  0.88243  1.0000
  C   C19       1.0  0.17183  0.68790  0.25071  1.0000
  C   C20       1.0  0.82816  0.31210  0.74930  1.0000
  S   S1        1.0  0.03660  0.42660  0.33159  1.0000
  S   S2        1.0  0.96340  0.57340  0.66840  1.0000
  S   S3        1.0  0.88864  0.18633  0.45696  1.0000
  S   S4        1.0  0.11137  0.81366  0.54305  1.0000
  S   S5        1.0  0.96680  0.77293  0.27865  1.0000
  S   S6        1.0  0.03320  0.22708  0.72134  1.0000
  N   N1        1.0  0.76064  0.49028  0.43146  1.0000
  N   N2        1.0  0.23935  0.50973  0.56854  1.0000
  N   N3        1.0  0.78142  0.62449  0.39608  1.0000
  N   N4        1.0  0.21858  0.37551  0.60391  1.0000
  Cl  Cl1       1.0  0.48798  0.65006  0.65046  1.0000
  Cl  Cl2       1.0  0.51202  0.34994  0.34954  1.0000
  Cl  Cl3       1.0  0.45221  0.75823  0.30551  1.0000
  Cl  Cl4       1.0  0.54779  0.24177  0.69449  1.0000
  Cl  Cl5       1.0  0.30213  0.07553  0.46966  1.0000
  Cl  Cl6       1.0  0.69788  0.92446  0.53035  1.0000
  O   O1        1.0  0.09296  0.06897  0.13509  1.0000
  O   O2        1.0  0.90703  0.93103  0.86491  1.0000
  O   O3        1.0  0.24737  0.31223  0.01233  1.0000
  O   O4        1.0  0.75263  0.68776  0.98767  1.0000
  O   O5        1.0  0.20211  0.57421  0.09221  1.0000
  O   O6        1.0  0.79788  0.42580  0.90779  1.0000
  O   O7        1.0  0.59057  0.06111  0.23665  1.0000
  O   O8        1.0  0.40944  0.93890  0.76336  1.0000
