data_image0
_chemical_formula_structural       Sn6H24C48O18
_chemical_formula_sum              "Sn6 H24 C48 O18"
_cell_length_a       7.0957
_cell_length_b       7.27646
_cell_length_c       23.4515
_cell_angle_alpha    81.334
_cell_angle_beta     85.1918
_cell_angle_gamma    63.0214

_space_group_name_H-M_alt    "P 1"
_space_group_IT_number       1

loop_
  _space_group_symop_operation_xyz
  'x, y, z'

loop_
  _atom_site_type_symbol
  _atom_site_label
  _atom_site_symmetry_multiplicity
  _atom_site_fract_x
  _atom_site_fract_y
  _atom_site_fract_z
  _atom_site_occupancy
  Sn  Sn1       1.0  0.22520  0.89485  0.22994  1.0000
  Sn  Sn2       1.0  0.77480  0.10515  0.77006  1.0000
  Sn  Sn3       1.0  0.53730  0.31032  0.24300  1.0000
  Sn  Sn4       1.0  0.46270  0.68968  0.75701  1.0000
  Sn  Sn5       1.0  0.97710  0.55132  0.27145  1.0000
  Sn  Sn6       1.0  0.02289  0.44869  0.72854  1.0000
  H   H1        1.0  0.38187  0.81164  0.09952  1.0000
  H   H2        1.0  0.61813  0.18836  0.90048  1.0000
  H   H3        1.0  0.89476  0.97658  0.09177  1.0000
  H   H4        1.0  0.10524  0.02341  0.90822  1.0000
  H   H5        1.0  0.17020  0.88937  0.01226  1.0000
  H   H6        1.0  0.82981  0.11063  0.98774  1.0000
  H   H7        1.0  0.37294  0.28084  0.39967  1.0000
  H   H8        1.0  0.62705  0.71916  0.60033  1.0000
  H   H9        1.0  0.51098  0.63760  0.40883  1.0000
  H   H10       1.0  0.48903  0.36240  0.59117  1.0000
  H   H11       1.0  0.59356  0.58089  0.51335  1.0000
  H   H12       1.0  0.40644  0.41911  0.48665  1.0000
  H   H13       1.0  0.98627  0.30211  0.14979  1.0000
  H   H14       1.0  0.01373  0.69788  0.85021  1.0000
  H   H15       1.0  0.73157  0.38236  0.07322  1.0000
  H   H16       1.0  0.26843  0.61762  0.92679  1.0000
  H   H17       1.0  0.36889  0.50461  0.03053  1.0000
  H   H18       1.0  0.63110  0.49540  0.96947  1.0000
  H   H19       1.0  0.04409  0.62494  0.47094  1.0000
  H   H20       1.0  0.95592  0.37505  0.52906  1.0000
  H   H21       1.0  0.86303  0.18066  0.35026  1.0000
  H   H22       1.0  0.13697  0.81933  0.64975  1.0000
  H   H23       1.0  0.10923  0.62962  0.57367  1.0000
  H   H24       1.0  0.89078  0.37038  0.42633  1.0000
  C   C1        1.0  0.68409  0.80742  0.16464  1.0000
  C   C2        1.0  0.31590  0.19259  0.83535  1.0000
  C   C3        1.0  0.63829  0.89023  0.10239  1.0000
  C   C4        1.0  0.36172  0.10977  0.89760  1.0000
  C   C5        1.0  0.47523  0.88318  0.07550  1.0000
  C   C6        1.0  0.52477  0.11682  0.92450  1.0000
  C   C7        1.0  0.43489  0.95807  0.01626  1.0000
  C   C8        1.0  0.56511  0.04192  0.98373  1.0000
  C   C9        1.0  0.76719  0.97284  0.06998  1.0000
  C   C10       1.0  0.23282  0.02716  0.93001  1.0000
  C   C11       1.0  0.26910  0.95314  0.98761  1.0000
  C   C12       1.0  0.73091  0.04685  0.01239  1.0000
  C   C13       1.0  0.38891  0.99849  0.33630  1.0000
  C   C14       1.0  0.61108  0.00151  0.66370  1.0000
  C   C15       1.0  0.44079  0.96285  0.39831  1.0000
  C   C16       1.0  0.55920  0.03715  0.60169  1.0000
  C   C17       1.0  0.42546  0.12758  0.42460  1.0000
  C   C18       1.0  0.57453  0.87242  0.57540  1.0000
  C   C19       1.0  0.46887  0.10072  0.48372  1.0000
  C   C20       1.0  0.53113  0.89928  0.51628  1.0000
  C   C21       1.0  0.50162  0.76365  0.43058  1.0000
  C   C22       1.0  0.49838  0.23636  0.56942  1.0000
  C   C23       1.0  0.54676  0.73309  0.48813  1.0000
  C   C24       1.0  0.45324  0.26691  0.51187  1.0000
  C   C25       1.0  0.34074  0.36004  0.14032  1.0000
  C   C26       1.0  0.65926  0.63996  0.85968  1.0000
  C   C27       1.0  0.19368  0.39832  0.09390  1.0000
  C   C28       1.0  0.80632  0.60168  0.90610  1.0000
  C   C29       1.0  0.01411  0.36053  0.10595  1.0000
  C   C30       1.0  0.98589  0.63947  0.89405  1.0000
  C   C31       1.0  0.87379  0.40325  0.06316  1.0000
  C   C32       1.0  0.12621  0.59676  0.93684  1.0000
  C   C33       1.0  0.23037  0.47621  0.03885  1.0000
  C   C34       1.0  0.76962  0.52379  0.96115  1.0000
  C   C35       1.0  0.90883  0.48157  0.00625  1.0000
  C   C36       1.0  0.09116  0.51844  0.99375  1.0000
  C   C37       1.0  0.95353  0.76869  0.36118  1.0000
  C   C38       1.0  0.04647  0.23130  0.63882  1.0000
  C   C39       1.0  0.95396  0.88998  0.40670  1.0000
  C   C40       1.0  0.04604  0.11002  0.59330  1.0000
  C   C41       1.0  0.00906  0.78849  0.46211  1.0000
  C   C42       1.0  0.99095  0.21151  0.53789  1.0000
  C   C43       1.0  0.02224  0.89276  0.50663  1.0000
  C   C44       1.0  0.97776  0.10723  0.49338  1.0000
  C   C45       1.0  0.90619  0.10336  0.39410  1.0000
  C   C46       1.0  0.09382  0.89663  0.60590  1.0000
  C   C47       1.0  0.08082  0.79110  0.56358  1.0000
  C   C48       1.0  0.91919  0.20889  0.43643  1.0000
  O   O1        1.0  0.25935  0.58712  0.25200  1.0000
  O   O2        1.0  0.74063  0.41288  0.74800  1.0000
  O   O3        1.0  0.55981  0.74521  0.19562  1.0000
  O   O4        1.0  0.44019  0.25481  0.80437  1.0000
  O   O5        1.0  0.85124  0.79416  0.18518  1.0000
  O   O6        1.0  0.14875  0.20585  0.81482  1.0000
  O   O7        1.0  0.37777  0.85073  0.31512  1.0000
  O   O8        1.0  0.62223  0.14927  0.68487  1.0000
  O   O9        1.0  0.35341  0.17438  0.30742  1.0000
  O   O10       1.0  0.64659  0.82562  0.69258  1.0000
  O   O11       1.0  0.32935  0.24882  0.18829  1.0000
  O   O12       1.0  0.67066  0.75118  0.81171  1.0000
  O   O13       1.0  0.46934  0.43765  0.13494  1.0000
  O   O14       1.0  0.53066  0.56235  0.86506  1.0000
  O   O15       1.0  0.02446  0.57272  0.37198  1.0000
  O   O16       1.0  0.97554  0.42728  0.62802  1.0000
  O   O17       1.0  0.88501  0.86185  0.31003  1.0000
  O   O18       1.0  0.11500  0.13815  0.68997  1.0000
