data_image0
_chemical_formula_structural       Sn8H12C28N4O20
_chemical_formula_sum              "Sn8 H12 C28 N4 O20"
_cell_length_a       6.60892
_cell_length_b       7.60592
_cell_length_c       20.2799
_cell_angle_alpha    87.9258
_cell_angle_beta     90.0049
_cell_angle_gamma    115.813

_space_group_name_H-M_alt    "P 1"
_space_group_IT_number       1

loop_
  _space_group_symop_operation_xyz
  'x, y, z'

loop_
  _atom_site_type_symbol
  _atom_site_label
  _atom_site_symmetry_multiplicity
  _atom_site_fract_x
  _atom_site_fract_y
  _atom_site_fract_z
  _atom_site_occupancy
  Sn  Sn1       1.0  0.27280  0.52363  0.56051  1.0000
  Sn  Sn2       1.0  0.74930  0.47602  0.93942  1.0000
  Sn  Sn3       1.0  0.72722  0.47643  0.43948  1.0000
  Sn  Sn4       1.0  0.25076  0.52399  0.06061  1.0000
  Sn  Sn5       1.0  0.68380  0.95368  0.95691  1.0000
  Sn  Sn6       1.0  0.73028  0.04711  0.54307  1.0000
  Sn  Sn7       1.0  0.31625  0.04632  0.04308  1.0000
  Sn  Sn8       1.0  0.26970  0.95291  0.45694  1.0000
  H   H1        1.0  0.81743  0.76211  0.72709  1.0000
  H   H2        1.0  0.05450  0.23689  0.77297  1.0000
  H   H3        1.0  0.18254  0.23789  0.27291  1.0000
  H   H4        1.0  0.94554  0.76313  0.22704  1.0000
  H   H5        1.0  0.06996  0.83183  0.82302  1.0000
  H   H6        1.0  0.23710  0.16760  0.67699  1.0000
  H   H7        1.0  0.93000  0.16813  0.17698  1.0000
  H   H8        1.0  0.76294  0.83243  0.32302  1.0000
  H   H9        1.0  0.50697  0.67512  0.70577  1.0000
  H   H10       1.0  0.83143  0.32440  0.79414  1.0000
  H   H11       1.0  0.49299  0.32486  0.29422  1.0000
  H   H12       1.0  0.16860  0.67561  0.20587  1.0000
  C   C1        1.0  0.02722  0.67868  0.66624  1.0000
  C   C2        1.0  0.34811  0.32063  0.83375  1.0000
  C   C3        1.0  0.97275  0.32133  0.33375  1.0000
  C   C4        1.0  0.65192  0.67937  0.16626  1.0000
  C   C5        1.0  0.97036  0.74298  0.72365  1.0000
  C   C6        1.0  0.22663  0.25625  0.77639  1.0000
  C   C7        1.0  0.02961  0.25702  0.27634  1.0000
  C   C8        1.0  0.77340  0.74376  0.22361  1.0000
  C   C9        1.0  0.11207  0.78252  0.77751  1.0000
  C   C10       1.0  0.32866  0.21692  0.72250  1.0000
  C   C11       1.0  0.88788  0.21745  0.22249  1.0000
  C   C12       1.0  0.67137  0.78309  0.27751  1.0000
  C   C13       1.0  0.31057  0.76113  0.77206  1.0000
  C   C14       1.0  0.54864  0.23842  0.72790  1.0000
  C   C15       1.0  0.68938  0.23883  0.22794  1.0000
  C   C16       1.0  0.45139  0.76159  0.27210  1.0000
  C   C17       1.0  0.35527  0.69524  0.71271  1.0000
  C   C18       1.0  0.65959  0.30428  0.78722  1.0000
  C   C19       1.0  0.64469  0.30475  0.28728  1.0000
  C   C20       1.0  0.34043  0.69572  0.21279  1.0000
  C   C21       1.0  0.87678  0.62843  0.60712  1.0000
  C   C22       1.0  0.24829  0.37097  0.89293  1.0000
  C   C23       1.0  0.12320  0.37157  0.39287  1.0000
  C   C24       1.0  0.75174  0.62901  0.10708  1.0000
  C   C25       1.0  0.47808  0.81183  0.82673  1.0000
  C   C26       1.0  0.66557  0.18803  0.67321  1.0000
  C   C27       1.0  0.52186  0.18811  0.17327  1.0000
  C   C28       1.0  0.33447  0.81202  0.32679  1.0000
  N   N1        1.0  0.21728  0.65501  0.66156  1.0000
  N   N2        1.0  0.56204  0.34450  0.83838  1.0000
  N   N3        1.0  0.78269  0.34500  0.33843  1.0000
  N   N4        1.0  0.43798  0.65549  0.16163  1.0000
  O   O1        1.0  0.93544  0.55333  0.55863  1.0000
  O   O2        1.0  0.38234  0.44619  0.94138  1.0000
  O   O3        1.0  0.06452  0.44669  0.44136  1.0000
  O   O4        1.0  0.61766  0.55377  0.05863  1.0000
  O   O5        1.0  0.70675  0.66154  0.60818  1.0000
  O   O6        1.0  0.04502  0.33778  0.89189  1.0000
  O   O7        1.0  0.29323  0.33847  0.39182  1.0000
  O   O8        1.0  0.95501  0.66222  0.10811  1.0000
  O   O9        1.0  0.64586  0.77755  0.82108  1.0000
  O   O10       1.0  0.86769  0.22232  0.67898  1.0000
  O   O11       1.0  0.35408  0.22240  0.17890  1.0000
  O   O12       1.0  0.13236  0.77773  0.32101  1.0000
  O   O13       1.0  0.43336  0.89074  0.87683  1.0000
  O   O14       1.0  0.54205  0.10946  0.62300  1.0000
  O   O15       1.0  0.56661  0.10919  0.12318  1.0000
  O   O16       1.0  0.45802  0.89057  0.37700  1.0000
  O   O17       1.0  0.41631  0.81010  0.52144  1.0000
  O   O18       1.0  0.60620  0.18987  0.97868  1.0000
  O   O19       1.0  0.58369  0.18996  0.47856  1.0000
  O   O20       1.0  0.39381  0.81010  0.02132  1.0000
