data_image0
_chemical_formula_structural       Sn4H40C40N8O20
_chemical_formula_sum              "Sn4 H40 C40 N8 O20"
_cell_length_a       8.39712
_cell_length_b       11.6311
_cell_length_c       12.0179
_cell_angle_alpha    100.367
_cell_angle_beta     90.0005
_cell_angle_gamma    89.9997

_space_group_name_H-M_alt    "P 1"
_space_group_IT_number       1

loop_
  _space_group_symop_operation_xyz
  'x, y, z'

loop_
  _atom_site_type_symbol
  _atom_site_label
  _atom_site_symmetry_multiplicity
  _atom_site_fract_x
  _atom_site_fract_y
  _atom_site_fract_z
  _atom_site_occupancy
  Sn  Sn1       1.0  0.27373  0.77851  0.71962  1.0000
  Sn  Sn2       1.0  0.77371  0.22156  0.78039  1.0000
  Sn  Sn3       1.0  0.72628  0.22152  0.28038  1.0000
  Sn  Sn4       1.0  0.22626  0.77852  0.21962  1.0000
  H   H1        1.0  0.34325  0.44347  0.35860  1.0000
  H   H2        1.0  0.84326  0.55653  0.14140  1.0000
  H   H3        1.0  0.65674  0.55653  0.64139  1.0000
  H   H4        1.0  0.15674  0.44347  0.85860  1.0000
  H   H5        1.0  0.15976  0.29082  0.41549  1.0000
  H   H6        1.0  0.65975  0.70917  0.08450  1.0000
  H   H7        1.0  0.84024  0.70917  0.58451  1.0000
  H   H8        1.0  0.34025  0.29083  0.91549  1.0000
  H   H9        1.0  0.06492  0.53140  0.72505  1.0000
  H   H10       1.0  0.56493  0.46858  0.77494  1.0000
  H   H11       1.0  0.93508  0.46859  0.27495  1.0000
  H   H12       1.0  0.43507  0.53141  0.22506  1.0000
  H   H13       1.0  0.53578  0.04152  0.91734  1.0000
  H   H14       1.0  0.03579  0.95847  0.58265  1.0000
  H   H15       1.0  0.46421  0.95847  0.08266  1.0000
  H   H16       1.0  0.96421  0.04152  0.41735  1.0000
  H   H17       1.0  0.87643  0.86281  0.73675  1.0000
  H   H18       1.0  0.37643  0.13719  0.76325  1.0000
  H   H19       1.0  0.12356  0.13719  0.26326  1.0000
  H   H20       1.0  0.62357  0.86281  0.23674  1.0000
  H   H21       1.0  0.68103  0.79889  0.71368  1.0000
  H   H22       1.0  0.18103  0.20111  0.78632  1.0000
  H   H23       1.0  0.31897  0.20111  0.28632  1.0000
  H   H24       1.0  0.81897  0.79888  0.21368  1.0000
  H   H25       1.0  0.81466  0.75584  0.81679  1.0000
  H   H26       1.0  0.31466  0.24417  0.68321  1.0000
  H   H27       1.0  0.18534  0.24416  0.18321  1.0000
  H   H28       1.0  0.68534  0.75583  0.31679  1.0000
  H   H29       1.0  0.84123  0.89456  0.00284  1.0000
  H   H30       1.0  0.34125  0.10544  0.49716  1.0000
  H   H31       1.0  0.15876  0.10543  0.99716  1.0000
  H   H32       1.0  0.65876  0.89456  0.50284  1.0000
  H   H33       1.0  0.74846  0.03604  0.01449  1.0000
  H   H34       1.0  0.24847  0.96397  0.48551  1.0000
  H   H35       1.0  0.25153  0.96396  0.98551  1.0000
  H   H36       1.0  0.75153  0.03603  0.51449  1.0000
  H   H37       1.0  0.91883  0.00089  0.92676  1.0000
  H   H38       1.0  0.41883  0.99911  0.57324  1.0000
  H   H39       1.0  0.08117  0.99911  0.07324  1.0000
  H   H40       1.0  0.58117  0.00088  0.42676  1.0000
  C   C1        1.0  0.29538  0.56592  0.51178  1.0000
  C   C2        1.0  0.79540  0.43408  0.98823  1.0000
  C   C3        1.0  0.70462  0.43408  0.48822  1.0000
  C   C4        1.0  0.20461  0.56592  0.01178  1.0000
  C   C5        1.0  0.27815  0.45935  0.43821  1.0000
  C   C6        1.0  0.77815  0.54065  0.06179  1.0000
  C   C7        1.0  0.72185  0.54065  0.56178  1.0000
  C   C8        1.0  0.22185  0.45935  0.93822  1.0000
  C   C9        1.0  0.17846  0.37513  0.46995  1.0000
  C   C10       1.0  0.67846  0.62486  0.03005  1.0000
  C   C11       1.0  0.82154  0.62487  0.53005  1.0000
  C   C12       1.0  0.32154  0.37513  0.96995  1.0000
  C   C13       1.0  0.09921  0.39850  0.57360  1.0000
  C   C14       1.0  0.59921  0.60150  0.92639  1.0000
  C   C15       1.0  0.90079  0.60150  0.42639  1.0000
  C   C16       1.0  0.40078  0.39850  0.07361  1.0000
  C   C17       1.0  0.12370  0.50711  0.64316  1.0000
  C   C18       1.0  0.62371  0.49288  0.85684  1.0000
  C   C19       1.0  0.87630  0.49289  0.35684  1.0000
  C   C20       1.0  0.37629  0.50711  0.14316  1.0000
  C   C21       1.0  0.39675  0.66464  0.48348  1.0000
  C   C22       1.0  0.89677  0.33536  0.01653  1.0000
  C   C23       1.0  0.60324  0.33535  0.51652  1.0000
  C   C24       1.0  0.10324  0.66465  0.98347  1.0000
  C   C25       1.0  0.98666  0.31054  0.60780  1.0000
  C   C26       1.0  0.48665  0.68945  0.89220  1.0000
  C   C27       1.0  0.01335  0.68946  0.39220  1.0000
  C   C28       1.0  0.51334  0.31054  0.10780  1.0000
  C   C29       1.0  0.56613  0.96822  0.84874  1.0000
  C   C30       1.0  0.06613  0.03177  0.65126  1.0000
  C   C31       1.0  0.43387  0.03177  0.15126  1.0000
  C   C32       1.0  0.93387  0.96822  0.34874  1.0000
  C   C33       1.0  0.77331  0.82819  0.77663  1.0000
  C   C34       1.0  0.27331  0.17181  0.72337  1.0000
  C   C35       1.0  0.22669  0.17181  0.22337  1.0000
  C   C36       1.0  0.72669  0.82819  0.27662  1.0000
  C   C37       1.0  0.80965  0.96554  0.95762  1.0000
  C   C38       1.0  0.30966  0.03446  0.54237  1.0000
  C   C39       1.0  0.19034  0.03446  0.04237  1.0000
  C   C40       1.0  0.69034  0.96554  0.45762  1.0000
  N   N1        1.0  0.21962  0.58744  0.61207  1.0000
  N   N2        1.0  0.71965  0.41256  0.88794  1.0000
  N   N3        1.0  0.78037  0.41256  0.38793  1.0000
  N   N4        1.0  0.28037  0.58745  0.11207  1.0000
  N   N5        1.0  0.70809  0.92101  0.86150  1.0000
  N   N6        1.0  0.20810  0.07900  0.63850  1.0000
  N   N7        1.0  0.29190  0.07899  0.13850  1.0000
  N   N8        1.0  0.79190  0.92100  0.36150  1.0000
  O   O1        1.0  0.41889  0.75315  0.56496  1.0000
  O   O2        1.0  0.91891  0.24687  0.93504  1.0000
  O   O3        1.0  0.58111  0.24685  0.43504  1.0000
  O   O4        1.0  0.08110  0.75315  0.06495  1.0000
  O   O5        1.0  0.45226  0.65641  0.38626  1.0000
  O   O6        1.0  0.95227  0.34359  0.11376  1.0000
  O   O7        1.0  0.54773  0.34358  0.61374  1.0000
  O   O8        1.0  0.04773  0.65641  0.88625  1.0000
  O   O9        1.0  0.94932  0.33201  0.71469  1.0000
  O   O10       1.0  0.44929  0.66799  0.78531  1.0000
  O   O11       1.0  0.05073  0.66800  0.28532  1.0000
  O   O12       1.0  0.55070  0.33201  0.21470  1.0000
  O   O13       1.0  0.93654  0.22733  0.53617  1.0000
  O   O14       1.0  0.43654  0.77266  0.96382  1.0000
  O   O15       1.0  0.06346  0.77268  0.46384  1.0000
  O   O16       1.0  0.56347  0.22733  0.03618  1.0000
  O   O17       1.0  0.47318  0.93667  0.76661  1.0000
  O   O18       1.0  0.97319  0.06332  0.73339  1.0000
  O   O19       1.0  0.52681  0.06332  0.23339  1.0000
  O   O20       1.0  0.02681  0.93668  0.26661  1.0000
