data_image0
_chemical_formula_structural       Cu4H38C62S2N8Cl2O12
_chemical_formula_sum              "Cu4 H38 C62 S2 N8 Cl2 O12"
_cell_length_a       10.3253
_cell_length_b       13.1915
_cell_length_c       13.3757
_cell_angle_alpha    110.757
_cell_angle_beta     99.142
_cell_angle_gamma    98.7563

_space_group_name_H-M_alt    "P 1"
_space_group_IT_number       1

loop_
  _space_group_symop_operation_xyz
  'x, y, z'

loop_
  _atom_site_type_symbol
  _atom_site_label
  _atom_site_symmetry_multiplicity
  _atom_site_fract_x
  _atom_site_fract_y
  _atom_site_fract_z
  _atom_site_occupancy
  Cu  Cu1       1.0  0.62116  0.46029  0.29118  1.0000
  Cu  Cu2       1.0  0.37884  0.53971  0.70882  1.0000
  Cu  Cu3       1.0  0.38708  0.88328  0.93898  1.0000
  Cu  Cu4       1.0  0.61291  0.11671  0.06102  1.0000
  H   H1        1.0  0.80792  0.29202  0.24767  1.0000
  H   H2        1.0  0.19208  0.70798  0.75233  1.0000
  H   H3        1.0  0.97502  0.24116  0.37089  1.0000
  H   H4        1.0  0.02497  0.75884  0.62911  1.0000
  H   H5        1.0  0.00939  0.33626  0.57589  1.0000
  H   H6        1.0  0.99061  0.66374  0.42411  1.0000
  H   H7        1.0  0.94785  0.47975  0.73579  1.0000
  H   H8        1.0  0.05215  0.52025  0.26421  1.0000
  H   H9        1.0  0.81316  0.62096  0.80023  1.0000
  H   H10       1.0  0.18684  0.37904  0.19977  1.0000
  H   H11       1.0  0.63896  0.73022  0.75168  1.0000
  H   H12       1.0  0.36104  0.26978  0.24832  1.0000
  H   H13       1.0  0.49431  0.76370  0.60582  1.0000
  H   H14       1.0  0.50569  0.23630  0.39418  1.0000
  H   H15       1.0  0.48724  0.65078  0.40535  1.0000
  H   H16       1.0  0.51276  0.34923  0.59465  1.0000
  H   H17       1.0  0.82160  0.47077  0.04554  1.0000
  H   H18       1.0  0.17840  0.52923  0.95446  1.0000
  H   H19       1.0  0.69979  0.40641  0.84909  1.0000
  H   H20       1.0  0.30021  0.59359  0.15091  1.0000
  H   H21       1.0  0.62001  0.74040  0.13066  1.0000
  H   H22       1.0  0.37999  0.25960  0.86934  1.0000
  H   H23       1.0  0.38080  0.02559  0.79470  1.0000
  H   H24       1.0  0.61920  0.97441  0.20529  1.0000
  H   H25       1.0  0.19679  0.09589  0.70849  1.0000
  H   H26       1.0  0.80321  0.90411  0.29151  1.0000
  H   H27       1.0  0.96238  0.04307  0.72810  1.0000
  H   H28       1.0  0.03762  0.95693  0.27191  1.0000
  H   H29       1.0  0.80328  0.94436  0.81457  1.0000
  H   H30       1.0  0.19672  0.05564  0.18543  1.0000
  H   H31       1.0  0.77442  0.83858  0.93037  1.0000
  H   H32       1.0  0.22557  0.16142  0.06963  1.0000
  H   H33       1.0  0.87868  0.73645  0.04564  1.0000
  H   H34       1.0  0.12132  0.26355  0.95436  1.0000
  H   H35       1.0  0.08281  0.68930  0.12387  1.0000
  H   H36       1.0  0.91719  0.31070  0.87614  1.0000
  H   H37       1.0  0.30448  0.74758  0.07665  1.0000
  H   H38       1.0  0.69552  0.25242  0.92335  1.0000
  C   C1        1.0  0.82738  0.33132  0.33682  1.0000
  C   C2        1.0  0.17262  0.66867  0.66318  1.0000
  C   C3        1.0  0.91971  0.30375  0.40663  1.0000
  C   C4        1.0  0.08029  0.69625  0.59337  1.0000
  C   C5        1.0  0.93918  0.35608  0.51953  1.0000
  C   C6        1.0  0.06082  0.64393  0.48047  1.0000
  C   C7        1.0  0.86730  0.43840  0.56270  1.0000
  C   C8        1.0  0.13270  0.56160  0.43730  1.0000
  C   C9        1.0  0.87897  0.49889  0.67775  1.0000
  C   C10       1.0  0.12102  0.50111  0.32225  1.0000
  C   C11       1.0  0.80558  0.57753  0.71274  1.0000
  C   C12       1.0  0.19442  0.42247  0.28726  1.0000
  C   C13       1.0  0.71647  0.60414  0.63660  1.0000
  C   C14       1.0  0.28353  0.39586  0.36340  1.0000
  C   C15       1.0  0.63698  0.68368  0.66581  1.0000
  C   C16       1.0  0.36302  0.31632  0.33419  1.0000
  C   C17       1.0  0.55579  0.70249  0.58422  1.0000
  C   C18       1.0  0.44421  0.29751  0.41578  1.0000
  C   C19       1.0  0.55048  0.64064  0.47309  1.0000
  C   C20       1.0  0.44952  0.35936  0.52691  1.0000
  C   C21       1.0  0.70387  0.54553  0.52296  1.0000
  C   C22       1.0  0.29613  0.45447  0.47705  1.0000
  C   C23       1.0  0.77796  0.46155  0.48615  1.0000
  C   C24       1.0  0.22204  0.53846  0.51385  1.0000
  C   C25       1.0  0.72718  0.60996  0.10113  1.0000
  C   C26       1.0  0.27282  0.39004  0.89887  1.0000
  C   C27       1.0  0.75074  0.51564  0.02074  1.0000
  C   C28       1.0  0.24926  0.48436  0.97927  1.0000
  C   C29       1.0  0.68369  0.47966  0.91220  1.0000
  C   C30       1.0  0.31631  0.52034  0.08780  1.0000
  C   C31       1.0  0.58825  0.53506  0.87685  1.0000
  C   C32       1.0  0.41175  0.46494  0.12315  1.0000
  C   C33       1.0  0.57017  0.63348  0.95886  1.0000
  C   C34       1.0  0.42983  0.36652  0.04115  1.0000
  C   C35       1.0  0.63855  0.66740  0.06931  1.0000
  C   C36       1.0  0.36145  0.33260  0.93070  1.0000
  C   C37       1.0  0.48494  0.70389  0.93227  1.0000
  C   C38       1.0  0.51506  0.29611  0.06773  1.0000
  C   C39       1.0  0.27686  0.00451  0.80069  1.0000
  C   C40       1.0  0.72314  0.99549  0.19931  1.0000
  C   C41       1.0  0.17310  0.04185  0.75202  1.0000
  C   C42       1.0  0.82690  0.95815  0.24798  1.0000
  C   C43       1.0  0.04334  0.01321  0.76385  1.0000
  C   C44       1.0  0.95665  0.98679  0.23615  1.0000
  C   C45       1.0  0.01713  0.94744  0.82513  1.0000
  C   C46       1.0  0.98287  0.05255  0.17487  1.0000
  C   C47       1.0  0.88885  0.91723  0.84769  1.0000
  C   C48       1.0  0.11115  0.08277  0.15231  1.0000
  C   C49       1.0  0.87240  0.85755  0.91195  1.0000
  C   C50       1.0  0.12759  0.14245  0.08805  1.0000
  C   C51       1.0  0.98241  0.82096  0.95769  1.0000
  C   C52       1.0  0.01759  0.17904  0.04231  1.0000
  C   C53       1.0  0.97405  0.76036  0.02568  1.0000
  C   C54       1.0  0.02595  0.23964  0.97432  1.0000
  C   C55       1.0  0.08857  0.73310  0.06870  1.0000
  C   C56       1.0  0.91143  0.26691  0.93130  1.0000
  C   C57       1.0  0.21132  0.76594  0.04388  1.0000
  C   C58       1.0  0.78868  0.23406  0.95612  1.0000
  C   C59       1.0  0.10991  0.84978  0.93649  1.0000
  C   C60       1.0  0.89009  0.15021  0.06351  1.0000
  C   C61       1.0  0.12772  0.91378  0.87097  1.0000
  C   C62       1.0  0.87228  0.08622  0.12902  1.0000
  S   S1        1.0  0.81590  0.65745  0.24075  1.0000
  S   S2        1.0  0.18410  0.34255  0.75925  1.0000
  N   N1        1.0  0.75732  0.40712  0.37597  1.0000
  N   N2        1.0  0.24268  0.59288  0.62403  1.0000
  N   N3        1.0  0.62167  0.56335  0.44395  1.0000
  N   N4        1.0  0.37833  0.43666  0.55605  1.0000
  N   N5        1.0  0.22092  0.82225  0.97907  1.0000
  N   N6        1.0  0.77907  0.17775  0.02093  1.0000
  N   N7        1.0  0.25442  0.94186  0.85818  1.0000
  N   N8        1.0  0.74558  0.05814  0.14182  1.0000
  Cl  Cl1       1.0  0.55958  0.93591  0.86851  1.0000
  Cl  Cl2       1.0  0.44042  0.06409  0.13150  1.0000
  O   O1        1.0  0.80457  0.55562  0.26560  1.0000
  O   O2        1.0  0.19543  0.44438  0.73440  1.0000
  O   O3        1.0  0.95711  0.70195  0.24461  1.0000
  O   O4        1.0  0.04289  0.29805  0.75539  1.0000
  O   O5        1.0  0.75026  0.73998  0.30564  1.0000
  O   O6        1.0  0.24974  0.26002  0.69436  1.0000
  O   O7        1.0  0.52758  0.49345  0.77269  1.0000
  O   O8        1.0  0.47243  0.50655  0.22731  1.0000
  O   O9        1.0  0.40419  0.67464  0.83834  1.0000
  O   O10       1.0  0.59581  0.32536  0.16166  1.0000
  O   O11       1.0  0.49354  0.80086  0.00631  1.0000
  O   O12       1.0  0.50646  0.19914  0.99369  1.0000
