data_image0
_chemical_formula_structural       Ag4H20C24N16O4
_chemical_formula_sum              "Ag4 H20 C24 N16 O4"
_cell_length_a       5.13371
_cell_length_b       10.0781
_cell_length_c       13.5244
_cell_angle_alpha    89.9991
_cell_angle_beta     97.7979
_cell_angle_gamma    90.0008

_space_group_name_H-M_alt    "P 1"
_space_group_IT_number       1

loop_
  _space_group_symop_operation_xyz
  'x, y, z'

loop_
  _atom_site_type_symbol
  _atom_site_label
  _atom_site_symmetry_multiplicity
  _atom_site_fract_x
  _atom_site_fract_y
  _atom_site_fract_z
  _atom_site_occupancy
  Ag  Ag1       1.0  0.17873  0.94881  0.92733  1.0000
  Ag  Ag2       1.0  0.82127  0.44883  0.57266  1.0000
  Ag  Ag3       1.0  0.82128  0.05118  0.07267  1.0000
  Ag  Ag4       1.0  0.17875  0.55118  0.42733  1.0000
  H   H1        1.0  0.19273  0.12151  0.72119  1.0000
  H   H2        1.0  0.80730  0.62151  0.77883  1.0000
  H   H3        1.0  0.80728  0.87849  0.27881  1.0000
  H   H4        1.0  0.19267  0.37849  0.22116  1.0000
  H   H5        1.0  0.72424  0.54541  0.10399  1.0000
  H   H6        1.0  0.27573  0.04543  0.39603  1.0000
  H   H7        1.0  0.27576  0.45458  0.89601  1.0000
  H   H8        1.0  0.72426  0.95457  0.60398  1.0000
  H   H9        1.0  0.81805  0.65179  0.95650  1.0000
  H   H10       1.0  0.18195  0.15178  0.54351  1.0000
  H   H11       1.0  0.18196  0.34822  0.04349  1.0000
  H   H12       1.0  0.81803  0.84823  0.45649  1.0000
  H   H13       1.0  0.50625  0.67199  0.88159  1.0000
  H   H14       1.0  0.49374  0.17198  0.61842  1.0000
  H   H15       1.0  0.49374  0.32801  0.11841  1.0000
  H   H16       1.0  0.50623  0.82803  0.38158  1.0000
  H   H17       1.0  0.68901  0.81370  0.92560  1.0000
  H   H18       1.0  0.31099  0.31369  0.57441  1.0000
  H   H19       1.0  0.31099  0.18632  0.07440  1.0000
  H   H20       1.0  0.68898  0.68632  0.42558  1.0000
  C   C1        1.0  0.04321  0.16474  0.76049  1.0000
  C   C2        1.0  0.95681  0.66474  0.73953  1.0000
  C   C3        1.0  0.95680  0.83525  0.23951  1.0000
  C   C4        1.0  0.04317  0.33526  0.26048  1.0000
  C   C5        1.0  0.44929  0.61199  0.19973  1.0000
  C   C6        1.0  0.55065  0.11201  0.30029  1.0000
  C   C7        1.0  0.55072  0.38799  0.80028  1.0000
  C   C8        1.0  0.44934  0.88799  0.69972  1.0000
  C   C9        1.0  0.57051  0.61766  0.11116  1.0000
  C   C10       1.0  0.42947  0.11767  0.38884  1.0000
  C   C11       1.0  0.42948  0.38234  0.88884  1.0000
  C   C12       1.0  0.57056  0.88233  0.61116  1.0000
  C   C13       1.0  0.50377  0.71085  0.03646  1.0000
  C   C14       1.0  0.49625  0.21085  0.46355  1.0000
  C   C15       1.0  0.49624  0.28915  0.96355  1.0000
  C   C16       1.0  0.50376  0.78914  0.53645  1.0000
  C   C17       1.0  0.80554  0.19772  0.87650  1.0000
  C   C18       1.0  0.19448  0.69771  0.62350  1.0000
  C   C19       1.0  0.19448  0.80228  0.12350  1.0000
  C   C20       1.0  0.80552  0.30230  0.37649  1.0000
  C   C21       1.0  0.63863  0.71186  0.94538  1.0000
  C   C22       1.0  0.36137  0.21185  0.55463  1.0000
  C   C23       1.0  0.36136  0.28815  0.05462  1.0000
  C   C24       1.0  0.63862  0.78816  0.44537  1.0000
  N   N1        1.0  0.99943  0.11927  0.85153  1.0000
  N   N2        1.0  0.00059  0.61927  0.64848  1.0000
  N   N3        1.0  0.00060  0.88072  0.14848  1.0000
  N   N4        1.0  0.99940  0.38072  0.35151  1.0000
  N   N5        1.0  0.89443  0.26652  0.72569  1.0000
  N   N6        1.0  0.10561  0.76651  0.77432  1.0000
  N   N7        1.0  0.10557  0.73348  0.27431  1.0000
  N   N8        1.0  0.89439  0.23349  0.22568  1.0000
  N   N9        1.0  0.74338  0.28756  0.80025  1.0000
  N   N10       1.0  0.25668  0.78755  0.69976  1.0000
  N   N11       1.0  0.25664  0.71244  0.19976  1.0000
  N   N12       1.0  0.74332  0.21244  0.30024  1.0000
  N   N13       1.0  0.31367  0.80446  0.04122  1.0000
  N   N14       1.0  0.68633  0.30446  0.45878  1.0000
  N   N15       1.0  0.68634  0.19554  0.95879  1.0000
  N   N16       1.0  0.31367  0.69554  0.54122  1.0000
  O   O1        1.0  0.49195  0.53270  0.27080  1.0000
  O   O2        1.0  0.50795  0.03273  0.22919  1.0000
  O   O3        1.0  0.50803  0.46728  0.72919  1.0000
  O   O4        1.0  0.49203  0.96728  0.77080  1.0000
