data_image0
_chemical_formula_structural       V4Cu2H18C20N6O12
_chemical_formula_sum              "V4 Cu2 H18 C20 N6 O12"
_cell_length_a       7.26733
_cell_length_b       10.4977
_cell_length_c       10.6341
_cell_angle_alpha    110.231
_cell_angle_beta     109.95
_cell_angle_gamma    90.0007

_space_group_name_H-M_alt    "P 1"
_space_group_IT_number       1

loop_
  _space_group_symop_operation_xyz
  'x, y, z'

loop_
  _atom_site_type_symbol
  _atom_site_label
  _atom_site_symmetry_multiplicity
  _atom_site_fract_x
  _atom_site_fract_y
  _atom_site_fract_z
  _atom_site_occupancy
  V   V1        1.0  0.51749  0.30642  0.98900  1.0000
  V   V2        1.0  0.52878  0.69376  0.01143  1.0000
  V   V3        1.0  0.14592  0.49993  0.99993  1.0000
  V   V4        1.0  0.68786  0.00004  0.00021  1.0000
  Cu  Cu1       1.0  0.88049  0.58700  0.25490  1.0000
  Cu  Cu2       1.0  0.62607  0.41313  0.74528  1.0000
  H   H1        1.0  0.16248  0.75710  0.70599  1.0000
  H   H2        1.0  0.45684  0.24289  0.29402  1.0000
  H   H3        1.0  0.15632  0.56763  0.75599  1.0000
  H   H4        1.0  0.40015  0.43227  0.24398  1.0000
  H   H5        1.0  0.12527  0.31366  0.66857  1.0000
  H   H6        1.0  0.45625  0.68621  0.33121  1.0000
  H   H7        1.0  0.01813  0.18037  0.39703  1.0000
  H   H8        1.0  0.62045  0.81964  0.60272  1.0000
  H   H9        1.0  0.93643  0.30970  0.23609  1.0000
  H   H10       1.0  0.69986  0.69041  0.76376  1.0000
  H   H11       1.0  0.30615  0.96333  0.73290  1.0000
  H   H12       1.0  0.57345  0.03670  0.26700  1.0000
  H   H13       1.0  0.36440  0.11764  0.61605  1.0000
  H   H14       1.0  0.74844  0.88229  0.38365  1.0000
  H   H15       1.0  0.22696  0.03246  0.34027  1.0000
  H   H16       1.0  0.88667  0.96740  0.65945  1.0000
  H   H17       1.0  0.03543  0.80189  0.20477  1.0000
  H   H18       1.0  0.83066  0.19795  0.79513  1.0000
  C   C1        1.0  0.07151  0.57283  0.54276  1.0000
  C   C2        1.0  0.52867  0.42716  0.45721  1.0000
  C   C3        1.0  0.11146  0.50678  0.64176  1.0000
  C   C4        1.0  0.46946  0.49315  0.35818  1.0000
  C   C5        1.0  0.09372  0.36527  0.59198  1.0000
  C   C6        1.0  0.50132  0.63466  0.40785  1.0000
  C   C7        1.0  0.03532  0.29150  0.44391  1.0000
  C   C8        1.0  0.59090  0.70851  0.55591  1.0000
  C   C9        1.0  0.98941  0.36306  0.35210  1.0000
  C   C10       1.0  0.63690  0.63700  0.64777  1.0000
  C   C11       1.0  0.13798  0.80065  0.53041  1.0000
  C   C12       1.0  0.60769  0.19934  0.46957  1.0000
  C   C13       1.0  0.24725  0.93117  0.61605  1.0000
  C   C14       1.0  0.63132  0.06881  0.38384  1.0000
  C   C15       1.0  0.28078  0.01634  0.54959  1.0000
  C   C16       1.0  0.73131  0.98362  0.45024  1.0000
  C   C17       1.0  0.20750  0.97022  0.39898  1.0000
  C   C18       1.0  0.80856  0.02970  0.60082  1.0000
  C   C19       1.0  0.09948  0.84160  0.32157  1.0000
  C   C20       1.0  0.77794  0.15830  0.67831  1.0000
  N   N1        1.0  0.06262  0.75916  0.38613  1.0000
  N   N2        1.0  0.67655  0.24079  0.61387  1.0000
  N   N3        1.0  0.10616  0.71487  0.59670  1.0000
  N   N4        1.0  0.50968  0.28513  0.40332  1.0000
  N   N5        1.0  0.00283  0.50130  0.39980  1.0000
  N   N6        1.0  0.60290  0.49875  0.60018  1.0000
  O   O1        1.0  0.70439  0.69734  0.16504  1.0000
  O   O2        1.0  0.54022  0.30295  0.83555  1.0000
  O   O3        1.0  0.28031  0.35219  0.98642  1.0000
  O   O4        1.0  0.29407  0.64756  0.01356  1.0000
  O   O5        1.0  0.08466  0.53697  0.14282  1.0000
  O   O6        1.0  0.94230  0.46296  0.85688  1.0000
  O   O7        1.0  0.53997  0.14441  0.00471  1.0000
  O   O8        1.0  0.53539  0.85594  0.99609  1.0000
  O   O9        1.0  0.74656  0.95350  0.85650  1.0000
  O   O10       1.0  0.89033  0.04632  0.14367  1.0000
  O   O11       1.0  0.68796  0.42450  0.13258  1.0000
  O   O12       1.0  0.55661  0.57591  0.86804  1.0000
