data_image0
_chemical_formula_structural       V4H16C24O16
_chemical_formula_sum              "V4 H16 C24 O16"
_cell_length_a       4.9739
_cell_length_b       6.24658
_cell_length_c       19.6366
_cell_angle_alpha    89.9961
_cell_angle_beta     94.4124
_cell_angle_gamma    89.9948

_space_group_name_H-M_alt    "P 1"
_space_group_IT_number       1

loop_
  _space_group_symop_operation_xyz
  'x, y, z'

loop_
  _atom_site_type_symbol
  _atom_site_label
  _atom_site_symmetry_multiplicity
  _atom_site_fract_x
  _atom_site_fract_y
  _atom_site_fract_z
  _atom_site_occupancy
  V   V1        1.0  0.14417  0.62543  0.22860  1.0000
  V   V2        1.0  0.35590  0.12540  0.27139  1.0000
  V   V3        1.0  0.85527  0.37482  0.77136  1.0000
  V   V4        1.0  0.64468  0.87487  0.72865  1.0000
  H   H1        1.0  0.58533  0.44015  0.21900  1.0000
  H   H2        1.0  0.91477  0.94015  0.28101  1.0000
  H   H3        1.0  0.41436  0.56019  0.78085  1.0000
  H   H4        1.0  0.08556  0.06017  0.71914  1.0000
  H   H5        1.0  0.67213  0.72004  0.38795  1.0000
  H   H6        1.0  0.82789  0.22000  0.11206  1.0000
  H   H7        1.0  0.32800  0.27969  0.61214  1.0000
  H   H8        1.0  0.17193  0.77981  0.88784  1.0000
  H   H9        1.0  0.33046  0.90133  0.45205  1.0000
  H   H10       1.0  0.16957  0.40129  0.04796  1.0000
  H   H11       1.0  0.66984  0.09853  0.54806  1.0000
  H   H12       1.0  0.83011  0.59860  0.95192  1.0000
  H   H13       1.0  0.03977  0.90522  0.55054  1.0000
  H   H14       1.0  0.46025  0.40520  0.94948  1.0000
  H   H15       1.0  0.96069  0.09468  0.44961  1.0000
  H   H16       1.0  0.53928  0.59473  0.05037  1.0000
  C   C1        1.0  0.00862  0.40731  0.35615  1.0000
  C   C2        1.0  0.49140  0.90731  0.14385  1.0000
  C   C3        1.0  0.99163  0.59253  0.64395  1.0000
  C   C4        1.0  0.50837  0.09254  0.85607  1.0000
  C   C5        1.0  0.83602  0.40977  0.41425  1.0000
  C   C6        1.0  0.66397  0.90977  0.08575  1.0000
  C   C7        1.0  0.16421  0.59006  0.58586  1.0000
  C   C8        1.0  0.33577  0.09009  0.91415  1.0000
  C   C9        1.0  0.67146  0.58520  0.42315  1.0000
  C   C10       1.0  0.82856  0.08519  0.07686  1.0000
  C   C11       1.0  0.32873  0.41458  0.57696  1.0000
  C   C12       1.0  0.17123  0.91465  0.92303  1.0000
  C   C13       1.0  0.49990  0.58945  0.47712  1.0000
  C   C14       1.0  0.00012  0.08943  0.02288  1.0000
  C   C15       1.0  0.50042  0.41042  0.52302  1.0000
  C   C16       1.0  0.99952  0.91046  0.97697  1.0000
  C   C17       1.0  0.32894  0.76693  0.48751  1.0000
  C   C18       1.0  0.17108  0.26690  0.01251  1.0000
  C   C19       1.0  0.67143  0.23296  0.51263  1.0000
  C   C20       1.0  0.82849  0.73303  0.98736  1.0000
  C   C21       1.0  0.16713  0.76854  0.54114  1.0000
  C   C22       1.0  0.33290  0.26854  0.95887  1.0000
  C   C23       1.0  0.83324  0.23130  0.45899  1.0000
  C   C24       1.0  0.66672  0.73135  0.04100  1.0000
  O   O1        1.0  0.12825  0.23257  0.34300  1.0000
  O   O2        1.0  0.37169  0.73260  0.15699  1.0000
  O   O3        1.0  0.87289  0.76760  0.65725  1.0000
  O   O4        1.0  0.62728  0.26754  0.84278  1.0000
  O   O5        1.0  0.43974  0.42536  0.25074  1.0000
  O   O6        1.0  0.06033  0.92537  0.24925  1.0000
  O   O7        1.0  0.55943  0.57476  0.74897  1.0000
  O   O8        1.0  0.94055  0.07474  0.75104  1.0000
  O   O9        1.0  0.02270  0.58026  0.32143  1.0000
  O   O10       1.0  0.47741  0.08023  0.17857  1.0000
  O   O11       1.0  0.97659  0.41941  0.67851  1.0000
  O   O12       1.0  0.52325  0.91945  0.82148  1.0000
  O   O13       1.0  0.90479  0.50004  0.18472  1.0000
  O   O14       1.0  0.59531  0.00009  0.31530  1.0000
  O   O15       1.0  0.09406  0.50070  0.81526  1.0000
  O   O16       1.0  0.40589  0.00068  0.68471  1.0000
