data_image0
_chemical_formula_structural       Zn2H36C54N8O10
_chemical_formula_sum              "Zn2 H36 C54 N8 O10"
_cell_length_a       8.80232
_cell_length_b       10.9466
_cell_length_c       14.4661
_cell_angle_alpha    110.669
_cell_angle_beta     98.3256
_cell_angle_gamma    98.8955

_space_group_name_H-M_alt    "P 1"
_space_group_IT_number       1

loop_
  _space_group_symop_operation_xyz
  'x, y, z'

loop_
  _atom_site_type_symbol
  _atom_site_label
  _atom_site_symmetry_multiplicity
  _atom_site_fract_x
  _atom_site_fract_y
  _atom_site_fract_z
  _atom_site_occupancy
  Zn  Zn1       1.0  0.13386  0.78225  0.37669  1.0000
  Zn  Zn2       1.0  0.86614  0.21775  0.62331  1.0000
  H   H1        1.0  0.38783  0.46579  0.28113  1.0000
  H   H2        1.0  0.61217  0.53420  0.71887  1.0000
  H   H3        1.0  0.55436  0.32111  0.18622  1.0000
  H   H4        1.0  0.44563  0.67888  0.81378  1.0000
  H   H5        1.0  0.30144  0.32037  0.90755  1.0000
  H   H6        1.0  0.69856  0.67963  0.09246  1.0000
  H   H7        1.0  0.14319  0.46970  0.00251  1.0000
  H   H8        1.0  0.85682  0.53030  0.99749  1.0000
  H   H9        1.0  0.16684  0.86438  0.75503  1.0000
  H   H10       1.0  0.83315  0.13562  0.24497  1.0000
  H   H11       1.0  0.28486  0.03797  0.92919  1.0000
  H   H12       1.0  0.71514  0.96203  0.07081  1.0000
  H   H13       1.0  0.64952  0.20814  0.81247  1.0000
  H   H14       1.0  0.35048  0.79185  0.18753  1.0000
  H   H15       1.0  0.51724  0.04479  0.63672  1.0000
  H   H16       1.0  0.48275  0.95521  0.36328  1.0000
  H   H17       1.0  0.02532  0.78844  0.16123  1.0000
  H   H18       1.0  0.97468  0.21156  0.83877  1.0000
  H   H19       1.0  0.24763  0.10740  0.43655  1.0000
  H   H20       1.0  0.75236  0.89260  0.56344  1.0000
  H   H21       1.0  0.21157  0.20933  0.28497  1.0000
  H   H22       1.0  0.78842  0.79066  0.71502  1.0000
  H   H23       1.0  0.06763  0.79555  0.01668  1.0000
  H   H24       1.0  0.93237  0.20444  0.98331  1.0000
  H   H25       1.0  0.03286  0.20876  0.15149  1.0000
  H   H26       1.0  0.96714  0.79123  0.84850  1.0000
  H   H27       1.0  0.52352  0.71462  0.33813  1.0000
  H   H28       1.0  0.47648  0.28539  0.66187  1.0000
  H   H29       1.0  0.79568  0.82939  0.29393  1.0000
  H   H30       1.0  0.20432  0.17061  0.70606  1.0000
  H   H31       1.0  0.92277  0.61805  0.47565  1.0000
  H   H32       1.0  0.07723  0.38196  0.52435  1.0000
  H   H33       1.0  0.44016  0.70912  0.48698  1.0000
  H   H34       1.0  0.55985  0.29089  0.51303  1.0000
  H   H35       1.0  0.72770  0.41435  0.43824  1.0000
  H   H36       1.0  0.27231  0.58566  0.56177  1.0000
  C   C1        1.0  0.17025  0.57691  0.20606  1.0000
  C   C2        1.0  0.82976  0.42309  0.79394  1.0000
  C   C3        1.0  0.25766  0.47816  0.14814  1.0000
  C   C4        1.0  0.74234  0.52184  0.85187  1.0000
  C   C5        1.0  0.37117  0.43362  0.19931  1.0000
  C   C6        1.0  0.62883  0.56637  0.80068  1.0000
  C   C7        1.0  0.46267  0.35282  0.14678  1.0000
  C   C8        1.0  0.53733  0.64717  0.85322  1.0000
  C   C9        1.0  0.43825  0.31179  0.04121  1.0000
  C   C10       1.0  0.56175  0.68821  0.95879  1.0000
  C   C11       1.0  0.54538  0.23593  0.98530  1.0000
  C   C12       1.0  0.45462  0.76407  0.01470  1.0000
  C   C13       1.0  0.31993  0.35139  0.98949  1.0000
  C   C14       1.0  0.68007  0.64861  0.01051  1.0000
  C   C15       1.0  0.23135  0.43557  0.04257  1.0000
  C   C16       1.0  0.76865  0.56443  0.95743  1.0000
  C   C17       1.0  0.24845  0.85138  0.58177  1.0000
  C   C18       1.0  0.75154  0.14862  0.41823  1.0000
  C   C19       1.0  0.33409  0.94602  0.68625  1.0000
  C   C20       1.0  0.66590  0.05398  0.31375  1.0000
  C   C21       1.0  0.27098  0.94186  0.76890  1.0000
  C   C22       1.0  0.72902  0.05814  0.23110  1.0000
  C   C23       1.0  0.33752  0.03791  0.86543  1.0000
  C   C24       1.0  0.66248  0.96209  0.13457  1.0000
  C   C25       1.0  0.47422  0.13413  0.88108  1.0000
  C   C26       1.0  0.52578  0.86587  0.11892  1.0000
  C   C27       1.0  0.54305  0.13336  0.79938  1.0000
  C   C28       1.0  0.45694  0.86664  0.20062  1.0000
  C   C29       1.0  0.47091  0.04192  0.70198  1.0000
  C   C30       1.0  0.52909  0.95808  0.29802  1.0000
  C   C31       1.0  0.07944  0.88925  0.21523  1.0000
  C   C32       1.0  0.92056  0.11075  0.78477  1.0000
  C   C33       1.0  0.19467  0.05774  0.35654  1.0000
  C   C34       1.0  0.80533  0.94226  0.64346  1.0000
  C   C35       1.0  0.17675  0.10888  0.28267  1.0000
  C   C36       1.0  0.82325  0.89111  0.71733  1.0000
  C   C37       1.0  0.05469  0.00184  0.09554  1.0000
  C   C38       1.0  0.94532  0.99816  0.90446  1.0000
  C   C39       1.0  0.03448  0.88421  0.01014  1.0000
  C   C40       1.0  0.96552  0.11578  0.98986  1.0000
  C   C41       1.0  0.02084  0.11765  0.08542  1.0000
  C   C42       1.0  0.97916  0.88234  0.91458  1.0000
  C   C43       1.0  0.64636  0.71332  0.35925  1.0000
  C   C44       1.0  0.35365  0.28669  0.64075  1.0000
  C   C45       1.0  0.78098  0.76703  0.33720  1.0000
  C   C46       1.0  0.21902  0.23297  0.66280  1.0000
  C   C47       1.0  0.85166  0.65542  0.42878  1.0000
  C   C48       1.0  0.14834  0.34458  0.57122  1.0000
  C   C49       1.0  0.46597  0.61755  0.49246  1.0000
  C   C50       1.0  0.53403  0.38246  0.50755  1.0000
  C   C51       1.0  0.59487  0.57036  0.45900  1.0000
  C   C52       1.0  0.40513  0.42964  0.54100  1.0000
  C   C53       1.0  0.62936  0.45324  0.46617  1.0000
  C   C54       1.0  0.37065  0.54677  0.53383  1.0000
  N   N1        1.0  0.13391  0.92101  0.31330  1.0000
  N   N2        1.0  0.86609  0.07899  0.68670  1.0000
  N   N3        1.0  0.10386  0.00071  0.19317  1.0000
  N   N4        1.0  0.89614  0.99929  0.80683  1.0000
  N   N5        1.0  0.90750  0.73070  0.38130  1.0000
  N   N6        1.0  0.09250  0.26930  0.61870  1.0000
  N   N7        1.0  0.69310  0.64223  0.41697  1.0000
  N   N8        1.0  0.30690  0.35777  0.58304  1.0000
  O   O1        1.0  0.23418  0.63968  0.30245  1.0000
  O   O2        1.0  0.76583  0.36032  0.69755  1.0000
  O   O3        1.0  0.05014  0.59746  0.16174  1.0000
  O   O4        1.0  0.94987  0.40254  0.83826  1.0000
  O   O5        1.0  0.15263  0.74718  0.57019  1.0000
  O   O6        1.0  0.84736  0.25282  0.42981  1.0000
  O   O7        1.0  0.28017  0.88744  0.50883  1.0000
  O   O8        1.0  0.71983  0.11255  0.49117  1.0000
  O   O9        1.0  0.68689  0.25751  0.02279  1.0000
  O   O10       1.0  0.31311  0.74249  0.97721  1.0000
