data_image0
_chemical_formula_structural       Ag4H36C56N16O24
_chemical_formula_sum              "Ag4 H36 C56 N16 O24"
_cell_length_a       6.42574
_cell_length_b       10.3525
_cell_length_c       22.768
_cell_angle_alpha    99.5772
_cell_angle_beta     89.9997
_cell_angle_gamma    90.0003

_space_group_name_H-M_alt    "P 1"
_space_group_IT_number       1

loop_
  _space_group_symop_operation_xyz
  'x, y, z'

loop_
  _atom_site_type_symbol
  _atom_site_label
  _atom_site_symmetry_multiplicity
  _atom_site_fract_x
  _atom_site_fract_y
  _atom_site_fract_z
  _atom_site_occupancy
  Ag  Ag1       1.0  0.06984  0.57115  0.55559  1.0000
  Ag  Ag2       1.0  0.56984  0.42885  0.94441  1.0000
  Ag  Ag3       1.0  0.93017  0.42885  0.44441  1.0000
  Ag  Ag4       1.0  0.43017  0.57115  0.05559  1.0000
  H   H1        1.0  0.03316  0.72588  0.33363  1.0000
  H   H2        1.0  0.53317  0.27412  0.16636  1.0000
  H   H3        1.0  0.96684  0.27412  0.66637  1.0000
  H   H4        1.0  0.46683  0.72588  0.83363  1.0000
  H   H5        1.0  0.43623  0.38434  0.53840  1.0000
  H   H6        1.0  0.93623  0.61566  0.96161  1.0000
  H   H7        1.0  0.56377  0.61566  0.46160  1.0000
  H   H8        1.0  0.06377  0.38435  0.03840  1.0000
  H   H9        1.0  0.53316  0.53833  0.56419  1.0000
  H   H10       1.0  0.03316  0.46167  0.93582  1.0000
  H   H11       1.0  0.46684  0.46166  0.43581  1.0000
  H   H12       1.0  0.96684  0.53833  0.06419  1.0000
  H   H13       1.0  0.34838  0.23220  0.60373  1.0000
  H   H14       1.0  0.84838  0.76779  0.89627  1.0000
  H   H15       1.0  0.65162  0.76780  0.39628  1.0000
  H   H16       1.0  0.15162  0.23220  0.10373  1.0000
  H   H17       1.0  0.25066  0.12063  0.33123  1.0000
  H   H18       1.0  0.75067  0.87937  0.16877  1.0000
  H   H19       1.0  0.74934  0.87937  0.66877  1.0000
  H   H20       1.0  0.24933  0.12063  0.83123  1.0000
  H   H21       1.0  0.64038  0.55854  0.76762  1.0000
  H   H22       1.0  0.14037  0.44145  0.73238  1.0000
  H   H23       1.0  0.35962  0.44147  0.23238  1.0000
  H   H24       1.0  0.85961  0.55855  0.26762  1.0000
  H   H25       1.0  0.23872  0.96442  0.49608  1.0000
  H   H26       1.0  0.73873  0.03559  0.00392  1.0000
  H   H27       1.0  0.76128  0.03559  0.50392  1.0000
  H   H28       1.0  0.26127  0.96441  0.99608  1.0000
  H   H29       1.0  0.39851  0.17217  0.70317  1.0000
  H   H30       1.0  0.89851  0.82783  0.79683  1.0000
  H   H31       1.0  0.60149  0.82783  0.29683  1.0000
  H   H32       1.0  0.10148  0.17216  0.20317  1.0000
  H   H33       1.0  0.59304  0.61770  0.66774  1.0000
  H   H34       1.0  0.09304  0.38229  0.83226  1.0000
  H   H35       1.0  0.40695  0.38229  0.33226  1.0000
  H   H36       1.0  0.90696  0.61771  0.16774  1.0000
  C   C1        1.0  0.09135  0.81882  0.35720  1.0000
  C   C2        1.0  0.59136  0.18119  0.14279  1.0000
  C   C3        1.0  0.90865  0.18119  0.64280  1.0000
  C   C4        1.0  0.40865  0.81881  0.85720  1.0000
  C   C5        1.0  0.41285  0.30339  0.63961  1.0000
  C   C6        1.0  0.91284  0.69661  0.86039  1.0000
  C   C7        1.0  0.58716  0.69661  0.36039  1.0000
  C   C8        1.0  0.08716  0.30339  0.13961  1.0000
  C   C9        1.0  0.21470  0.04122  0.35534  1.0000
  C   C10       1.0  0.71470  0.95878  0.14466  1.0000
  C   C11       1.0  0.78530  0.95878  0.64466  1.0000
  C   C12       1.0  0.28529  0.04122  0.85534  1.0000
  C   C13       1.0  0.57934  0.48691  0.73136  1.0000
  C   C14       1.0  0.07933  0.51309  0.76865  1.0000
  C   C15       1.0  0.42067  0.51309  0.26865  1.0000
  C   C16       1.0  0.92067  0.48691  0.23136  1.0000
  C   C17       1.0  0.20876  0.95201  0.44849  1.0000
  C   C18       1.0  0.70877  0.04799  0.05151  1.0000
  C   C19       1.0  0.79125  0.04800  0.55151  1.0000
  C   C20       1.0  0.29124  0.95200  0.94848  1.0000
  C   C21       1.0  0.09164  0.71860  0.45017  1.0000
  C   C22       1.0  0.59164  0.28140  0.04982  1.0000
  C   C23       1.0  0.90837  0.28141  0.54983  1.0000
  C   C24       1.0  0.40836  0.71859  0.95017  1.0000
  C   C25       1.0  0.52768  0.36035  0.74201  1.0000
  C   C26       1.0  0.02767  0.63964  0.75799  1.0000
  C   C27       1.0  0.47232  0.63965  0.25798  1.0000
  C   C28       1.0  0.97233  0.36036  0.24201  1.0000
  C   C29       1.0  0.44182  0.26940  0.69534  1.0000
  C   C30       1.0  0.94182  0.73060  0.80466  1.0000
  C   C31       1.0  0.55818  0.73060  0.30466  1.0000
  C   C32       1.0  0.05818  0.26940  0.19534  1.0000
  C   C33       1.0  0.47097  0.42843  0.62829  1.0000
  C   C34       1.0  0.97096  0.57156  0.87171  1.0000
  C   C35       1.0  0.52903  0.57157  0.37171  1.0000
  C   C36       1.0  0.02904  0.42844  0.12829  1.0000
  C   C37       1.0  0.55201  0.52011  0.67553  1.0000
  C   C38       1.0  0.05201  0.47988  0.82447  1.0000
  C   C39       1.0  0.44798  0.47988  0.32447  1.0000
  C   C40       1.0  0.94799  0.52012  0.17553  1.0000
  C   C41       1.0  0.24888  0.05327  0.41644  1.0000
  C   C42       1.0  0.74888  0.94673  0.08356  1.0000
  C   C43       1.0  0.75112  0.94674  0.58356  1.0000
  C   C44       1.0  0.25112  0.05327  0.91644  1.0000
  C   C45       1.0  0.13038  0.83343  0.41838  1.0000
  C   C46       1.0  0.63039  0.16658  0.08162  1.0000
  C   C47       1.0  0.86963  0.16658  0.58162  1.0000
  C   C48       1.0  0.36962  0.83342  0.91838  1.0000
  C   C49       1.0  0.13405  0.92228  0.32707  1.0000
  C   C50       1.0  0.63406  0.07772  0.17293  1.0000
  C   C51       1.0  0.86595  0.07772  0.67293  1.0000
  C   C52       1.0  0.36594  0.92228  0.82707  1.0000
  C   C53       1.0  0.55672  0.32908  0.79954  1.0000
  C   C54       1.0  0.05671  0.67092  0.70047  1.0000
  C   C55       1.0  0.44327  0.67093  0.20046  1.0000
  C   C56       1.0  0.94325  0.32907  0.29954  1.0000
  N   N1        1.0  0.09567  0.90331  0.26255  1.0000
  N   N2        1.0  0.59567  0.09670  0.23745  1.0000
  N   N3        1.0  0.90433  0.09669  0.73745  1.0000
  N   N4        1.0  0.40432  0.90331  0.76255  1.0000
  N   N5        1.0  0.44473  0.46172  0.57249  1.0000
  N   N6        1.0  0.94472  0.53828  0.92751  1.0000
  N   N7        1.0  0.55528  0.53828  0.42751  1.0000
  N   N8        1.0  0.05529  0.46172  0.07249  1.0000
  N   N9        1.0  0.32988  0.17754  0.44808  1.0000
  N   N10       1.0  0.82988  0.82246  0.05192  1.0000
  N   N11       1.0  0.67013  0.82246  0.55192  1.0000
  N   N12       1.0  0.17013  0.17754  0.94808  1.0000
  N   N13       1.0  0.58285  0.30580  0.84764  1.0000
  N   N14       1.0  0.08286  0.69419  0.65236  1.0000
  N   N15       1.0  0.41714  0.69420  0.15235  1.0000
  N   N16       1.0  0.91713  0.30581  0.34764  1.0000
  O   O1        1.0  0.11277  0.73922  0.50648  1.0000
  O   O2        1.0  0.61277  0.26078  0.99352  1.0000
  O   O3        1.0  0.88723  0.26078  0.49352  1.0000
  O   O4        1.0  0.38723  0.73922  0.00648  1.0000
  O   O5        1.0  0.38089  0.18359  0.50120  1.0000
  O   O6        1.0  0.88089  0.81640  0.99880  1.0000
  O   O7        1.0  0.61912  0.81641  0.49880  1.0000
  O   O8        1.0  0.11912  0.18359  0.00120  1.0000
  O   O9        1.0  0.04248  0.61262  0.41669  1.0000
  O   O10       1.0  0.54248  0.38739  0.08331  1.0000
  O   O11       1.0  0.95752  0.38739  0.58331  1.0000
  O   O12       1.0  0.45752  0.61261  0.91669  1.0000
  O   O13       1.0  0.99379  0.80602  0.24026  1.0000
  O   O14       1.0  0.49378  0.19398  0.25974  1.0000
  O   O15       1.0  0.00621  0.19398  0.75974  1.0000
  O   O16       1.0  0.50621  0.80602  0.74026  1.0000
  O   O17       1.0  0.16725  0.98573  0.23415  1.0000
  O   O18       1.0  0.66724  0.01427  0.26584  1.0000
  O   O19       1.0  0.83276  0.01427  0.76584  1.0000
  O   O20       1.0  0.33275  0.98573  0.73415  1.0000
  O   O21       1.0  0.34188  0.27155  0.42073  1.0000
  O   O22       1.0  0.84188  0.72845  0.07927  1.0000
  O   O23       1.0  0.65812  0.72845  0.57927  1.0000
  O   O24       1.0  0.15811  0.27155  0.92073  1.0000
