data_image0
_chemical_formula_structural       Zn8H32C32N64
_chemical_formula_sum              "Zn8 H32 C32 N64"
_cell_length_a       8.50616
_cell_length_b       11.0257
_cell_length_c       15.0822
_cell_angle_alpha    90
_cell_angle_beta     90
_cell_angle_gamma    90

_space_group_name_H-M_alt    "P 1"
_space_group_IT_number       1

loop_
  _space_group_symop_operation_xyz
  'x, y, z'

loop_
  _atom_site_type_symbol
  _atom_site_label
  _atom_site_symmetry_multiplicity
  _atom_site_fract_x
  _atom_site_fract_y
  _atom_site_fract_z
  _atom_site_occupancy
  Zn  Zn1       1.0  0.89311  0.88605  0.90555  1.0000
  Zn  Zn2       1.0  0.60689  0.11395  0.40555  1.0000
  Zn  Zn3       1.0  0.10689  0.38605  0.59445  1.0000
  Zn  Zn4       1.0  0.39311  0.61395  0.09445  1.0000
  Zn  Zn5       1.0  0.10689  0.11395  0.09445  1.0000
  Zn  Zn6       1.0  0.39311  0.88605  0.59445  1.0000
  Zn  Zn7       1.0  0.89311  0.61395  0.40555  1.0000
  Zn  Zn8       1.0  0.60689  0.38605  0.90555  1.0000
  H   H1        1.0  0.92380  0.63180  0.75913  1.0000
  H   H2        1.0  0.57620  0.36820  0.25913  1.0000
  H   H3        1.0  0.07620  0.13180  0.74087  1.0000
  H   H4        1.0  0.42380  0.86820  0.24087  1.0000
  H   H5        1.0  0.07620  0.36820  0.24087  1.0000
  H   H6        1.0  0.42380  0.63180  0.74087  1.0000
  H   H7        1.0  0.92380  0.86820  0.25913  1.0000
  H   H8        1.0  0.57620  0.13180  0.75913  1.0000
  H   H9        1.0  0.09257  0.54099  0.77095  1.0000
  H   H10       1.0  0.40743  0.45901  0.27095  1.0000
  H   H11       1.0  0.90743  0.04099  0.72905  1.0000
  H   H12       1.0  0.59257  0.95901  0.22905  1.0000
  H   H13       1.0  0.90743  0.45901  0.22905  1.0000
  H   H14       1.0  0.59257  0.54099  0.72905  1.0000
  H   H15       1.0  0.09257  0.95901  0.27095  1.0000
  H   H16       1.0  0.40743  0.04099  0.77095  1.0000
  H   H17       1.0  0.97135  0.46595  0.92074  1.0000
  H   H18       1.0  0.52865  0.53405  0.42074  1.0000
  H   H19       1.0  0.02865  0.96595  0.57926  1.0000
  H   H20       1.0  0.47135  0.03405  0.07926  1.0000
  H   H21       1.0  0.02865  0.53405  0.07926  1.0000
  H   H22       1.0  0.47135  0.46595  0.57926  1.0000
  H   H23       1.0  0.97135  0.03405  0.42074  1.0000
  H   H24       1.0  0.52865  0.96595  0.92074  1.0000
  H   H25       1.0  0.05448  0.61378  0.91470  1.0000
  H   H26       1.0  0.44552  0.38622  0.41470  1.0000
  H   H27       1.0  0.94552  0.11378  0.58530  1.0000
  H   H28       1.0  0.55448  0.88622  0.08530  1.0000
  H   H29       1.0  0.94552  0.38622  0.08530  1.0000
  H   H30       1.0  0.55448  0.61378  0.58530  1.0000
  H   H31       1.0  0.05448  0.88622  0.41470  1.0000
  H   H32       1.0  0.44552  0.11378  0.91470  1.0000
  C   C1        1.0  0.96832  0.54747  0.78946  1.0000
  C   C2        1.0  0.53168  0.45253  0.28946  1.0000
  C   C3        1.0  0.03168  0.04747  0.71054  1.0000
  C   C4        1.0  0.46832  0.95253  0.21054  1.0000
  C   C5        1.0  0.03168  0.45253  0.21054  1.0000
  C   C6        1.0  0.46832  0.54747  0.71054  1.0000
  C   C7        1.0  0.96832  0.95253  0.28946  1.0000
  C   C8        1.0  0.53168  0.04747  0.78946  1.0000
  C   C9        1.0  0.80863  0.61122  0.92527  1.0000
  C   C10       1.0  0.69137  0.38878  0.42527  1.0000
  C   C11       1.0  0.19137  0.11122  0.57473  1.0000
  C   C12       1.0  0.30863  0.88878  0.07473  1.0000
  C   C13       1.0  0.19137  0.38878  0.07473  1.0000
  C   C14       1.0  0.30863  0.61122  0.57473  1.0000
  C   C15       1.0  0.80863  0.88878  0.42527  1.0000
  C   C16       1.0  0.69137  0.11122  0.92527  1.0000
  C   C17       1.0  0.95734  0.55650  0.89134  1.0000
  C   C18       1.0  0.54266  0.44350  0.39134  1.0000
  C   C19       1.0  0.04266  0.05650  0.60866  1.0000
  C   C20       1.0  0.45734  0.94350  0.10866  1.0000
  C   C21       1.0  0.04266  0.44350  0.10866  1.0000
  C   C22       1.0  0.45734  0.55650  0.60866  1.0000
  C   C23       1.0  0.95734  0.94350  0.39134  1.0000
  C   C24       1.0  0.54266  0.05650  0.89134  1.0000
  C   C25       1.0  0.88339  0.44172  0.75128  1.0000
  C   C26       1.0  0.61662  0.55828  0.25128  1.0000
  C   C27       1.0  0.11661  0.94172  0.74872  1.0000
  C   C28       1.0  0.38339  0.05828  0.24872  1.0000
  C   C29       1.0  0.11661  0.55828  0.24872  1.0000
  C   C30       1.0  0.38339  0.44172  0.74872  1.0000
  C   C31       1.0  0.88339  0.05828  0.25128  1.0000
  C   C32       1.0  0.61662  0.94172  0.75128  1.0000
  N   N1        1.0  0.78308  0.73013  0.93981  1.0000
  N   N2        1.0  0.71692  0.26987  0.43981  1.0000
  N   N3        1.0  0.21692  0.23013  0.56019  1.0000
  N   N4        1.0  0.28308  0.76987  0.06019  1.0000
  N   N5        1.0  0.21692  0.26987  0.06019  1.0000
  N   N6        1.0  0.28308  0.73013  0.56019  1.0000
  N   N7        1.0  0.78308  0.76987  0.43981  1.0000
  N   N8        1.0  0.71692  0.23013  0.93981  1.0000
  N   N9        1.0  0.67690  0.55089  0.94704  1.0000
  N   N10       1.0  0.82310  0.44911  0.44704  1.0000
  N   N11       1.0  0.32310  0.05089  0.55296  1.0000
  N   N12       1.0  0.17690  0.94910  0.05296  1.0000
  N   N13       1.0  0.32310  0.44910  0.05296  1.0000
  N   N14       1.0  0.17690  0.55089  0.55296  1.0000
  N   N15       1.0  0.67690  0.94910  0.44704  1.0000
  N   N16       1.0  0.82310  0.05089  0.94704  1.0000
  N   N17       1.0  0.57090  0.63511  0.97429  1.0000
  N   N18       1.0  0.92910  0.36489  0.47429  1.0000
  N   N19       1.0  0.42910  0.13511  0.52571  1.0000
  N   N20       1.0  0.07090  0.86489  0.02571  1.0000
  N   N21       1.0  0.42910  0.36489  0.02571  1.0000
  N   N22       1.0  0.07090  0.63511  0.52571  1.0000
  N   N23       1.0  0.57090  0.86489  0.47429  1.0000
  N   N24       1.0  0.92910  0.13511  0.97429  1.0000
  N   N25       1.0  0.63460  0.74230  0.96941  1.0000
  N   N26       1.0  0.86540  0.25770  0.46941  1.0000
  N   N27       1.0  0.36540  0.24230  0.53059  1.0000
  N   N28       1.0  0.13460  0.75770  0.03059  1.0000
  N   N29       1.0  0.36540  0.25770  0.03059  1.0000
  N   N30       1.0  0.13460  0.74230  0.53059  1.0000
  N   N31       1.0  0.63460  0.75770  0.46941  1.0000
  N   N32       1.0  0.86540  0.24230  0.96941  1.0000
  N   N33       1.0  0.91599  0.38682  0.67337  1.0000
  N   N34       1.0  0.58401  0.61318  0.17337  1.0000
  N   N35       1.0  0.08401  0.88682  0.82663  1.0000
  N   N36       1.0  0.41599  0.11318  0.32663  1.0000
  N   N37       1.0  0.08401  0.61318  0.32663  1.0000
  N   N38       1.0  0.41599  0.38682  0.82663  1.0000
  N   N39       1.0  0.91599  0.11318  0.17337  1.0000
  N   N40       1.0  0.58401  0.88682  0.67337  1.0000
  N   N41       1.0  0.75941  0.38595  0.78792  1.0000
  N   N42       1.0  0.74059  0.61405  0.28792  1.0000
  N   N43       1.0  0.24059  0.88595  0.71208  1.0000
  N   N44       1.0  0.25941  0.11405  0.21208  1.0000
  N   N45       1.0  0.24059  0.61405  0.21208  1.0000
  N   N46       1.0  0.25941  0.38595  0.71208  1.0000
  N   N47       1.0  0.75941  0.11405  0.28792  1.0000
  N   N48       1.0  0.74059  0.88595  0.78792  1.0000
  N   N49       1.0  0.80990  0.29601  0.66325  1.0000
  N   N50       1.0  0.69010  0.70399  0.16325  1.0000
  N   N51       1.0  0.19010  0.79601  0.83675  1.0000
  N   N52       1.0  0.30990  0.20399  0.33675  1.0000
  N   N53       1.0  0.19010  0.70399  0.33675  1.0000
  N   N54       1.0  0.30990  0.29601  0.83675  1.0000
  N   N55       1.0  0.80990  0.20399  0.16325  1.0000
  N   N56       1.0  0.69010  0.79601  0.66325  1.0000
  N   N57       1.0  0.71683  0.29570  0.73151  1.0000
  N   N58       1.0  0.78317  0.70430  0.23151  1.0000
  N   N59       1.0  0.28316  0.79570  0.76849  1.0000
  N   N60       1.0  0.21684  0.20430  0.26849  1.0000
  N   N61       1.0  0.28317  0.70430  0.26849  1.0000
  N   N62       1.0  0.21684  0.29570  0.76849  1.0000
  N   N63       1.0  0.71684  0.20430  0.23151  1.0000
  N   N64       1.0  0.78317  0.79570  0.73151  1.0000
