data_image0
_chemical_formula_structural       Zn4H24C16N32O4
_chemical_formula_sum              "Zn4 H24 C16 N32 O4"
_cell_length_a       5.81483
_cell_length_b       9.53111
_cell_length_c       14.2622
_cell_angle_alpha    90.0001
_cell_angle_beta     90
_cell_angle_gamma    101.531

_space_group_name_H-M_alt    "P 1"
_space_group_IT_number       1

loop_
  _space_group_symop_operation_xyz
  'x, y, z'

loop_
  _atom_site_type_symbol
  _atom_site_label
  _atom_site_symmetry_multiplicity
  _atom_site_fract_x
  _atom_site_fract_y
  _atom_site_fract_z
  _atom_site_occupancy
  Zn  Zn1       1.0  0.79681  0.19284  0.39831  1.0000
  Zn  Zn2       1.0  0.20319  0.30716  0.89831  1.0000
  Zn  Zn3       1.0  0.20319  0.80716  0.60169  1.0000
  Zn  Zn4       1.0  0.79681  0.69284  0.10169  1.0000
  H   H1        1.0  0.08535  0.67481  0.27209  1.0000
  H   H2        1.0  0.91466  0.82519  0.77209  1.0000
  H   H3        1.0  0.91466  0.32519  0.72792  1.0000
  H   H4        1.0  0.08534  0.17481  0.22791  1.0000
  H   H5        1.0  0.26888  0.55720  0.23948  1.0000
  H   H6        1.0  0.73112  0.94280  0.73949  1.0000
  H   H7        1.0  0.73112  0.44280  0.76052  1.0000
  H   H8        1.0  0.26888  0.05720  0.26051  1.0000
  H   H9        1.0  0.28814  0.63643  0.40876  1.0000
  H   H10       1.0  0.71187  0.86357  0.90876  1.0000
  H   H11       1.0  0.71186  0.36357  0.59124  1.0000
  H   H12       1.0  0.28814  0.13643  0.09124  1.0000
  H   H13       1.0  0.99826  0.53681  0.42511  1.0000
  H   H14       1.0  0.00174  0.96319  0.92511  1.0000
  H   H15       1.0  0.00174  0.46319  0.57489  1.0000
  H   H16       1.0  0.99826  0.03681  0.07489  1.0000
  H   H17       1.0  0.63088  0.11006  0.57468  1.0000
  H   H18       1.0  0.36912  0.38994  0.07468  1.0000
  H   H19       1.0  0.36912  0.88994  0.42532  1.0000
  H   H20       1.0  0.63088  0.61006  0.92532  1.0000
  H   H21       1.0  0.76127  0.99123  0.53841  1.0000
  H   H22       1.0  0.23873  0.50876  0.03841  1.0000
  H   H23       1.0  0.23873  0.00876  0.46159  1.0000
  H   H24       1.0  0.76127  0.49124  0.96159  1.0000
  C   C1        1.0  0.90290  0.46696  0.24108  1.0000
  C   C2        1.0  0.09710  0.03304  0.74108  1.0000
  C   C3        1.0  0.09710  0.53304  0.75892  1.0000
  C   C4        1.0  0.90290  0.96696  0.25892  1.0000
  C   C5        1.0  0.11225  0.56486  0.28080  1.0000
  C   C6        1.0  0.88775  0.93514  0.78080  1.0000
  C   C7        1.0  0.88775  0.43514  0.71920  1.0000
  C   C8        1.0  0.11225  0.06486  0.21920  1.0000
  C   C9        1.0  0.16104  0.54257  0.38498  1.0000
  C   C10       1.0  0.83896  0.95743  0.88498  1.0000
  C   C11       1.0  0.83896  0.45743  0.61502  1.0000
  C   C12       1.0  0.16104  0.04257  0.11502  1.0000
  C   C13       1.0  0.26396  0.41474  0.40423  1.0000
  C   C14       1.0  0.73605  0.08526  0.90423  1.0000
  C   C15       1.0  0.73605  0.58526  0.59577  1.0000
  C   C16       1.0  0.26395  0.91474  0.09577  1.0000
  N   N1        1.0  0.81700  0.32978  0.26454  1.0000
  N   N2        1.0  0.18300  0.17022  0.76454  1.0000
  N   N3        1.0  0.18300  0.67022  0.73546  1.0000
  N   N4        1.0  0.81700  0.82978  0.23546  1.0000
  N   N5        1.0  0.62822  0.28429  0.20900  1.0000
  N   N6        1.0  0.37178  0.21571  0.70900  1.0000
  N   N7        1.0  0.37178  0.71571  0.79100  1.0000
  N   N8        1.0  0.62822  0.78429  0.29100  1.0000
  N   N9        1.0  0.60048  0.38864  0.15387  1.0000
  N   N10       1.0  0.39952  0.11136  0.65387  1.0000
  N   N11       1.0  0.39952  0.61136  0.84613  1.0000
  N   N12       1.0  0.60048  0.88863  0.34613  1.0000
  N   N13       1.0  0.76955  0.50532  0.17217  1.0000
  N   N14       1.0  0.23045  0.99468  0.67217  1.0000
  N   N15       1.0  0.23045  0.49468  0.82783  1.0000
  N   N16       1.0  0.76955  0.00532  0.32783  1.0000
  N   N17       1.0  0.29350  0.19673  0.43349  1.0000
  N   N18       1.0  0.70650  0.30327  0.93349  1.0000
  N   N19       1.0  0.70650  0.80327  0.56651  1.0000
  N   N20       1.0  0.29350  0.69673  0.06651  1.0000
  N   N21       1.0  0.13910  0.28158  0.42153  1.0000
  N   N22       1.0  0.86090  0.21842  0.92153  1.0000
  N   N23       1.0  0.86090  0.71842  0.57847  1.0000
  N   N24       1.0  0.13910  0.78158  0.07847  1.0000
  N   N25       1.0  0.50458  0.27702  0.42319  1.0000
  N   N26       1.0  0.49542  0.22298  0.92319  1.0000
  N   N27       1.0  0.49542  0.72298  0.57681  1.0000
  N   N28       1.0  0.50458  0.77702  0.07681  1.0000
  N   N29       1.0  0.49371  0.41355  0.40524  1.0000
  N   N30       1.0  0.50629  0.08645  0.90525  1.0000
  N   N31       1.0  0.50629  0.58645  0.59476  1.0000
  N   N32       1.0  0.49371  0.91355  0.09476  1.0000
  O   O1        1.0  0.76495  0.09591  0.53380  1.0000
  O   O2        1.0  0.23505  0.40409  0.03380  1.0000
  O   O3        1.0  0.23505  0.90409  0.46620  1.0000
  O   O4        1.0  0.76495  0.59591  0.96620  1.0000
