data_image0
_chemical_formula_structural       Cu2H48C32N24Cl4
_chemical_formula_sum              "Cu2 H48 C32 N24 Cl4"
_cell_length_a       7.4383
_cell_length_b       8.68372
_cell_length_c       17.6213
_cell_angle_alpha    89.9998
_cell_angle_beta     90
_cell_angle_gamma    115.167

_space_group_name_H-M_alt    "P 1"
_space_group_IT_number       1

loop_
  _space_group_symop_operation_xyz
  'x, y, z'

loop_
  _atom_site_type_symbol
  _atom_site_label
  _atom_site_symmetry_multiplicity
  _atom_site_fract_x
  _atom_site_fract_y
  _atom_site_fract_z
  _atom_site_occupancy
  Cu  Cu1       1.0  0.50000  1.00000  0.50000  1.0000
  Cu  Cu2       1.0  0.50000  0.50000  0.00000  1.0000
  H   H1        1.0  0.32321  0.92233  0.32968  1.0000
  H   H2        1.0  0.67678  0.57767  0.82968  1.0000
  H   H3        1.0  0.67679  0.07767  0.67032  1.0000
  H   H4        1.0  0.32321  0.42233  0.17032  1.0000
  H   H5        1.0  0.82795  0.88439  0.42075  1.0000
  H   H6        1.0  0.17205  0.61560  0.92075  1.0000
  H   H7        1.0  0.17205  0.11561  0.57925  1.0000
  H   H8        1.0  0.82794  0.38439  0.07925  1.0000
  H   H9        1.0  0.71688  0.66426  0.23550  1.0000
  H   H10       1.0  0.28312  0.83574  0.73550  1.0000
  H   H11       1.0  0.28312  0.33574  0.76450  1.0000
  H   H12       1.0  0.71688  0.16426  0.26450  1.0000
  H   H13       1.0  0.88721  0.72531  0.31282  1.0000
  H   H14       1.0  0.11279  0.77469  0.81282  1.0000
  H   H15       1.0  0.11278  0.27469  0.68718  1.0000
  H   H16       1.0  0.88722  0.22531  0.18718  1.0000
  H   H17       1.0  0.07851  0.00867  0.25518  1.0000
  H   H18       1.0  0.92149  0.49134  0.75519  1.0000
  H   H19       1.0  0.92149  0.99133  0.74482  1.0000
  H   H20       1.0  0.07851  0.50867  0.24481  1.0000
  H   H21       1.0  0.90126  0.96476  0.18157  1.0000
  H   H22       1.0  0.09874  0.53524  0.68157  1.0000
  H   H23       1.0  0.09875  0.03524  0.81843  1.0000
  H   H24       1.0  0.90126  0.46476  0.31843  1.0000
  H   H25       1.0  0.14511  0.76025  0.21132  1.0000
  H   H26       1.0  0.85489  0.73975  0.71132  1.0000
  H   H27       1.0  0.85489  0.23975  0.78868  1.0000
  H   H28       1.0  0.14511  0.26025  0.28868  1.0000
  H   H29       1.0  0.97969  0.72988  0.13403  1.0000
  H   H30       1.0  0.02031  0.77012  0.63403  1.0000
  H   H31       1.0  0.02031  0.27012  0.86597  1.0000
  H   H32       1.0  0.97969  0.22988  0.36597  1.0000
  H   H33       1.0  0.19968  0.01294  0.08226  1.0000
  H   H34       1.0  0.80032  0.48705  0.58227  1.0000
  H   H35       1.0  0.80032  0.98706  0.91774  1.0000
  H   H36       1.0  0.19968  0.51295  0.41773  1.0000
  H   H37       1.0  0.35152  0.06021  0.16458  1.0000
  H   H38       1.0  0.64848  0.43979  0.66459  1.0000
  H   H39       1.0  0.64848  0.93979  0.83542  1.0000
  H   H40       1.0  0.35152  0.56021  0.33541  1.0000
  H   H41       1.0  0.17681  0.62455  0.06499  1.0000
  H   H42       1.0  0.82319  0.87545  0.56499  1.0000
  H   H43       1.0  0.82319  0.37545  0.93501  1.0000
  H   H44       1.0  0.17681  0.12455  0.43501  1.0000
  H   H45       1.0  0.79626  0.89788  0.04585  1.0000
  H   H46       1.0  0.20374  0.60212  0.54586  1.0000
  H   H47       1.0  0.20374  0.10212  0.95414  1.0000
  H   H48       1.0  0.79626  0.39788  0.45414  1.0000
  C   C1        1.0  0.45768  0.90323  0.33393  1.0000
  C   C2        1.0  0.54232  0.59677  0.83393  1.0000
  C   C3        1.0  0.54233  0.09677  0.66607  1.0000
  C   C4        1.0  0.45768  0.40323  0.16607  1.0000
  C   C5        1.0  0.71250  0.88680  0.38308  1.0000
  C   C6        1.0  0.28749  0.61319  0.88308  1.0000
  C   C7        1.0  0.28750  0.11320  0.61692  1.0000
  C   C8        1.0  0.71250  0.38680  0.11692  1.0000
  C   C9        1.0  0.81731  0.77253  0.26933  1.0000
  C   C10       1.0  0.18269  0.72748  0.76933  1.0000
  C   C11       1.0  0.18269  0.22747  0.73067  1.0000
  C   C12       1.0  0.81731  0.27253  0.23067  1.0000
  C   C13       1.0  0.97284  0.90656  0.21923  1.0000
  C   C14       1.0  0.02716  0.59345  0.71923  1.0000
  C   C15       1.0  0.02716  0.09345  0.78077  1.0000
  C   C16       1.0  0.97285  0.40655  0.28077  1.0000
  C   C17       1.0  0.08363  0.82577  0.17291  1.0000
  C   C18       1.0  0.91637  0.67423  0.67291  1.0000
  C   C19       1.0  0.91637  0.17423  0.82709  1.0000
  C   C20       1.0  0.08364  0.32577  0.32709  1.0000
  C   C21       1.0  0.25424  0.95691  0.12767  1.0000
  C   C22       1.0  0.74576  0.54309  0.62767  1.0000
  C   C23       1.0  0.74576  0.04309  0.87233  1.0000
  C   C24       1.0  0.25424  0.45691  0.37233  1.0000
  C   C25       1.0  0.32673  0.72422  0.06906  1.0000
  C   C26       1.0  0.67326  0.77578  0.56906  1.0000
  C   C27       1.0  0.67326  0.27578  0.93094  1.0000
  C   C28       1.0  0.32673  0.22421  0.43094  1.0000
  C   C29       1.0  0.64229  0.86685  0.05937  1.0000
  C   C30       1.0  0.35771  0.63315  0.55937  1.0000
  C   C31       1.0  0.35771  0.13315  0.94063  1.0000
  C   C32       1.0  0.64229  0.36685  0.44063  1.0000
  N   N1        1.0  0.56535  0.93148  0.39929  1.0000
  N   N2        1.0  0.43465  0.56851  0.89929  1.0000
  N   N3        1.0  0.43465  0.06852  0.60071  1.0000
  N   N4        1.0  0.56535  0.43148  0.10071  1.0000
  N   N5        1.0  0.69301  0.83578  0.31049  1.0000
  N   N6        1.0  0.30699  0.66422  0.81049  1.0000
  N   N7        1.0  0.30699  0.16422  0.68951  1.0000
  N   N8        1.0  0.69301  0.33578  0.18951  1.0000
  N   N9        1.0  0.53066  0.84440  0.27790  1.0000
  N   N10       1.0  0.46934  0.65560  0.77790  1.0000
  N   N11       1.0  0.46934  0.15560  0.72210  1.0000
  N   N12       1.0  0.53066  0.34440  0.22210  1.0000
  N   N13       1.0  0.37951  0.88260  0.09506  1.0000
  N   N14       1.0  0.62049  0.61740  0.59506  1.0000
  N   N15       1.0  0.62049  0.11740  0.90494  1.0000
  N   N16       1.0  0.37951  0.38260  0.40494  1.0000
  N   N17       1.0  0.57966  0.97559  0.08937  1.0000
  N   N18       1.0  0.42033  0.52441  0.58937  1.0000
  N   N19       1.0  0.42033  0.02441  0.91063  1.0000
  N   N20       1.0  0.57967  0.47559  0.41063  1.0000
  N   N21       1.0  0.49093  0.71003  0.04639  1.0000
  N   N22       1.0  0.50907  0.78997  0.54639  1.0000
  N   N23       1.0  0.50907  0.28997  0.95361  1.0000
  N   N24       1.0  0.49093  0.21003  0.45361  1.0000
  Cl  Cl1       1.0  0.08540  0.80291  0.46353  1.0000
  Cl  Cl2       1.0  0.91460  0.69709  0.96353  1.0000
  Cl  Cl3       1.0  0.91460  0.19709  0.53647  1.0000
  Cl  Cl4       1.0  0.08540  0.30291  0.03647  1.0000
