data_image0
_chemical_formula_structural       Cd3H38C30S2N12O20
_chemical_formula_sum              "Cd3 H38 C30 S2 N12 O20"
_cell_length_a       9.21591
_cell_length_b       9.57002
_cell_length_c       13.6626
_cell_angle_alpha    84.9844
_cell_angle_beta     83.4298
_cell_angle_gamma    68.2822

_space_group_name_H-M_alt    "P 1"
_space_group_IT_number       1

loop_
  _space_group_symop_operation_xyz
  'x, y, z'

loop_
  _atom_site_type_symbol
  _atom_site_label
  _atom_site_symmetry_multiplicity
  _atom_site_fract_x
  _atom_site_fract_y
  _atom_site_fract_z
  _atom_site_occupancy
  Cd  Cd1       1.0  0.00000  1.00000  1.00000  1.0000
  Cd  Cd2       1.0  0.52225  0.18848  0.50273  1.0000
  Cd  Cd3       1.0  0.47774  0.81152  0.49727  1.0000
  H   H1        1.0  0.19528  0.09328  0.16064  1.0000
  H   H2        1.0  0.80472  0.90672  0.83936  1.0000
  H   H3        1.0  0.42535  0.76529  0.95170  1.0000
  H   H4        1.0  0.57466  0.23470  0.04830  1.0000
  H   H5        1.0  0.73474  0.82566  0.07057  1.0000
  H   H6        1.0  0.26527  0.17432  0.92943  1.0000
  H   H7        1.0  0.70243  0.69846  0.99676  1.0000
  H   H8        1.0  0.29757  0.30153  0.00324  1.0000
  H   H9        1.0  0.82966  0.56712  0.14489  1.0000
  H   H10       1.0  0.17034  0.43287  0.85512  1.0000
  H   H11       1.0  0.67404  0.68714  0.22419  1.0000
  H   H12       1.0  0.32596  0.31285  0.77581  1.0000
  H   H13       1.0  0.48329  0.59471  0.15981  1.0000
  H   H14       1.0  0.51671  0.40528  0.84018  1.0000
  H   H15       1.0  0.63529  0.47704  0.07930  1.0000
  H   H16       1.0  0.36471  0.52295  0.92070  1.0000
  H   H17       1.0  0.43399  0.48528  0.32762  1.0000
  H   H18       1.0  0.56601  0.51472  0.67238  1.0000
  H   H19       1.0  0.84944  0.10104  0.32705  1.0000
  H   H20       1.0  0.15056  0.89896  0.67295  1.0000
  H   H21       1.0  0.67130  0.77005  0.72896  1.0000
  H   H22       1.0  0.32869  0.22995  0.27105  1.0000
  H   H23       1.0  0.07543  0.35635  0.71871  1.0000
  H   H24       1.0  0.92457  0.64365  0.28129  1.0000
  H   H25       1.0  0.04622  0.71314  0.49936  1.0000
  H   H26       1.0  0.95377  0.28688  0.50064  1.0000
  H   H27       1.0  0.70348  0.35380  0.55634  1.0000
  H   H28       1.0  0.29651  0.64621  0.44366  1.0000
  H   H29       1.0  0.77819  0.17530  0.57522  1.0000
  H   H30       1.0  0.22180  0.82471  0.42477  1.0000
  H   H31       1.0  0.94353  0.32073  0.00577  1.0000
  H   H32       1.0  0.05648  0.67927  0.99423  1.0000
  H   H33       1.0  0.90255  0.25994  0.11619  1.0000
  H   H34       1.0  0.09746  0.74006  0.88381  1.0000
  H   H35       1.0  0.86752  0.89512  0.19294  1.0000
  H   H36       1.0  0.13249  0.10488  0.80706  1.0000
  H   H37       1.0  0.05301  0.81511  0.17837  1.0000
  H   H38       1.0  0.94700  0.18489  0.82163  1.0000
  C   C1        1.0  0.28497  0.00424  0.12004  1.0000
  C   C2        1.0  0.71503  0.99576  0.87996  1.0000
  C   C3        1.0  0.39596  0.83986  0.01234  1.0000
  C   C4        1.0  0.60404  0.16014  0.98767  1.0000
  C   C5        1.0  0.66922  0.75129  0.06797  1.0000
  C   C6        1.0  0.33078  0.24870  0.93203  1.0000
  C   C7        1.0  0.70319  0.63290  0.15308  1.0000
  C   C8        1.0  0.29681  0.36709  0.84693  1.0000
  C   C9        1.0  0.60987  0.53143  0.15009  1.0000
  C   C10       1.0  0.39014  0.46856  0.84991  1.0000
  C   C11       1.0  0.54872  0.40169  0.30850  1.0000
  C   C12       1.0  0.45128  0.59831  0.69150  1.0000
  C   C13       1.0  0.76095  0.20771  0.30584  1.0000
  C   C14       1.0  0.23905  0.79229  0.69416  1.0000
  C   C15       1.0  0.85067  0.75573  0.60888  1.0000
  C   C16       1.0  0.14932  0.24428  0.39112  1.0000
  C   C17       1.0  0.78569  0.70171  0.69484  1.0000
  C   C18       1.0  0.21431  0.29830  0.30517  1.0000
  C   C19       1.0  0.86887  0.55947  0.73533  1.0000
  C   C20       1.0  0.13112  0.44053  0.26467  1.0000
  C   C21       1.0  0.01294  0.46993  0.69004  1.0000
  C   C22       1.0  0.98705  0.53008  0.30995  1.0000
  C   C23       1.0  0.08004  0.52509  0.60611  1.0000
  C   C24       1.0  0.91995  0.47493  0.39389  1.0000
  C   C25       1.0  0.99846  0.66907  0.56615  1.0000
  C   C26       1.0  0.00153  0.33094  0.43386  1.0000
  C   C27       1.0  0.76033  0.90500  0.56112  1.0000
  C   C28       1.0  0.23966  0.09501  0.43889  1.0000
  C   C29       1.0  0.23649  0.42719  0.56009  1.0000
  C   C30       1.0  0.76350  0.57283  0.43991  1.0000
  S   S1        1.0  0.79293  0.48565  0.84509  1.0000
  S   S2        1.0  0.20708  0.51434  0.15491  1.0000
  N   N1        1.0  0.25569  0.94041  0.04218  1.0000
  N   N2        1.0  0.74432  0.05958  0.95782  1.0000
  N   N3        1.0  0.50299  0.84518  0.06963  1.0000
  N   N4        1.0  0.49702  0.15481  0.93037  1.0000
  N   N5        1.0  0.43406  0.94925  0.13921  1.0000
  N   N6        1.0  0.56595  0.05075  0.86079  1.0000
  N   N7        1.0  0.64228  0.41315  0.22827  1.0000
  N   N8        1.0  0.35772  0.58685  0.77173  1.0000
  N   N9        1.0  0.77809  0.29042  0.22521  1.0000
  N   N10       1.0  0.22191  0.70957  0.77480  1.0000
  N   N11       1.0  0.62051  0.27250  0.35918  1.0000
  N   N12       1.0  0.37949  0.72750  0.64082  1.0000
  O   O1        1.0  0.60826  0.94931  0.57534  1.0000
  O   O2        1.0  0.39173  0.05070  0.42467  1.0000
  O   O3        1.0  0.83110  0.98053  0.51126  1.0000
  O   O4        1.0  0.16889  0.01947  0.48874  1.0000
  O   O5        1.0  0.30364  0.47693  0.48662  1.0000
  O   O6        1.0  0.69635  0.52309  0.51338  1.0000
  O   O7        1.0  0.29660  0.29319  0.59813  1.0000
  O   O8        1.0  0.70339  0.70683  0.40186  1.0000
  O   O9        1.0  0.78720  0.34116  0.81850  1.0000
  O   O10       1.0  0.21282  0.65883  0.18150  1.0000
  O   O11       1.0  0.90713  0.46344  0.91791  1.0000
  O   O12       1.0  0.09287  0.53655  0.08209  1.0000
  O   O13       1.0  0.63787  0.59708  0.87227  1.0000
  O   O14       1.0  0.36213  0.40290  0.12773  1.0000
  O   O15       1.0  0.68464  0.26443  0.59118  1.0000
  O   O16       1.0  0.31536  0.73558  0.40881  1.0000
  O   O17       1.0  0.97008  0.23154  0.05313  1.0000
  O   O18       1.0  0.02992  0.76846  0.94687  1.0000
  O   O19       1.0  0.96289  0.91339  0.16944  1.0000
  O   O20       1.0  0.03712  0.08661  0.83055  1.0000
