data_image0
_chemical_formula_structural       Cd2H40C32N4O10
_chemical_formula_sum              "Cd2 H40 C32 N4 O10"
_cell_length_a       8.59927
_cell_length_b       10.9271
_cell_length_c       10.9271
_cell_angle_alpha    116.125
_cell_angle_beta     92.0309
_cell_angle_gamma    92.0309

_space_group_name_H-M_alt    "P 1"
_space_group_IT_number       1

loop_
  _space_group_symop_operation_xyz
  'x, y, z'

loop_
  _atom_site_type_symbol
  _atom_site_label
  _atom_site_symmetry_multiplicity
  _atom_site_fract_x
  _atom_site_fract_y
  _atom_site_fract_z
  _atom_site_occupancy
  Cd  Cd1       1.0  0.25000  0.39208  0.60792  1.0000
  Cd  Cd2       1.0  0.75000  0.60792  0.39208  1.0000
  H   H1        1.0  0.79998  0.36787  0.85595  1.0000
  H   H2        1.0  0.70002  0.14405  0.63213  1.0000
  H   H3        1.0  0.20002  0.63213  0.14405  1.0000
  H   H4        1.0  0.29998  0.85595  0.36787  1.0000
  H   H5        1.0  0.74221  0.48835  0.79409  1.0000
  H   H6        1.0  0.75779  0.20591  0.51165  1.0000
  H   H7        1.0  0.25779  0.51166  0.20591  1.0000
  H   H8        1.0  0.24221  0.79409  0.48835  1.0000
  H   H9        1.0  0.86562  0.54118  0.94573  1.0000
  H   H10       1.0  0.63438  0.05427  0.45882  1.0000
  H   H11       1.0  0.13438  0.45882  0.05427  1.0000
  H   H12       1.0  0.36562  0.94573  0.54118  1.0000
  H   H13       1.0  0.31775  0.50876  0.92859  1.0000
  H   H14       1.0  0.18225  0.07140  0.49123  1.0000
  H   H15       1.0  0.68225  0.49123  0.07140  1.0000
  H   H16       1.0  0.81775  0.92860  0.50877  1.0000
  H   H17       1.0  0.47517  0.69350  0.12810  1.0000
  H   H18       1.0  0.02483  0.87190  0.30650  1.0000
  H   H19       1.0  0.52483  0.30650  0.87190  1.0000
  H   H20       1.0  0.97517  0.12810  0.69350  1.0000
  H   H21       1.0  0.63343  0.84680  0.84864  1.0000
  H   H22       1.0  0.86657  0.15136  0.15320  1.0000
  H   H23       1.0  0.36657  0.15320  0.15136  1.0000
  H   H24       1.0  0.13343  0.84864  0.84680  1.0000
  H   H25       1.0  0.47643  0.65806  0.66395  1.0000
  H   H26       1.0  0.02357  0.33605  0.34194  1.0000
  H   H27       1.0  0.52357  0.34194  0.33606  1.0000
  H   H28       1.0  0.97643  0.66394  0.65806  1.0000
  H   H29       1.0  0.63432  0.99811  0.12582  1.0000
  H   H30       1.0  0.86567  0.87418  0.00189  1.0000
  H   H31       1.0  0.36568  0.00188  0.87418  1.0000
  H   H32       1.0  0.13433  0.12582  0.99812  1.0000
  H   H33       1.0  0.63332  0.89818  0.21792  1.0000
  H   H34       1.0  0.86668  0.78207  0.10182  1.0000
  H   H35       1.0  0.36668  0.10182  0.78208  1.0000
  H   H36       1.0  0.13332  0.21793  0.89818  1.0000
  H   H37       1.0  0.16116  0.52200  0.42317  1.0000
  H   H38       1.0  0.33884  0.57682  0.47800  1.0000
  H   H39       1.0  0.83884  0.47799  0.57682  1.0000
  H   H40       1.0  0.66116  0.42317  0.52200  1.0000
  C   C1        1.0  0.98219  0.43081  0.76315  1.0000
  C   C2        1.0  0.51781  0.23685  0.56919  1.0000
  C   C3        1.0  0.01781  0.56919  0.23685  1.0000
  C   C4        1.0  0.48219  0.76315  0.43081  1.0000
  C   C5        1.0  0.83701  0.45823  0.84297  1.0000
  C   C6        1.0  0.66299  0.15703  0.54177  1.0000
  C   C7        1.0  0.16299  0.54177  0.15703  1.0000
  C   C8        1.0  0.33701  0.84297  0.45823  1.0000
  C   C9        1.0  0.38985  0.58642  0.91666  1.0000
  C   C10       1.0  0.11016  0.08334  0.41357  1.0000
  C   C11       1.0  0.61015  0.41357  0.08334  1.0000
  C   C12       1.0  0.88985  0.91666  0.58642  1.0000
  C   C13       1.0  0.47581  0.68918  0.02646  1.0000
  C   C14       1.0  0.02419  0.97354  0.31082  1.0000
  C   C15       1.0  0.52419  0.31082  0.97354  1.0000
  C   C16       1.0  0.97581  0.02646  0.68918  1.0000
  C   C17       1.0  0.56547  0.78716  0.00569  1.0000
  C   C18       1.0  0.93453  0.99431  0.21284  1.0000
  C   C19       1.0  0.43453  0.21284  0.99431  1.0000
  C   C20       1.0  0.06547  0.00569  0.78716  1.0000
  C   C21       1.0  0.56467  0.77490  0.87246  1.0000
  C   C22       1.0  0.93533  0.12754  0.22510  1.0000
  C   C23       1.0  0.43533  0.22510  0.12754  1.0000
  C   C24       1.0  0.06467  0.87246  0.77490  1.0000
  C   C25       1.0  0.47672  0.66885  0.76786  1.0000
  C   C26       1.0  0.02328  0.23214  0.33115  1.0000
  C   C27       1.0  0.52328  0.33115  0.23214  1.0000
  C   C28       1.0  0.97672  0.76786  0.66885  1.0000
  C   C29       1.0  0.66195  0.89837  0.12080  1.0000
  C   C30       1.0  0.83805  0.87920  0.10163  1.0000
  C   C31       1.0  0.33805  0.10163  0.87920  1.0000
  C   C32       1.0  0.16195  0.12079  0.89837  1.0000
  N   N1        1.0  0.38946  0.57605  0.78940  1.0000
  N   N2        1.0  0.11054  0.21060  0.42395  1.0000
  N   N3        1.0  0.61053  0.42395  0.21060  1.0000
  N   N4        1.0  0.88947  0.78940  0.57605  1.0000
  O   O1        1.0  0.08975  0.36769  0.78877  1.0000
  O   O2        1.0  0.41026  0.21123  0.63231  1.0000
  O   O3        1.0  0.91026  0.63231  0.21123  1.0000
  O   O4        1.0  0.58975  0.78877  0.36769  1.0000
  O   O5        1.0  0.99394  0.47484  0.67212  1.0000
  O   O6        1.0  0.50606  0.32788  0.52516  1.0000
  O   O7        1.0  0.00606  0.52516  0.32788  1.0000
  O   O8        1.0  0.49394  0.67212  0.47484  1.0000
  O   O9        1.0  0.25000  0.51792  0.48208  1.0000
  O   O10       1.0  0.75000  0.48208  0.51792  1.0000
