data_image0
_chemical_formula_structural       Zn2H56C44N8O12
_chemical_formula_sum              "Zn2 H56 C44 N8 O12"
_cell_length_a       8.31539
_cell_length_b       11.3942
_cell_length_c       13.2946
_cell_angle_alpha    98.9415
_cell_angle_beta     105.577
_cell_angle_gamma    96.4617

_space_group_name_H-M_alt    "P 1"
_space_group_IT_number       1

loop_
  _space_group_symop_operation_xyz
  'x, y, z'

loop_
  _atom_site_type_symbol
  _atom_site_label
  _atom_site_symmetry_multiplicity
  _atom_site_fract_x
  _atom_site_fract_y
  _atom_site_fract_z
  _atom_site_occupancy
  Zn  Zn1       1.0  0.43420  0.29276  0.29315  1.0000
  Zn  Zn2       1.0  0.56580  0.70724  0.70685  1.0000
  H   H1        1.0  0.17835  0.08650  0.30401  1.0000
  H   H2        1.0  0.82165  0.91350  0.69599  1.0000
  H   H3        1.0  0.74645  0.38649  0.22017  1.0000
  H   H4        1.0  0.25355  0.61351  0.77983  1.0000
  H   H5        1.0  0.87396  0.09928  0.21891  1.0000
  H   H6        1.0  0.12604  0.90072  0.78109  1.0000
  H   H7        1.0  0.76089  0.07501  0.08315  1.0000
  H   H8        1.0  0.23912  0.92499  0.91685  1.0000
  H   H9        1.0  0.81637  0.87924  0.11834  1.0000
  H   H10       1.0  0.18364  0.12077  0.88166  1.0000
  H   H11       1.0  0.76007  0.90202  0.23796  1.0000
  H   H12       1.0  0.23993  0.09799  0.76204  1.0000
  H   H13       1.0  0.53063  0.76298  0.08668  1.0000
  H   H14       1.0  0.46938  0.23702  0.91332  1.0000
  H   H15       1.0  0.51352  0.88116  0.01559  1.0000
  H   H16       1.0  0.48648  0.11884  0.98441  1.0000
  H   H17       1.0  0.29094  0.88668  0.10478  1.0000
  H   H18       1.0  0.70906  0.11332  0.89522  1.0000
  H   H19       1.0  0.42522  0.86395  0.22344  1.0000
  H   H20       1.0  0.57478  0.13605  0.77656  1.0000
  H   H21       1.0  0.73626  0.73427  0.31176  1.0000
  H   H22       1.0  0.26375  0.26573  0.68824  1.0000
  H   H23       1.0  0.60674  0.70363  0.39630  1.0000
  H   H24       1.0  0.39326  0.29637  0.60370  1.0000
  H   H25       1.0  0.51169  0.69915  0.25977  1.0000
  H   H26       1.0  0.48831  0.30085  0.74023  1.0000
  H   H27       1.0  0.11151  0.41590  0.50813  1.0000
  H   H28       1.0  0.88849  0.58410  0.49187  1.0000
  H   H29       1.0  0.00176  0.27185  0.51200  1.0000
  H   H30       1.0  0.99825  0.72815  0.48800  1.0000
  H   H31       1.0  0.92570  0.34587  0.40512  1.0000
  H   H32       1.0  0.07431  0.65413  0.59488  1.0000
  H   H33       1.0  0.63115  0.46588  0.49661  1.0000
  H   H34       1.0  0.36885  0.53412  0.50339  1.0000
  H   H35       1.0  0.81582  0.47184  0.67514  1.0000
  H   H36       1.0  0.18418  0.52816  0.32486  1.0000
  H   H37       1.0  0.75836  0.08294  0.59696  1.0000
  H   H38       1.0  0.24164  0.91706  0.40304  1.0000
  H   H39       1.0  0.57343  0.09414  0.41834  1.0000
  H   H40       1.0  0.42657  0.90586  0.58166  1.0000
  H   H41       1.0  0.05543  0.27735  0.75045  1.0000
  H   H42       1.0  0.94458  0.72265  0.24956  1.0000
  H   H43       1.0  0.89613  0.18414  0.77926  1.0000
  H   H44       1.0  0.10387  0.81586  0.22074  1.0000
  H   H45       1.0  0.97643  0.46110  0.83243  1.0000
  H   H46       1.0  0.02356  0.53890  0.16757  1.0000
  H   H47       1.0  0.80237  0.37785  0.85717  1.0000
  H   H48       1.0  0.19762  0.62214  0.14283  1.0000
  H   H49       1.0  0.84848  0.28600  0.01647  1.0000
  H   H50       1.0  0.15151  0.71400  0.98353  1.0000
  H   H51       1.0  0.04976  0.25090  0.17930  1.0000
  H   H52       1.0  0.95023  0.74910  0.82070  1.0000
  H   H53       1.0  0.46337  0.38760  0.09148  1.0000
  H   H54       1.0  0.53662  0.61240  0.90852  1.0000
  H   H55       1.0  0.27662  0.42619  0.92083  1.0000
  H   H56       1.0  0.72337  0.57381  0.07917  1.0000
  C   C1        1.0  0.46322  0.04139  0.19762  1.0000
  C   C2        1.0  0.53678  0.95861  0.80238  1.0000
  C   C3        1.0  0.61514  0.11413  0.18989  1.0000
  C   C4        1.0  0.38487  0.88587  0.81011  1.0000
  C   C5        1.0  0.75310  0.05522  0.16058  1.0000
  C   C6        1.0  0.24690  0.94478  0.83942  1.0000
  C   C7        1.0  0.72789  0.91932  0.15619  1.0000
  C   C8        1.0  0.27211  0.08068  0.84381  1.0000
  C   C9        1.0  0.54539  0.86154  0.09650  1.0000
  C   C10       1.0  0.45461  0.13846  0.90350  1.0000
  C   C11       1.0  0.42339  0.90837  0.15507  1.0000
  C   C12       1.0  0.57662  0.09163  0.84493  1.0000
  C   C13       1.0  0.62825  0.54610  0.29007  1.0000
  C   C14       1.0  0.37175  0.45390  0.70993  1.0000
  C   C15       1.0  0.62308  0.67951  0.31705  1.0000
  C   C16       1.0  0.37692  0.32049  0.68296  1.0000
  C   C17       1.0  0.14052  0.26565  0.39622  1.0000
  C   C18       1.0  0.85948  0.73435  0.60378  1.0000
  C   C19       1.0  0.04070  0.32898  0.46101  1.0000
  C   C20       1.0  0.95930  0.67102  0.53899  1.0000
  C   C21       1.0  0.66320  0.38258  0.52101  1.0000
  C   C22       1.0  0.33680  0.61741  0.47898  1.0000
  C   C23       1.0  0.76823  0.38458  0.62236  1.0000
  C   C24       1.0  0.23177  0.61542  0.37764  1.0000
  C   C25       1.0  0.80753  0.27673  0.65262  1.0000
  C   C26       1.0  0.19247  0.72326  0.34738  1.0000
  C   C27       1.0  0.73430  0.17008  0.57761  1.0000
  C   C28       1.0  0.26571  0.82991  0.42239  1.0000
  C   C29       1.0  0.63108  0.17578  0.47781  1.0000
  C   C30       1.0  0.36892  0.82422  0.52219  1.0000
  C   C31       1.0  0.92663  0.27219  0.75883  1.0000
  C   C32       1.0  0.07337  0.72781  0.24117  1.0000
  C   C33       1.0  0.93071  0.37467  0.85013  1.0000
  C   C34       1.0  0.06929  0.62533  0.14987  1.0000
  C   C35       1.0  0.04608  0.35747  0.95316  1.0000
  C   C36       1.0  0.95391  0.64252  0.04684  1.0000
  C   C37       1.0  0.98398  0.30777  0.02781  1.0000
  C   C38       1.0  0.01601  0.69223  0.97219  1.0000
  C   C39       1.0  0.09624  0.28809  0.11985  1.0000
  C   C40       1.0  0.90376  0.71191  0.88015  1.0000
  C   C41       1.0  0.32592  0.36502  0.07071  1.0000
  C   C42       1.0  0.67408  0.63498  0.92929  1.0000
  C   C43       1.0  0.22238  0.38699  0.97673  1.0000
  C   C44       1.0  0.77762  0.61301  0.02327  1.0000
  N   N1        1.0  0.36865  0.09715  0.24593  1.0000
  N   N2        1.0  0.63136  0.90285  0.75406  1.0000
  N   N3        1.0  0.62215  0.23034  0.21083  1.0000
  N   N4        1.0  0.37785  0.76966  0.78917  1.0000
  N   N5        1.0  0.59623  0.28039  0.44859  1.0000
  N   N6        1.0  0.40377  0.71961  0.55141  1.0000
  N   N7        1.0  0.26498  0.31581  0.14154  1.0000
  N   N8        1.0  0.73502  0.68419  0.85846  1.0000
  O   O1        1.0  0.22776  0.02796  0.25098  1.0000
  O   O2        1.0  0.77224  0.97204  0.74902  1.0000
  O   O3        1.0  0.76591  0.29606  0.20464  1.0000
  O   O4        1.0  0.23409  0.70394  0.79536  1.0000
  O   O5        1.0  0.52936  0.47659  0.32103  1.0000
  O   O6        1.0  0.47064  0.52341  0.67897  1.0000
  O   O7        1.0  0.72750  0.51297  0.23642  1.0000
  O   O8        1.0  0.27250  0.48703  0.76358  1.0000
  O   O9        1.0  0.24650  0.33071  0.36614  1.0000
  O   O10       1.0  0.75351  0.66930  0.63386  1.0000
  O   O11       1.0  0.10722  0.15059  0.37320  1.0000
  O   O12       1.0  0.89279  0.84941  0.62680  1.0000
