data_image0
_chemical_formula_structural       Cd2H28C32N4O12
_chemical_formula_sum              "Cd2 H28 C32 N4 O12"
_cell_length_a       7.979
_cell_length_b       10.303
_cell_length_c       11.9697
_cell_angle_alpha    89.445
_cell_angle_beta     102.65
_cell_angle_gamma    107.176

_space_group_name_H-M_alt    "P 1"
_space_group_IT_number       1

loop_
  _space_group_symop_operation_xyz
  'x, y, z'

loop_
  _atom_site_type_symbol
  _atom_site_label
  _atom_site_symmetry_multiplicity
  _atom_site_fract_x
  _atom_site_fract_y
  _atom_site_fract_z
  _atom_site_occupancy
  Cd  Cd1       1.0  0.21524  0.11747  0.48159  1.0000
  Cd  Cd2       1.0  0.78476  0.88252  0.51841  1.0000
  H   H1        1.0  0.56423  0.18517  0.43859  1.0000
  H   H2        1.0  0.43577  0.81482  0.56141  1.0000
  H   H3        1.0  0.46256  0.29682  0.40300  1.0000
  H   H4        1.0  0.53744  0.70317  0.59700  1.0000
  H   H5        1.0  0.77285  0.35358  0.82218  1.0000
  H   H6        1.0  0.22716  0.64643  0.17782  1.0000
  H   H7        1.0  0.26121  0.94052  0.69234  1.0000
  H   H8        1.0  0.73878  0.05949  0.30767  1.0000
  H   H9        1.0  0.83349  0.32439  0.22494  1.0000
  H   H10       1.0  0.16651  0.67560  0.77507  1.0000
  H   H11       1.0  0.48169  0.93815  0.87431  1.0000
  H   H12       1.0  0.51830  0.06186  0.12570  1.0000
  H   H13       1.0  0.68722  0.50247  0.15956  1.0000
  H   H14       1.0  0.31277  0.49753  0.84045  1.0000
  H   H15       1.0  0.53727  0.33853  0.64144  1.0000
  H   H16       1.0  0.46274  0.66148  0.35855  1.0000
  H   H17       1.0  0.81649  0.73695  0.25480  1.0000
  H   H18       1.0  0.18352  0.26305  0.74520  1.0000
  H   H19       1.0  0.23718  0.61139  0.47516  1.0000
  H   H20       1.0  0.76282  0.38860  0.52484  1.0000
  H   H21       1.0  0.17637  0.17077  0.08644  1.0000
  H   H22       1.0  0.82363  0.82923  0.91356  1.0000
  H   H23       1.0  0.99711  0.14758  0.15884  1.0000
  H   H24       1.0  0.00289  0.85242  0.84116  1.0000
  H   H25       1.0  0.84712  0.03661  0.80709  1.0000
  H   H26       1.0  0.15287  0.96338  0.19291  1.0000
  H   H27       1.0  0.08182  0.10107  0.86832  1.0000
  H   H28       1.0  0.91817  0.89893  0.13168  1.0000
  C   C1        1.0  0.77592  0.15420  0.97567  1.0000
  C   C2        1.0  0.22409  0.84581  0.02432  1.0000
  C   C3        1.0  0.66143  0.26043  0.79654  1.0000
  C   C4        1.0  0.33857  0.73958  0.20345  1.0000
  C   C5        1.0  0.64725  0.14603  0.86189  1.0000
  C   C6        1.0  0.35274  0.85397  0.13810  1.0000
  C   C7        1.0  0.12995  0.35004  0.39808  1.0000
  C   C8        1.0  0.87005  0.64995  0.60193  1.0000
  C   C9        1.0  0.37703  0.02955  0.72403  1.0000
  C   C10       1.0  0.62297  0.97045  0.27597  1.0000
  C   C11       1.0  0.88876  0.42653  0.26584  1.0000
  C   C12       1.0  0.11123  0.57347  0.73417  1.0000
  C   C13       1.0  0.50144  0.02903  0.82534  1.0000
  C   C14       1.0  0.49857  0.97097  0.17466  1.0000
  C   C15       1.0  0.80786  0.52719  0.22894  1.0000
  C   C16       1.0  0.19214  0.47281  0.77107  1.0000
  C   C17       1.0  0.53191  0.25252  0.69594  1.0000
  C   C18       1.0  0.46808  0.74749  0.30405  1.0000
  C   C19       1.0  0.04413  0.45758  0.35470  1.0000
  C   C20       1.0  0.95587  0.54242  0.64530  1.0000
  C   C21       1.0  0.88023  0.65818  0.28097  1.0000
  C   C22       1.0  0.11977  0.34182  0.71904  1.0000
  C   C23       1.0  0.11936  0.83262  0.42025  1.0000
  C   C24       1.0  0.88065  0.16738  0.57975  1.0000
  C   C25       1.0  0.11780  0.58956  0.40545  1.0000
  C   C26       1.0  0.88221  0.41044  0.59455  1.0000
  C   C27       1.0  0.03728  0.69065  0.36893  1.0000
  C   C28       1.0  0.96273  0.30935  0.63108  1.0000
  C   C29       1.0  0.04134  0.10492  0.09092  1.0000
  C   C30       1.0  0.95866  0.89507  0.90908  1.0000
  C   C31       1.0  0.95162  0.03939  0.88417  1.0000
  C   C32       1.0  0.04838  0.96060  0.11582  1.0000
  N   N1        1.0  0.39393  0.13887  0.65995  1.0000
  N   N2        1.0  0.60606  0.86114  0.34005  1.0000
  N   N3        1.0  0.91570  0.10291  0.98138  1.0000
  N   N4        1.0  0.08429  0.89709  0.01862  1.0000
  O   O1        1.0  0.27942  0.87321  0.47892  1.0000
  O   O2        1.0  0.72059  0.12679  0.52109  1.0000
  O   O3        1.0  0.74670  0.20699  0.05957  1.0000
  O   O4        1.0  0.25332  0.79302  0.94042  1.0000
  O   O5        1.0  0.28412  0.38418  0.46586  1.0000
  O   O6        1.0  0.71588  0.61581  0.53414  1.0000
  O   O7        1.0  0.03887  0.22553  0.36531  1.0000
  O   O8        1.0  0.96112  0.77447  0.63469  1.0000
  O   O9        1.0  0.02145  0.91429  0.39873  1.0000
  O   O10       1.0  0.97855  0.08571  0.60127  1.0000
  O   O11       1.0  0.45485  0.20151  0.38851  1.0000
  O   O12       1.0  0.54515  0.79848  0.61148  1.0000
