data_image0
_chemical_formula_structural       Hg4H44C64I8Br4N8
_chemical_formula_sum              "Hg4 H44 C64 I8 Br4 N8"
_cell_length_a       7.28446
_cell_length_b       8.75751
_cell_length_c       27.9236
_cell_angle_alpha    90.0002
_cell_angle_beta     90
_cell_angle_gamma    90.0001

_space_group_name_H-M_alt    "P 1"
_space_group_IT_number       1

loop_
  _space_group_symop_operation_xyz
  'x, y, z'

loop_
  _atom_site_type_symbol
  _atom_site_label
  _atom_site_symmetry_multiplicity
  _atom_site_fract_x
  _atom_site_fract_y
  _atom_site_fract_z
  _atom_site_occupancy
  Hg  Hg1       1.0  0.70165  0.66400  0.25206  1.0000
  Hg  Hg2       1.0  0.70166  0.16400  0.24794  1.0000
  Hg  Hg3       1.0  0.20166  0.33599  0.74794  1.0000
  Hg  Hg4       1.0  0.20166  0.83600  0.75206  1.0000
  H   H1        1.0  0.52163  0.72748  0.47073  1.0000
  H   H2        1.0  0.52163  0.22747  0.02927  1.0000
  H   H3        1.0  0.02163  0.27253  0.52927  1.0000
  H   H4        1.0  0.02163  0.77253  0.97073  1.0000
  H   H5        1.0  0.54514  0.96240  0.41797  1.0000
  H   H6        1.0  0.54514  0.46239  0.08203  1.0000
  H   H7        1.0  0.04514  0.03760  0.58203  1.0000
  H   H8        1.0  0.04514  0.53760  0.91797  1.0000
  H   H9        1.0  0.62728  0.92861  0.33213  1.0000
  H   H10       1.0  0.62729  0.42861  0.16787  1.0000
  H   H11       1.0  0.12729  0.07139  0.66787  1.0000
  H   H12       1.0  0.12729  0.57139  0.83213  1.0000
  H   H13       1.0  0.66935  0.45859  0.34724  1.0000
  H   H14       1.0  0.66936  0.95858  0.15276  1.0000
  H   H15       1.0  0.16935  0.54141  0.65276  1.0000
  H   H16       1.0  0.16935  0.04142  0.84724  1.0000
  H   H17       1.0  0.61879  0.32853  0.42195  1.0000
  H   H18       1.0  0.61879  0.82853  0.07805  1.0000
  H   H19       1.0  0.11878  0.67147  0.57805  1.0000
  H   H20       1.0  0.11879  0.17147  0.92195  1.0000
  H   H21       1.0  0.36501  0.17047  0.45297  1.0000
  H   H22       1.0  0.36500  0.67046  0.04703  1.0000
  H   H23       1.0  0.86501  0.82954  0.54703  1.0000
  H   H24       1.0  0.86500  0.32954  0.95297  1.0000
  H   H25       1.0  0.33895  0.93246  0.50121  1.0000
  H   H26       1.0  0.33895  0.43245  0.99879  1.0000
  H   H27       1.0  0.83896  0.06754  0.49879  1.0000
  H   H28       1.0  0.83895  0.56754  0.00121  1.0000
  H   H29       1.0  0.60165  0.05970  0.65505  1.0000
  H   H30       1.0  0.60165  0.55970  0.84495  1.0000
  H   H31       1.0  0.10165  0.94029  0.34495  1.0000
  H   H32       1.0  0.10165  0.44030  0.15505  1.0000
  H   H33       1.0  0.71705  0.29730  0.69131  1.0000
  H   H34       1.0  0.71704  0.79730  0.80869  1.0000
  H   H35       1.0  0.21705  0.70269  0.30869  1.0000
  H   H36       1.0  0.21705  0.20270  0.19131  1.0000
  H   H37       1.0  0.72912  0.53776  0.64363  1.0000
  H   H38       1.0  0.72912  0.03776  0.85637  1.0000
  H   H39       1.0  0.22912  0.46224  0.35637  1.0000
  H   H40       1.0  0.22911  0.96224  0.14363  1.0000
  H   H41       1.0  0.62879  0.53698  0.55831  1.0000
  H   H42       1.0  0.62878  0.03698  0.94169  1.0000
  H   H43       1.0  0.12878  0.46302  0.44169  1.0000
  H   H44       1.0  0.12878  0.96302  0.05831  1.0000
  C   C1        1.0  0.55815  0.71996  0.43298  1.0000
  C   C2        1.0  0.55815  0.21996  0.06702  1.0000
  C   C3        1.0  0.05815  0.28004  0.56702  1.0000
  C   C4        1.0  0.05815  0.78004  0.93298  1.0000
  C   C5        1.0  0.57078  0.84827  0.40408  1.0000
  C   C6        1.0  0.57078  0.34827  0.09592  1.0000
  C   C7        1.0  0.07078  0.15173  0.59592  1.0000
  C   C8        1.0  0.07078  0.65173  0.90408  1.0000
  C   C9        1.0  0.61770  0.83037  0.35596  1.0000
  C   C10       1.0  0.61770  0.33036  0.14404  1.0000
  C   C11       1.0  0.11770  0.16963  0.64404  1.0000
  C   C12       1.0  0.11770  0.66963  0.85596  1.0000
  C   C13       1.0  0.64152  0.56820  0.36452  1.0000
  C   C14       1.0  0.64152  0.06820  0.13548  1.0000
  C   C15       1.0  0.14152  0.43180  0.63548  1.0000
  C   C16       1.0  0.14152  0.93180  0.86452  1.0000
  C   C17       1.0  0.59335  0.57577  0.41296  1.0000
  C   C18       1.0  0.59336  0.07576  0.08704  1.0000
  C   C19       1.0  0.09336  0.42424  0.58704  1.0000
  C   C20       1.0  0.09336  0.92424  0.91296  1.0000
  C   C21       1.0  0.57679  0.43456  0.44031  1.0000
  C   C22       1.0  0.57679  0.93455  0.05969  1.0000
  C   C23       1.0  0.07679  0.56544  0.55969  1.0000
  C   C24       1.0  0.07679  0.06544  0.94032  1.0000
  C   C25       1.0  0.49862  0.29857  0.50880  1.0000
  C   C26       1.0  0.49862  0.79857  0.99120  1.0000
  C   C27       1.0  0.99863  0.70143  0.49120  1.0000
  C   C28       1.0  0.99863  0.20143  0.00880  1.0000
  C   C29       1.0  0.42004  0.16769  0.48931  1.0000
  C   C30       1.0  0.42004  0.66769  0.01069  1.0000
  C   C31       1.0  0.92005  0.83231  0.51069  1.0000
  C   C32       1.0  0.92005  0.33231  0.98931  1.0000
  C   C33       1.0  0.40478  0.03280  0.51663  1.0000
  C   C34       1.0  0.40477  0.53280  0.98337  1.0000
  C   C35       1.0  0.90478  0.96720  0.48337  1.0000
  C   C36       1.0  0.90478  0.46720  0.01663  1.0000
  C   C37       1.0  0.47110  0.02890  0.56293  1.0000
  C   C38       1.0  0.47111  0.52889  0.93707  1.0000
  C   C39       1.0  0.97112  0.97110  0.43707  1.0000
  C   C40       1.0  0.97111  0.47111  0.06293  1.0000
  C   C41       1.0  0.54636  0.16046  0.58561  1.0000
  C   C42       1.0  0.54636  0.66046  0.91439  1.0000
  C   C43       1.0  0.04637  0.83954  0.41439  1.0000
  C   C44       1.0  0.04637  0.33954  0.08561  1.0000
  C   C45       1.0  0.60762  0.16379  0.63378  1.0000
  C   C46       1.0  0.60762  0.66379  0.86622  1.0000
  C   C47       1.0  0.10763  0.83621  0.36622  1.0000
  C   C48       1.0  0.10763  0.33621  0.13378  1.0000
  C   C49       1.0  0.67187  0.29711  0.65406  1.0000
  C   C50       1.0  0.67187  0.79711  0.84594  1.0000
  C   C51       1.0  0.17187  0.70289  0.34594  1.0000
  C   C52       1.0  0.17187  0.20289  0.15406  1.0000
  C   C53       1.0  0.67843  0.43315  0.62707  1.0000
  C   C54       1.0  0.67842  0.93315  0.87293  1.0000
  C   C55       1.0  0.17843  0.56685  0.37293  1.0000
  C   C56       1.0  0.17843  0.06685  0.12707  1.0000
  C   C57       1.0  0.62302  0.43349  0.57986  1.0000
  C   C58       1.0  0.62302  0.93349  0.92014  1.0000
  C   C59       1.0  0.12302  0.56651  0.42014  1.0000
  C   C60       1.0  0.12302  0.06651  0.07986  1.0000
  C   C61       1.0  0.55601  0.29878  0.55796  1.0000
  C   C62       1.0  0.55600  0.79877  0.94204  1.0000
  C   C63       1.0  0.05601  0.70122  0.44204  1.0000
  C   C64       1.0  0.05601  0.20123  0.05796  1.0000
  I   I1        1.0  0.39238  0.69213  0.19884  1.0000
  I   I2        1.0  0.39238  0.19213  0.30115  1.0000
  I   I3        1.0  0.89238  0.30787  0.80116  1.0000
  I   I4        1.0  0.89238  0.80787  0.69884  1.0000
  I   I5        1.0  0.94879  0.42011  0.26111  1.0000
  I   I6        1.0  0.94879  0.92011  0.23889  1.0000
  I   I7        1.0  0.44879  0.57989  0.73889  1.0000
  I   I8        1.0  0.44879  0.07989  0.76110  1.0000
  Br  Br1       1.0  0.45493  0.84133  0.59780  1.0000
  Br  Br2       1.0  0.45496  0.34133  0.90220  1.0000
  Br  Br3       1.0  0.95496  0.15867  0.40220  1.0000
  Br  Br4       1.0  0.95496  0.65868  0.09780  1.0000
  N   N1        1.0  0.65189  0.69279  0.33678  1.0000
  N   N2        1.0  0.65190  0.19279  0.16322  1.0000
  N   N3        1.0  0.15190  0.30721  0.66322  1.0000
  N   N4        1.0  0.15189  0.80722  0.83678  1.0000
  N   N5        1.0  0.51792  0.43487  0.48366  1.0000
  N   N6        1.0  0.51792  0.93487  0.01634  1.0000
  N   N7        1.0  0.01792  0.56513  0.51634  1.0000
  N   N8        1.0  0.01792  0.06513  0.98366  1.0000
