data_image0
_chemical_formula_structural       Cu2H22C34N16
_chemical_formula_sum              "Cu2 H22 C34 N16"
_cell_length_a       7.72908
_cell_length_b       10.7521
_cell_length_c       11.5505
_cell_angle_alpha    61.817
_cell_angle_beta     78.4237
_cell_angle_gamma    85.8816

_space_group_name_H-M_alt    "P 1"
_space_group_IT_number       1

loop_
  _space_group_symop_operation_xyz
  'x, y, z'

loop_
  _atom_site_type_symbol
  _atom_site_label
  _atom_site_symmetry_multiplicity
  _atom_site_fract_x
  _atom_site_fract_y
  _atom_site_fract_z
  _atom_site_occupancy
  Cu  Cu1       1.0  0.60213  0.97650  0.72164  1.0000
  Cu  Cu2       1.0  0.39790  0.02349  0.27838  1.0000
  H   H1        1.0  0.87517  0.07736  0.45517  1.0000
  H   H2        1.0  0.12483  0.92266  0.54482  1.0000
  H   H3        1.0  0.03629  0.30732  0.29274  1.0000
  H   H4        1.0  0.96368  0.69270  0.70725  1.0000
  H   H5        1.0  0.96969  0.51751  0.33517  1.0000
  H   H6        1.0  0.03027  0.48250  0.66482  1.0000
  H   H7        1.0  0.76842  0.48114  0.54790  1.0000
  H   H8        1.0  0.23155  0.51887  0.45209  1.0000
  H   H9        1.0  0.84805  0.29805  0.84875  1.0000
  H   H10       1.0  0.15194  0.70193  0.15129  1.0000
  H   H11       1.0  0.82415  0.49369  0.90891  1.0000
  H   H12       1.0  0.17582  0.50630  0.09112  1.0000
  H   H13       1.0  0.56580  0.65006  0.86927  1.0000
  H   H14       1.0  0.43418  0.34994  0.13071  1.0000
  H   H15       1.0  0.31952  0.59970  0.78657  1.0000
  H   H16       1.0  0.68050  0.40032  0.21339  1.0000
  H   H17       1.0  0.33637  0.39658  0.73691  1.0000
  H   H18       1.0  0.66366  0.60343  0.26304  1.0000
  H   H19       1.0  0.32604  0.99530  0.95679  1.0000
  H   H20       1.0  0.67404  0.00468  0.04324  1.0000
  H   H21       1.0  0.40421  0.13985  0.96890  1.0000
  H   H22       1.0  0.59586  0.86012  0.03112  1.0000
  C   C1        1.0  0.85917  0.16901  0.47248  1.0000
  C   C2        1.0  0.14082  0.83100  0.52750  1.0000
  C   C3        1.0  0.94483  0.29837  0.38135  1.0000
  C   C4        1.0  0.05515  0.70164  0.61863  1.0000
  C   C5        1.0  0.91064  0.41350  0.40598  1.0000
  C   C6        1.0  0.08933  0.58651  0.59400  1.0000
  C   C7        1.0  0.79835  0.39438  0.52406  1.0000
  C   C8        1.0  0.20162  0.60562  0.47593  1.0000
  C   C9        1.0  0.72415  0.26061  0.61346  1.0000
  C   C10       1.0  0.27584  0.73939  0.38654  1.0000
  C   C11       1.0  0.61459  0.22653  0.74492  1.0000
  C   C12       1.0  0.38544  0.77346  0.25508  1.0000
  C   C13       1.0  0.59389  0.33701  0.78858  1.0000
  C   C14       1.0  0.40612  0.66298  0.21142  1.0000
  C   C15       1.0  0.73178  0.36371  0.83700  1.0000
  C   C16       1.0  0.26820  0.63628  0.16302  1.0000
  C   C17       1.0  0.71928  0.47532  0.86765  1.0000
  C   C18       1.0  0.28070  0.52467  0.13236  1.0000
  C   C19       1.0  0.57270  0.56153  0.84764  1.0000
  C   C20       1.0  0.42729  0.43847  0.15235  1.0000
  C   C21       1.0  0.43486  0.53335  0.80094  1.0000
  C   C22       1.0  0.56514  0.46666  0.19903  1.0000
  C   C23       1.0  0.44380  0.42045  0.77236  1.0000
  C   C24       1.0  0.55621  0.57956  0.22761  1.0000
  C   C25       1.0  0.44490  0.05102  0.94875  1.0000
  C   C26       1.0  0.55517  0.94896  0.05128  1.0000
  C   C27       1.0  0.23171  0.82587  0.84446  1.0000
  C   C28       1.0  0.76830  0.17412  0.15556  1.0000
  C   C29       1.0  0.93093  0.81281  0.86064  1.0000
  C   C30       1.0  0.06908  0.18717  0.13939  1.0000
  C   C31       1.0  0.66014  0.83748  0.53221  1.0000
  C   C32       1.0  0.33985  0.16254  0.46779  1.0000
  C   C33       1.0  0.78605  0.77652  0.36649  1.0000
  C   C34       1.0  0.21389  0.22351  0.63349  1.0000
  N   N1        1.0  0.75104  0.15113  0.58538  1.0000
  N   N2        1.0  0.24897  0.84887  0.41462  1.0000
  N   N3        1.0  0.54727  0.09982  0.81416  1.0000
  N   N4        1.0  0.45278  0.90016  0.18586  1.0000
  N   N5        1.0  0.37561  0.87372  0.81604  1.0000
  N   N6        1.0  0.62440  0.12628  0.18397  1.0000
  N   N7        1.0  0.08252  0.75837  0.88540  1.0000
  N   N8        1.0  0.91749  0.24162  0.11463  1.0000
  N   N9        1.0  0.78629  0.84790  0.84347  1.0000
  N   N10       1.0  0.21371  0.15208  0.15655  1.0000
  N   N11       1.0  0.64286  0.89511  0.59881  1.0000
  N   N12       1.0  0.35717  0.10488  0.40121  1.0000
  N   N13       1.0  0.66408  0.76900  0.46598  1.0000
  N   N14       1.0  0.33587  0.23104  0.53400  1.0000
  N   N15       1.0  0.88584  0.77212  0.27650  1.0000
  N   N16       1.0  0.11411  0.22791  0.72346  1.0000
