data_image0
_chemical_formula_structural       Hg4H44C64I8N8Cl4
_chemical_formula_sum              "Hg4 H44 C64 I8 N8 Cl4"
_cell_length_a       7.28997
_cell_length_b       8.67815
_cell_length_c       28.0437
_cell_angle_alpha    90
_cell_angle_beta     90.0001
_cell_angle_gamma    89.9997

_space_group_name_H-M_alt    "P 1"
_space_group_IT_number       1

loop_
  _space_group_symop_operation_xyz
  'x, y, z'

loop_
  _atom_site_type_symbol
  _atom_site_label
  _atom_site_symmetry_multiplicity
  _atom_site_fract_x
  _atom_site_fract_y
  _atom_site_fract_z
  _atom_site_occupancy
  Hg  Hg1       1.0  0.49244  0.83432  0.25257  1.0000
  Hg  Hg2       1.0  0.49244  0.33432  0.24743  1.0000
  Hg  Hg3       1.0  0.99244  0.16568  0.74743  1.0000
  Hg  Hg4       1.0  0.99244  0.66568  0.75257  1.0000
  H   H1        1.0  0.52307  0.04032  0.34748  1.0000
  H   H2        1.0  0.52308  0.54032  0.15252  1.0000
  H   H3        1.0  0.02307  0.95968  0.65252  1.0000
  H   H4        1.0  0.02308  0.45968  0.84748  1.0000
  H   H5        1.0  0.67204  0.76823  0.47017  1.0000
  H   H6        1.0  0.67204  0.26824  0.02983  1.0000
  H   H7        1.0  0.17203  0.23176  0.52983  1.0000
  H   H8        1.0  0.17203  0.73176  0.97017  1.0000
  H   H9        1.0  0.56710  0.56640  0.33195  1.0000
  H   H10       1.0  0.56710  0.06640  0.16805  1.0000
  H   H11       1.0  0.06711  0.43360  0.66805  1.0000
  H   H12       1.0  0.06711  0.93360  0.83195  1.0000
  H   H13       1.0  0.57364  0.17096  0.42192  1.0000
  H   H14       1.0  0.57363  0.67096  0.07808  1.0000
  H   H15       1.0  0.07362  0.82904  0.57808  1.0000
  H   H16       1.0  0.07363  0.32904  0.92192  1.0000
  H   H17       1.0  0.64878  0.53165  0.41750  1.0000
  H   H18       1.0  0.64878  0.03165  0.08250  1.0000
  H   H19       1.0  0.14878  0.46835  0.58250  1.0000
  H   H20       1.0  0.14878  0.96835  0.91750  1.0000
  H   H21       1.0  0.83321  0.32707  0.45164  1.0000
  H   H22       1.0  0.83321  0.82708  0.04836  1.0000
  H   H23       1.0  0.33320  0.67292  0.54836  1.0000
  H   H24       1.0  0.33321  0.17292  0.95164  1.0000
  H   H25       1.0  0.86350  0.56908  0.49873  1.0000
  H   H26       1.0  0.86350  0.06908  0.00127  1.0000
  H   H27       1.0  0.36350  0.43092  0.50127  1.0000
  H   H28       1.0  0.36350  0.93092  0.99873  1.0000
  H   H29       1.0  0.56650  0.96440  0.55855  1.0000
  H   H30       1.0  0.56651  0.46441  0.94145  1.0000
  H   H31       1.0  0.06650  0.03560  0.44145  1.0000
  H   H32       1.0  0.06650  0.53560  0.05855  1.0000
  H   H33       1.0  0.46618  0.96965  0.64352  1.0000
  H   H34       1.0  0.46619  0.46966  0.85648  1.0000
  H   H35       1.0  0.96619  0.03035  0.35648  1.0000
  H   H36       1.0  0.96618  0.53034  0.14352  1.0000
  H   H37       1.0  0.47990  0.21511  0.68951  1.0000
  H   H38       1.0  0.47990  0.71511  0.81049  1.0000
  H   H39       1.0  0.97991  0.78490  0.31049  1.0000
  H   H40       1.0  0.97990  0.28489  0.18951  1.0000
  H   H41       1.0  0.59847  0.45177  0.65211  1.0000
  H   H42       1.0  0.59847  0.95178  0.84789  1.0000
  H   H43       1.0  0.09847  0.54823  0.34789  1.0000
  H   H44       1.0  0.09847  0.04823  0.15211  1.0000
  C   C1        1.0  0.55159  0.92971  0.36458  1.0000
  C   C2        1.0  0.55160  0.42971  0.13542  1.0000
  C   C3        1.0  0.05159  0.07029  0.63542  1.0000
  C   C4        1.0  0.05160  0.57029  0.86458  1.0000
  C   C5        1.0  0.63545  0.77607  0.43260  1.0000
  C   C6        1.0  0.63544  0.27608  0.06740  1.0000
  C   C7        1.0  0.13544  0.22392  0.56740  1.0000
  C   C8        1.0  0.13544  0.72392  0.93260  1.0000
  C   C9        1.0  0.59972  0.92165  0.41279  1.0000
  C   C10       1.0  0.59972  0.42165  0.08721  1.0000
  C   C11       1.0  0.09971  0.07835  0.58721  1.0000
  C   C12       1.0  0.09971  0.57835  0.91279  1.0000
  C   C13       1.0  0.57613  0.66525  0.35581  1.0000
  C   C14       1.0  0.57613  0.16526  0.14419  1.0000
  C   C15       1.0  0.07613  0.33474  0.64419  1.0000
  C   C16       1.0  0.07613  0.83474  0.85581  1.0000
  C   C17       1.0  0.61633  0.06397  0.44007  1.0000
  C   C18       1.0  0.61633  0.56397  0.05993  1.0000
  C   C19       1.0  0.11632  0.93603  0.55993  1.0000
  C   C20       1.0  0.11632  0.43603  0.94007  1.0000
  C   C21       1.0  0.69781  0.20183  0.50779  1.0000
  C   C22       1.0  0.69780  0.70183  0.99221  1.0000
  C   C23       1.0  0.19780  0.79817  0.49221  1.0000
  C   C24       1.0  0.19780  0.29817  0.00779  1.0000
  C   C25       1.0  0.62294  0.64683  0.40371  1.0000
  C   C26       1.0  0.62294  0.14683  0.09629  1.0000
  C   C27       1.0  0.12294  0.35317  0.59629  1.0000
  C   C28       1.0  0.12293  0.85317  0.90371  1.0000
  C   C29       1.0  0.77847  0.33216  0.48784  1.0000
  C   C30       1.0  0.77847  0.83216  0.01216  1.0000
  C   C31       1.0  0.27846  0.66784  0.51216  1.0000
  C   C32       1.0  0.27847  0.16784  0.98784  1.0000
  C   C33       1.0  0.79583  0.46924  0.51440  1.0000
  C   C34       1.0  0.79583  0.96925  0.98560  1.0000
  C   C35       1.0  0.29582  0.53075  0.48560  1.0000
  C   C36       1.0  0.29583  0.03075  0.01440  1.0000
  C   C37       1.0  0.64076  0.20446  0.55676  1.0000
  C   C38       1.0  0.64076  0.70446  0.94324  1.0000
  C   C39       1.0  0.14076  0.79554  0.44324  1.0000
  C   C40       1.0  0.14076  0.29554  0.05676  1.0000
  C   C41       1.0  0.57279  0.07022  0.57934  1.0000
  C   C42       1.0  0.57279  0.57022  0.92066  1.0000
  C   C43       1.0  0.07279  0.92978  0.42066  1.0000
  C   C44       1.0  0.07278  0.42978  0.07934  1.0000
  C   C45       1.0  0.65206  0.34537  0.58354  1.0000
  C   C46       1.0  0.65206  0.84538  0.91646  1.0000
  C   C47       1.0  0.15206  0.65462  0.41646  1.0000
  C   C48       1.0  0.15207  0.15462  0.08354  1.0000
  C   C49       1.0  0.72935  0.47664  0.56046  1.0000
  C   C50       1.0  0.72935  0.97665  0.93954  1.0000
  C   C51       1.0  0.22934  0.52335  0.43954  1.0000
  C   C52       1.0  0.22936  0.02335  0.06046  1.0000
  C   C53       1.0  0.51739  0.07391  0.62634  1.0000
  C   C54       1.0  0.51740  0.57391  0.87366  1.0000
  C   C55       1.0  0.01739  0.92609  0.37366  1.0000
  C   C56       1.0  0.01739  0.42609  0.12634  1.0000
  C   C57       1.0  0.52515  0.21278  0.65242  1.0000
  C   C58       1.0  0.52515  0.71279  0.84758  1.0000
  C   C59       1.0  0.02515  0.78722  0.34758  1.0000
  C   C60       1.0  0.02515  0.28721  0.15242  1.0000
  C   C61       1.0  0.59095  0.34567  0.63150  1.0000
  C   C62       1.0  0.59095  0.84568  0.86851  1.0000
  C   C63       1.0  0.09095  0.65433  0.36850  1.0000
  C   C64       1.0  0.09095  0.15433  0.13150  1.0000
  I   I1        1.0  0.24266  0.07737  0.26096  1.0000
  I   I2        1.0  0.24266  0.57737  0.23904  1.0000
  I   I3        1.0  0.74266  0.92263  0.73904  1.0000
  I   I4        1.0  0.74266  0.42264  0.76096  1.0000
  I   I5        1.0  0.80223  0.80334  0.20007  1.0000
  I   I6        1.0  0.80223  0.30334  0.29993  1.0000
  I   I7        1.0  0.30223  0.19666  0.79993  1.0000
  I   I8        1.0  0.30223  0.69666  0.70007  1.0000
  N   N1        1.0  0.54181  0.80424  0.33686  1.0000
  N   N2        1.0  0.54182  0.30424  0.16314  1.0000
  N   N3        1.0  0.04182  0.19576  0.66314  1.0000
  N   N4        1.0  0.04182  0.69576  0.83686  1.0000
  N   N5        1.0  0.67650  0.06385  0.48312  1.0000
  N   N6        1.0  0.67649  0.56385  0.01688  1.0000
  N   N7        1.0  0.17648  0.93615  0.51688  1.0000
  N   N8        1.0  0.17649  0.43615  0.98312  1.0000
  Cl  Cl1       1.0  0.74622  0.64963  0.59144  1.0000
  Cl  Cl2       1.0  0.74622  0.14963  0.90856  1.0000
  Cl  Cl3       1.0  0.24622  0.35037  0.40856  1.0000
  Cl  Cl4       1.0  0.24623  0.85037  0.09144  1.0000
