data_image0
_chemical_formula_structural       Co4P4H32C32N12O16
_chemical_formula_sum              "Co4 P4 H32 C32 N12 O16"
_cell_length_a       7.12994
_cell_length_b       10.9588
_cell_length_c       12.8655
_cell_angle_alpha    107.807
_cell_angle_beta     90.0003
_cell_angle_gamma    89.9997

_space_group_name_H-M_alt    "P 1"
_space_group_IT_number       1

loop_
  _space_group_symop_operation_xyz
  'x, y, z'

loop_
  _atom_site_type_symbol
  _atom_site_label
  _atom_site_symmetry_multiplicity
  _atom_site_fract_x
  _atom_site_fract_y
  _atom_site_fract_z
  _atom_site_occupancy
  Co  Co1       1.0  0.95122  0.01043  0.79614  1.0000
  Co  Co2       1.0  0.45126  0.98959  0.70387  1.0000
  Co  Co3       1.0  0.04876  0.98970  0.20390  1.0000
  Co  Co4       1.0  0.54874  0.01029  0.29609  1.0000
  P   P1        1.0  0.78875  0.79897  0.57379  1.0000
  P   P2        1.0  0.28876  0.20103  0.92621  1.0000
  P   P3        1.0  0.21100  0.20091  0.42602  1.0000
  P   P4        1.0  0.71099  0.79908  0.07398  1.0000
  H   H1        1.0  0.92228  0.70331  0.74604  1.0000
  H   H2        1.0  0.42227  0.29670  0.75396  1.0000
  H   H3        1.0  0.07771  0.29674  0.25379  1.0000
  H   H4        1.0  0.57771  0.70325  0.24622  1.0000
  H   H5        1.0  0.91427  0.48982  0.77397  1.0000
  H   H6        1.0  0.41427  0.51018  0.72603  1.0000
  H   H7        1.0  0.08564  0.51025  0.22600  1.0000
  H   H8        1.0  0.58563  0.48974  0.27401  1.0000
  H   H9        1.0  0.68783  0.32593  0.45024  1.0000
  H   H10       1.0  0.18784  0.67408  0.04976  1.0000
  H   H11       1.0  0.31232  0.67394  0.54969  1.0000
  H   H12       1.0  0.81231  0.32606  0.95031  1.0000
  H   H13       1.0  0.70363  0.54166  0.42236  1.0000
  H   H14       1.0  0.20364  0.45834  0.07764  1.0000
  H   H15       1.0  0.29632  0.45819  0.57751  1.0000
  H   H16       1.0  0.79632  0.54181  0.92250  1.0000
  H   H17       1.0  0.51317  0.20308  0.55904  1.0000
  H   H18       1.0  0.01316  0.79692  0.94095  1.0000
  H   H19       1.0  0.48664  0.79702  0.44129  1.0000
  H   H20       1.0  0.98665  0.20299  0.05873  1.0000
  H   H21       1.0  0.01921  0.27796  0.74163  1.0000
  H   H22       1.0  0.51921  0.72206  0.75838  1.0000
  H   H23       1.0  0.98129  0.72216  0.25807  1.0000
  H   H24       1.0  0.48127  0.27783  0.24192  1.0000
  H   H25       1.0  0.62667  0.04371  0.89211  1.0000
  H   H26       1.0  0.12669  0.95626  0.60789  1.0000
  H   H27       1.0  0.37293  0.95628  0.10785  1.0000
  H   H28       1.0  0.87292  0.04374  0.39216  1.0000
  H   H29       1.0  0.72256  0.91604  0.91914  1.0000
  H   H30       1.0  0.22256  0.08392  0.58085  1.0000
  H   H31       1.0  0.27729  0.08412  0.08098  1.0000
  H   H32       1.0  0.77729  0.91591  0.41903  1.0000
  C   C1        1.0  0.81315  0.63710  0.58219  1.0000
  C   C2        1.0  0.31316  0.36290  0.91781  1.0000
  C   C3        1.0  0.18671  0.36284  0.41769  1.0000
  C   C4        1.0  0.68671  0.63716  0.08231  1.0000
  C   C5        1.0  0.87463  0.62060  0.68047  1.0000
  C   C6        1.0  0.37463  0.37940  0.81954  1.0000
  C   C7        1.0  0.12533  0.37941  0.31942  1.0000
  C   C8        1.0  0.62533  0.62059  0.18058  1.0000
  C   C9        1.0  0.86891  0.50115  0.69666  1.0000
  C   C10       1.0  0.36891  0.49885  0.80335  1.0000
  C   C11       1.0  0.13106  0.49888  0.30328  1.0000
  C   C12       1.0  0.63106  0.50111  0.19672  1.0000
  C   C13       1.0  0.79869  0.39604  0.61432  1.0000
  C   C14       1.0  0.29869  0.60397  0.88568  1.0000
  C   C15       1.0  0.20132  0.60397  0.38562  1.0000
  C   C16       1.0  0.70132  0.39603  0.11438  1.0000
  C   C17       1.0  0.74026  0.40888  0.51457  1.0000
  C   C18       1.0  0.24027  0.59112  0.98544  1.0000
  C   C19       1.0  0.25975  0.59106  0.48535  1.0000
  C   C20       1.0  0.75976  0.40894  0.01465  1.0000
  C   C21       1.0  0.74845  0.52968  0.49953  1.0000
  C   C22       1.0  0.24846  0.47032  0.00047  1.0000
  C   C23       1.0  0.25148  0.47023  0.50036  1.0000
  C   C24       1.0  0.75148  0.52977  0.99964  1.0000
  C   C25       1.0  0.62948  0.19516  0.61121  1.0000
  C   C26       1.0  0.12947  0.80484  0.88879  1.0000
  C   C27       1.0  0.37070  0.80484  0.38885  1.0000
  C   C28       1.0  0.87071  0.19517  0.11116  1.0000
  C   C29       1.0  0.88671  0.23619  0.70778  1.0000
  C   C30       1.0  0.38671  0.76382  0.79223  1.0000
  C   C31       1.0  0.11376  0.76385  0.29204  1.0000
  C   C32       1.0  0.61375  0.23614  0.20795  1.0000
  N   N1        1.0  0.80830  0.13476  0.72429  1.0000
  N   N2        1.0  0.30830  0.86525  0.77572  1.0000
  N   N3        1.0  0.19239  0.86522  0.27554  1.0000
  N   N4        1.0  0.69238  0.13477  0.22445  1.0000
  N   N5        1.0  0.64476  0.10952  0.66390  1.0000
  N   N6        1.0  0.14476  0.89049  0.83610  1.0000
  N   N7        1.0  0.35572  0.89042  0.33608  1.0000
  N   N8        1.0  0.85572  0.10957  0.16392  1.0000
  N   N9        1.0  0.77824  0.27786  0.63772  1.0000
  N   N10       1.0  0.27824  0.72215  0.86228  1.0000
  N   N11       1.0  0.22190  0.72217  0.36224  1.0000
  N   N12       1.0  0.72190  0.27783  0.13776  1.0000
  O   O1        1.0  0.59382  0.83533  0.62749  1.0000
  O   O2        1.0  0.09386  0.16467  0.87248  1.0000
  O   O3        1.0  0.40537  0.16436  0.37167  1.0000
  O   O4        1.0  0.90535  0.83564  0.12835  1.0000
  O   O5        1.0  0.94757  0.88082  0.64404  1.0000
  O   O6        1.0  0.44759  0.11918  0.85597  1.0000
  O   O7        1.0  0.05164  0.11919  0.35624  1.0000
  O   O8        1.0  0.55161  0.88080  0.14375  1.0000
  O   O9        1.0  0.74420  0.99339  0.89119  1.0000
  O   O10       1.0  0.24424  0.00654  0.60876  1.0000
  O   O11       1.0  0.25546  0.00671  0.10883  1.0000
  O   O12       1.0  0.75543  0.99333  0.39120  1.0000
  O   O13       1.0  0.79543  0.79455  0.45436  1.0000
  O   O14       1.0  0.29541  0.20546  0.04564  1.0000
  O   O15       1.0  0.20531  0.20536  0.54548  1.0000
  O   O16       1.0  0.70533  0.79463  0.95452  1.0000
