data_image0
_chemical_formula_structural       Co2P2H14C16N6Cl2O6
_chemical_formula_sum              "Co2 P2 H14 C16 N6 Cl2 O6"
_cell_length_a       7.52247
_cell_length_b       7.6094
_cell_length_c       10.4521
_cell_angle_alpha    95.5203
_cell_angle_beta     108.71
_cell_angle_gamma    84.1641

_space_group_name_H-M_alt    "P 1"
_space_group_IT_number       1

loop_
  _space_group_symop_operation_xyz
  'x, y, z'

loop_
  _atom_site_type_symbol
  _atom_site_label
  _atom_site_symmetry_multiplicity
  _atom_site_fract_x
  _atom_site_fract_y
  _atom_site_fract_z
  _atom_site_occupancy
  Co  Co1       1.0  0.00000  0.50000  0.50000  1.0000
  Co  Co2       1.0  0.50000  0.49999  0.49999  1.0000
  P   P1        1.0  0.75958  0.84071  0.58143  1.0000
  P   P2        1.0  0.24042  0.15928  0.41857  1.0000
  H   H1        1.0  0.62248  0.10966  0.52042  1.0000
  H   H2        1.0  0.37752  0.89033  0.47959  1.0000
  H   H3        1.0  0.13738  0.81740  0.77229  1.0000
  H   H4        1.0  0.42816  0.18855  0.21380  1.0000
  H   H5        1.0  0.86262  0.18267  0.22772  1.0000
  H   H6        1.0  0.57184  0.81136  0.78619  1.0000
  H   H7        1.0  0.26356  0.75615  0.01321  1.0000
  H   H8        1.0  0.30425  0.25249  0.97312  1.0000
  H   H9        1.0  0.73644  0.24395  0.98682  1.0000
  H   H10       1.0  0.69575  0.74744  0.02687  1.0000
  H   H11       1.0  0.80782  0.66691  0.22800  1.0000
  H   H12       1.0  0.63439  0.35116  0.79299  1.0000
  H   H13       1.0  0.19219  0.33314  0.77202  1.0000
  H   H14       1.0  0.36561  0.64880  0.20699  1.0000
  C   C1        1.0  0.84592  0.82254  0.76327  1.0000
  C   C2        1.0  0.15408  0.17745  0.23673  1.0000
  C   C3        1.0  0.04058  0.80834  0.82947  1.0000
  C   C4        1.0  0.27663  0.19454  0.16278  1.0000
  C   C5        1.0  0.95942  0.19171  0.17054  1.0000
  C   C6        1.0  0.72337  0.80543  0.83722  1.0000
  C   C7        1.0  0.11181  0.77063  0.96506  1.0000
  C   C8        1.0  0.20658  0.23321  0.02725  1.0000
  C   C9        1.0  0.88819  0.22942  0.03495  1.0000
  C   C10       1.0  0.79342  0.76676  0.97274  1.0000
  C   C11       1.0  0.98814  0.74575  0.03602  1.0000
  C   C12       1.0  0.01186  0.25427  0.96398  1.0000
  C   C13       1.0  0.95886  0.64986  0.25012  1.0000
  C   C14       1.0  0.75592  0.36051  0.76077  1.0000
  C   C15       1.0  0.04115  0.35015  0.74988  1.0000
  C   C16       1.0  0.24408  0.63947  0.23922  1.0000
  N   N1        1.0  0.07390  0.57925  0.35968  1.0000
  N   N2        1.0  0.74575  0.42607  0.64639  1.0000
  N   N3        1.0  0.92610  0.42074  0.64032  1.0000
  N   N4        1.0  0.25425  0.57391  0.35360  1.0000
  N   N5        1.0  0.06055  0.68861  0.17010  1.0000
  N   N6        1.0  0.93945  0.31140  0.82991  1.0000
  Cl  Cl1       1.0  0.66687  0.44289  0.33494  1.0000
  Cl  Cl2       1.0  0.33312  0.55710  0.66505  1.0000
  O   O1        1.0  0.90609  0.74451  0.52349  1.0000
  O   O2        1.0  0.43963  0.22492  0.47221  1.0000
  O   O3        1.0  0.09391  0.25549  0.47651  1.0000
  O   O4        1.0  0.56037  0.77507  0.52778  1.0000
  O   O5        1.0  0.75222  0.04256  0.55883  1.0000
  O   O6        1.0  0.24778  0.95743  0.44118  1.0000
