data_image0
_chemical_formula_structural       Fe4P4H32C32N12O16
_chemical_formula_sum              "Fe4 P4 H32 C32 N12 O16"
_cell_length_a       7.13811
_cell_length_b       11.0283
_cell_length_c       12.961
_cell_angle_alpha    109.199
_cell_angle_beta     90.001
_cell_angle_gamma    89.9994

_space_group_name_H-M_alt    "P 1"
_space_group_IT_number       1

loop_
  _space_group_symop_operation_xyz
  'x, y, z'

loop_
  _atom_site_type_symbol
  _atom_site_label
  _atom_site_symmetry_multiplicity
  _atom_site_fract_x
  _atom_site_fract_y
  _atom_site_fract_z
  _atom_site_occupancy
  Fe  Fe1       1.0  0.95539  0.01219  0.79275  1.0000
  Fe  Fe2       1.0  0.45539  0.98781  0.70725  1.0000
  Fe  Fe3       1.0  0.04461  0.98781  0.20725  1.0000
  Fe  Fe4       1.0  0.54461  0.01220  0.29275  1.0000
  P   P1        1.0  0.78911  0.79434  0.56700  1.0000
  P   P2        1.0  0.28911  0.20566  0.93300  1.0000
  P   P3        1.0  0.21089  0.20566  0.43300  1.0000
  P   P4        1.0  0.71088  0.79434  0.06700  1.0000
  H   H1        1.0  0.91624  0.70964  0.74325  1.0000
  H   H2        1.0  0.41623  0.29035  0.75675  1.0000
  H   H3        1.0  0.08376  0.29036  0.25675  1.0000
  H   H4        1.0  0.58376  0.70964  0.24326  1.0000
  H   H5        1.0  0.90861  0.50087  0.77525  1.0000
  H   H6        1.0  0.40861  0.49912  0.72475  1.0000
  H   H7        1.0  0.09139  0.49913  0.22475  1.0000
  H   H8        1.0  0.59138  0.50087  0.27525  1.0000
  H   H9        1.0  0.68532  0.32084  0.45165  1.0000
  H   H10       1.0  0.18532  0.67916  0.04834  1.0000
  H   H11       1.0  0.31469  0.67916  0.54834  1.0000
  H   H12       1.0  0.81468  0.32084  0.95166  1.0000
  H   H13       1.0  0.70285  0.53140  0.41917  1.0000
  H   H14       1.0  0.20284  0.46860  0.08083  1.0000
  H   H15       1.0  0.29715  0.46860  0.58083  1.0000
  H   H16       1.0  0.79716  0.53140  0.91917  1.0000
  H   H17       1.0  0.51676  0.20112  0.55884  1.0000
  H   H18       1.0  0.01676  0.79888  0.94116  1.0000
  H   H19       1.0  0.48324  0.79888  0.44116  1.0000
  H   H20       1.0  0.98324  0.20112  0.05884  1.0000
  H   H21       1.0  0.01897  0.28909  0.74384  1.0000
  H   H22       1.0  0.51896  0.71091  0.75617  1.0000
  H   H23       1.0  0.98103  0.71091  0.25616  1.0000
  H   H24       1.0  0.48104  0.28909  0.24384  1.0000
  H   H25       1.0  0.62307  0.03893  0.89388  1.0000
  H   H26       1.0  0.12306  0.96107  0.60612  1.0000
  H   H27       1.0  0.37693  0.96107  0.10613  1.0000
  H   H28       1.0  0.87694  0.03892  0.39388  1.0000
  H   H29       1.0  0.71607  0.91001  0.91345  1.0000
  H   H30       1.0  0.21607  0.08999  0.58654  1.0000
  H   H31       1.0  0.28393  0.08998  0.08655  1.0000
  H   H32       1.0  0.78393  0.91002  0.41345  1.0000
  C   C1        1.0  0.80902  0.63518  0.57899  1.0000
  C   C2        1.0  0.30901  0.36482  0.92101  1.0000
  C   C3        1.0  0.19099  0.36482  0.42101  1.0000
  C   C4        1.0  0.69099  0.63518  0.07899  1.0000
  C   C5        1.0  0.86915  0.62444  0.67856  1.0000
  C   C6        1.0  0.36915  0.37556  0.82144  1.0000
  C   C7        1.0  0.13085  0.37556  0.32143  1.0000
  C   C8        1.0  0.63085  0.62444  0.17857  1.0000
  C   C9        1.0  0.86373  0.50750  0.69703  1.0000
  C   C10       1.0  0.36372  0.49250  0.80298  1.0000
  C   C11       1.0  0.13628  0.49250  0.30297  1.0000
  C   C12       1.0  0.63628  0.50750  0.19703  1.0000
  C   C13       1.0  0.79467  0.39911  0.61577  1.0000
  C   C14       1.0  0.29467  0.60089  0.88423  1.0000
  C   C15       1.0  0.20533  0.60089  0.38423  1.0000
  C   C16       1.0  0.70533  0.39911  0.11577  1.0000
  C   C17       1.0  0.73724  0.40620  0.51490  1.0000
  C   C18       1.0  0.23724  0.59380  0.98510  1.0000
  C   C19       1.0  0.26277  0.59380  0.48510  1.0000
  C   C20       1.0  0.76277  0.40620  0.01490  1.0000
  C   C21       1.0  0.74580  0.52439  0.49750  1.0000
  C   C22       1.0  0.24579  0.47561  0.00250  1.0000
  C   C23       1.0  0.25421  0.47561  0.50250  1.0000
  C   C24       1.0  0.75421  0.52439  0.99750  1.0000
  C   C25       1.0  0.63198  0.19686  0.61239  1.0000
  C   C26       1.0  0.13198  0.80314  0.88761  1.0000
  C   C27       1.0  0.36801  0.80315  0.38761  1.0000
  C   C28       1.0  0.86802  0.19686  0.11239  1.0000
  C   C29       1.0  0.88751  0.24453  0.71020  1.0000
  C   C30       1.0  0.38751  0.75547  0.78980  1.0000
  C   C31       1.0  0.11248  0.75547  0.28980  1.0000
  C   C32       1.0  0.61248  0.24453  0.21020  1.0000
  N   N1        1.0  0.81448  0.14148  0.72456  1.0000
  N   N2        1.0  0.31449  0.85852  0.77544  1.0000
  N   N3        1.0  0.18552  0.85852  0.27544  1.0000
  N   N4        1.0  0.68551  0.14148  0.22456  1.0000
  N   N5        1.0  0.65163  0.11203  0.66357  1.0000
  N   N6        1.0  0.15163  0.88797  0.83643  1.0000
  N   N7        1.0  0.34837  0.88797  0.33643  1.0000
  N   N8        1.0  0.84837  0.11203  0.16357  1.0000
  N   N9        1.0  0.77629  0.28314  0.64060  1.0000
  N   N10       1.0  0.27629  0.71686  0.85940  1.0000
  N   N11       1.0  0.22371  0.71686  0.35939  1.0000
  N   N12       1.0  0.72371  0.28314  0.14061  1.0000
  O   O1        1.0  0.59131  0.83604  0.61503  1.0000
  O   O2        1.0  0.09131  0.16396  0.88496  1.0000
  O   O3        1.0  0.40869  0.16396  0.38496  1.0000
  O   O4        1.0  0.90869  0.83604  0.11504  1.0000
  O   O5        1.0  0.94373  0.87834  0.64091  1.0000
  O   O6        1.0  0.44373  0.12166  0.85909  1.0000
  O   O7        1.0  0.05627  0.12166  0.35908  1.0000
  O   O8        1.0  0.55626  0.87834  0.14091  1.0000
  O   O9        1.0  0.73806  0.98579  0.88651  1.0000
  O   O10       1.0  0.23805  0.01421  0.61349  1.0000
  O   O11       1.0  0.26194  0.01421  0.11349  1.0000
  O   O12       1.0  0.76195  0.98579  0.38651  1.0000
  O   O13       1.0  0.80453  0.78516  0.44770  1.0000
  O   O14       1.0  0.30454  0.21484  0.05229  1.0000
  O   O15       1.0  0.19547  0.21484  0.55229  1.0000
  O   O16       1.0  0.69546  0.78516  0.94771  1.0000
