data_image0
_chemical_formula_structural       Cu4P4H32C32N12O16
_chemical_formula_sum              "Cu4 P4 H32 C32 N12 O16"
_cell_length_a       7.03185
_cell_length_b       10.9264
_cell_length_c       12.9716
_cell_angle_alpha    108.916
_cell_angle_beta     90.0001
_cell_angle_gamma    90.0003

_space_group_name_H-M_alt    "P 1"
_space_group_IT_number       1

loop_
  _space_group_symop_operation_xyz
  'x, y, z'

loop_
  _atom_site_type_symbol
  _atom_site_label
  _atom_site_symmetry_multiplicity
  _atom_site_fract_x
  _atom_site_fract_y
  _atom_site_fract_z
  _atom_site_occupancy
  Cu  Cu1       1.0  0.96693  0.01270  0.78811  1.0000
  Cu  Cu2       1.0  0.46694  0.98730  0.71189  1.0000
  Cu  Cu3       1.0  0.03307  0.98730  0.21189  1.0000
  Cu  Cu4       1.0  0.53306  0.01270  0.28811  1.0000
  P   P1        1.0  0.78484  0.78821  0.56901  1.0000
  P   P2        1.0  0.28485  0.21179  0.93099  1.0000
  P   P3        1.0  0.21515  0.21179  0.43099  1.0000
  P   P4        1.0  0.71515  0.78821  0.06902  1.0000
  H   H1        1.0  0.90629  0.70155  0.74655  1.0000
  H   H2        1.0  0.40630  0.29846  0.75345  1.0000
  H   H3        1.0  0.09371  0.29845  0.25345  1.0000
  H   H4        1.0  0.59371  0.70155  0.24655  1.0000
  H   H5        1.0  0.90115  0.48935  0.77679  1.0000
  H   H6        1.0  0.40115  0.51064  0.72321  1.0000
  H   H7        1.0  0.09885  0.51064  0.22321  1.0000
  H   H8        1.0  0.59885  0.48936  0.27679  1.0000
  H   H9        1.0  0.68294  0.31011  0.45206  1.0000
  H   H10       1.0  0.18294  0.68989  0.04794  1.0000
  H   H11       1.0  0.31706  0.68989  0.54794  1.0000
  H   H12       1.0  0.81706  0.31011  0.95206  1.0000
  H   H13       1.0  0.70178  0.52420  0.42065  1.0000
  H   H14       1.0  0.20178  0.47579  0.07934  1.0000
  H   H15       1.0  0.29822  0.47580  0.57935  1.0000
  H   H16       1.0  0.79822  0.52420  0.92065  1.0000
  H   H17       1.0  0.50161  0.19110  0.56923  1.0000
  H   H18       1.0  0.00162  0.80891  0.93078  1.0000
  H   H19       1.0  0.49838  0.80890  0.43078  1.0000
  H   H20       1.0  0.99838  0.19110  0.06923  1.0000
  H   H21       1.0  0.03028  0.27505  0.73590  1.0000
  H   H22       1.0  0.53027  0.72495  0.76410  1.0000
  H   H23       1.0  0.96972  0.72495  0.26410  1.0000
  H   H24       1.0  0.46973  0.27505  0.23590  1.0000
  H   H25       1.0  0.62460  0.04499  0.90058  1.0000
  H   H26       1.0  0.12460  0.95500  0.59942  1.0000
  H   H27       1.0  0.37540  0.95501  0.09942  1.0000
  H   H28       1.0  0.87540  0.04500  0.40058  1.0000
  H   H29       1.0  0.71184  0.91659  0.92095  1.0000
  H   H30       1.0  0.21185  0.08341  0.57906  1.0000
  H   H31       1.0  0.28816  0.08341  0.07906  1.0000
  H   H32       1.0  0.78815  0.91659  0.42094  1.0000
  C   C1        1.0  0.80408  0.62730  0.58127  1.0000
  C   C2        1.0  0.30409  0.37270  0.91873  1.0000
  C   C3        1.0  0.19592  0.37270  0.41873  1.0000
  C   C4        1.0  0.69592  0.62730  0.08127  1.0000
  C   C5        1.0  0.86204  0.61574  0.68105  1.0000
  C   C6        1.0  0.36204  0.38426  0.81895  1.0000
  C   C7        1.0  0.13796  0.38426  0.31895  1.0000
  C   C8        1.0  0.63796  0.61574  0.18105  1.0000
  C   C9        1.0  0.85760  0.49705  0.69862  1.0000
  C   C10       1.0  0.35761  0.50295  0.80138  1.0000
  C   C11       1.0  0.14240  0.50295  0.30138  1.0000
  C   C12       1.0  0.64240  0.49705  0.19862  1.0000
  C   C13       1.0  0.79080  0.38825  0.61625  1.0000
  C   C14       1.0  0.29080  0.61175  0.88375  1.0000
  C   C15       1.0  0.20920  0.61175  0.38375  1.0000
  C   C16       1.0  0.70920  0.38825  0.11625  1.0000
  C   C17       1.0  0.73491  0.39597  0.51538  1.0000
  C   C18       1.0  0.23491  0.60403  0.98461  1.0000
  C   C19       1.0  0.26509  0.60403  0.48462  1.0000
  C   C20       1.0  0.76509  0.39597  0.01539  1.0000
  C   C21       1.0  0.74333  0.51596  0.49891  1.0000
  C   C22       1.0  0.24333  0.48404  0.00108  1.0000
  C   C23       1.0  0.25667  0.48404  0.50108  1.0000
  C   C24       1.0  0.75667  0.51596  0.99892  1.0000
  C   C25       1.0  0.62474  0.18560  0.61843  1.0000
  C   C26       1.0  0.12474  0.81440  0.88157  1.0000
  C   C27       1.0  0.37526  0.81440  0.38158  1.0000
  C   C28       1.0  0.87526  0.18560  0.11842  1.0000
  C   C29       1.0  0.89438  0.23121  0.70660  1.0000
  C   C30       1.0  0.39438  0.76879  0.79340  1.0000
  C   C31       1.0  0.10561  0.76879  0.29340  1.0000
  C   C32       1.0  0.60562  0.23121  0.20661  1.0000
  N   N1        1.0  0.82136  0.12901  0.72458  1.0000
  N   N2        1.0  0.32135  0.87100  0.77542  1.0000
  N   N3        1.0  0.17864  0.87099  0.27542  1.0000
  N   N4        1.0  0.67865  0.12901  0.22458  1.0000
  N   N5        1.0  0.65198  0.10087  0.67003  1.0000
  N   N6        1.0  0.15197  0.89913  0.82998  1.0000
  N   N7        1.0  0.34802  0.89913  0.32997  1.0000
  N   N8        1.0  0.84803  0.10087  0.17003  1.0000
  N   N9        1.0  0.77392  0.27052  0.64096  1.0000
  N   N10       1.0  0.27391  0.72948  0.85904  1.0000
  N   N11       1.0  0.22608  0.72948  0.35904  1.0000
  N   N12       1.0  0.72609  0.27052  0.14096  1.0000
  O   O1        1.0  0.58193  0.82770  0.61415  1.0000
  O   O2        1.0  0.08194  0.17230  0.88585  1.0000
  O   O3        1.0  0.41806  0.17230  0.38585  1.0000
  O   O4        1.0  0.91807  0.82770  0.11415  1.0000
  O   O5        1.0  0.94320  0.87180  0.64185  1.0000
  O   O6        1.0  0.44320  0.12819  0.85815  1.0000
  O   O7        1.0  0.05680  0.12820  0.35816  1.0000
  O   O8        1.0  0.55680  0.87181  0.14185  1.0000
  O   O9        1.0  0.74304  0.99667  0.90258  1.0000
  O   O10       1.0  0.24305  0.00333  0.59743  1.0000
  O   O11       1.0  0.25696  0.00333  0.09742  1.0000
  O   O12       1.0  0.75695  0.99667  0.40257  1.0000
  O   O13       1.0  0.80426  0.77827  0.44980  1.0000
  O   O14       1.0  0.30427  0.22173  0.05020  1.0000
  O   O15       1.0  0.19574  0.22173  0.55020  1.0000
  O   O16       1.0  0.69574  0.77827  0.94980  1.0000
