data_image0
_chemical_formula_structural       La4H36C48N12O30
_chemical_formula_sum              "La4 H36 C48 N12 O30"
_cell_length_a       11.1031
_cell_length_b       11.3486
_cell_length_c       11.671
_cell_angle_alpha    80.8188
_cell_angle_beta     89.9626
_cell_angle_gamma    73.8629

_space_group_name_H-M_alt    "P 1"
_space_group_IT_number       1

loop_
  _space_group_symop_operation_xyz
  'x, y, z'

loop_
  _atom_site_type_symbol
  _atom_site_label
  _atom_site_symmetry_multiplicity
  _atom_site_fract_x
  _atom_site_fract_y
  _atom_site_fract_z
  _atom_site_occupancy
  La  La1       1.0  0.29469  0.00498  0.98032  1.0000
  La  La2       1.0  0.70531  0.99502  0.01968  1.0000
  La  La3       1.0  0.69414  0.00781  0.57188  1.0000
  La  La4       1.0  0.30586  0.99219  0.42812  1.0000
  H   H1        1.0  0.83854  0.14348  0.37690  1.0000
  H   H2        1.0  0.16146  0.85652  0.62310  1.0000
  H   H3        1.0  0.89678  0.99135  0.40326  1.0000
  H   H4        1.0  0.10322  0.00865  0.59674  1.0000
  H   H5        1.0  0.98141  0.84559  0.67358  1.0000
  H   H6        1.0  0.01859  0.15441  0.32642  1.0000
  H   H7        1.0  0.91186  0.91631  0.77259  1.0000
  H   H8        1.0  0.08814  0.08369  0.22741  1.0000
  H   H9        1.0  0.76938  0.18824  0.72398  1.0000
  H   H10       1.0  0.23062  0.81176  0.27602  1.0000
  H   H11       1.0  0.86780  0.18201  0.62433  1.0000
  H   H12       1.0  0.13220  0.81799  0.37567  1.0000
  H   H13       1.0  0.27833  0.34782  0.96521  1.0000
  H   H14       1.0  0.72167  0.65218  0.03479  1.0000
  H   H15       1.0  0.57916  0.20794  0.28621  1.0000
  H   H16       1.0  0.42084  0.79206  0.71379  1.0000
  H   H17       1.0  0.35947  0.42377  0.78068  1.0000
  H   H18       1.0  0.64053  0.57623  0.21932  1.0000
  H   H19       1.0  0.78795  0.77037  0.29531  1.0000
  H   H20       1.0  0.21205  0.22963  0.70469  1.0000
  H   H21       1.0  0.47375  0.32004  0.60771  1.0000
  H   H22       1.0  0.52624  0.67996  0.39229  1.0000
  H   H23       1.0  0.04657  0.38098  0.33658  1.0000
  H   H24       1.0  0.95343  0.61902  0.66342  1.0000
  H   H25       1.0  0.39177  0.59790  0.23520  1.0000
  H   H26       1.0  0.60823  0.40210  0.76480  1.0000
  H   H27       1.0  0.97579  0.69987  0.98990  1.0000
  H   H28       1.0  0.02421  0.30013  0.01011  1.0000
  H   H29       1.0  0.10264  0.52165  0.17480  1.0000
  H   H30       1.0  0.89736  0.47835  0.82520  1.0000
  H   H31       1.0  0.31866  0.48857  0.43009  1.0000
  H   H32       1.0  0.68134  0.51143  0.56992  1.0000
  H   H33       1.0  0.24586  0.59130  0.58300  1.0000
  H   H34       1.0  0.75414  0.40870  0.41700  1.0000
  H   H35       1.0  0.14789  0.76427  0.87559  1.0000
  H   H36       1.0  0.85211  0.23573  0.12441  1.0000
  C   C1        1.0  0.41477  0.03562  0.71196  1.0000
  C   C2        1.0  0.58523  0.96438  0.28804  1.0000
  C   C3        1.0  0.50546  0.07652  0.78831  1.0000
  C   C4        1.0  0.49454  0.92348  0.21169  1.0000
  C   C5        1.0  0.32348  0.73540  0.03182  1.0000
  C   C6        1.0  0.67652  0.26460  0.96818  1.0000
  C   C7        1.0  0.95519  0.63080  0.47817  1.0000
  C   C8        1.0  0.04480  0.36919  0.52183  1.0000
  C   C9        1.0  0.91091  0.77126  0.46061  1.0000
  C   C10       1.0  0.08909  0.22874  0.53939  1.0000
  C   C11       1.0  0.30680  0.40297  0.02270  1.0000
  C   C12       1.0  0.69320  0.59703  0.97730  1.0000
  C   C13       1.0  0.00487  0.97367  0.94234  1.0000
  C   C14       1.0  0.99513  0.02633  0.05766  1.0000
  C   C15       1.0  0.53034  0.25816  0.35210  1.0000
  C   C16       1.0  0.46966  0.74184  0.64790  1.0000
  C   C17       1.0  0.29749  0.51753  0.76985  1.0000
  C   C18       1.0  0.70251  0.48247  0.23015  1.0000
  C   C19       1.0  0.85503  0.72896  0.23559  1.0000
  C   C20       1.0  0.14497  0.27104  0.76441  1.0000
  C   C21       1.0  0.47245  0.32174  0.51462  1.0000
  C   C22       1.0  0.52754  0.67826  0.48538  1.0000
  C   C23       1.0  0.98154  0.56302  0.38593  1.0000
  C   C24       1.0  0.01846  0.43698  0.61407  1.0000
  C   C25       1.0  0.38023  0.41703  0.21247  1.0000
  C   C26       1.0  0.61977  0.58297  0.78753  1.0000
  C   C27       1.0  0.34407  0.34591  0.13739  1.0000
  C   C28       1.0  0.65593  0.65409  0.86261  1.0000
  C   C29       1.0  0.33223  0.21553  0.17527  1.0000
  C   C30       1.0  0.66776  0.78447  0.82473  1.0000
  C   C31       1.0  0.30172  0.52707  0.98313  1.0000
  C   C32       1.0  0.69828  0.47293  0.01687  1.0000
  C   C33       1.0  0.02761  0.43367  0.40807  1.0000
  C   C34       1.0  0.97239  0.56632  0.59192  1.0000
  C   C35       1.0  0.36820  0.54271  0.17497  1.0000
  C   C36       1.0  0.63180  0.45729  0.82503  1.0000
  C   C37       1.0  0.32967  0.59972  0.06086  1.0000
  C   C38       1.0  0.67033  0.40028  0.93915  1.0000
  C   C39       1.0  0.95525  0.68776  0.08111  1.0000
  C   C40       1.0  0.04475  0.31224  0.91889  1.0000
  C   C41       1.0  0.01824  0.59838  0.17100  1.0000
  C   C42       1.0  0.98177  0.40162  0.82900  1.0000
  C   C43       1.0  0.39584  0.40585  0.42894  1.0000
  C   C44       1.0  0.60416  0.59415  0.57106  1.0000
  C   C45       1.0  0.24015  0.60097  0.67389  1.0000
  C   C46       1.0  0.75985  0.39903  0.32611  1.0000
  C   C47       1.0  0.18700  0.69402  0.82242  1.0000
  C   C48       1.0  0.81300  0.30598  0.17758  1.0000
  N   N1        1.0  0.55594  0.23018  0.46558  1.0000
  N   N2        1.0  0.44406  0.76982  0.53442  1.0000
  N   N3        1.0  0.85363  0.76909  0.12266  1.0000
  N   N4        1.0  0.14637  0.23091  0.87734  1.0000
  N   N5        1.0  0.95396  0.62627  0.26979  1.0000
  N   N6        1.0  0.04604  0.37373  0.73021  1.0000
  N   N7        1.0  0.43315  0.36364  0.32569  1.0000
  N   N8        1.0  0.56684  0.63636  0.67431  1.0000
  N   N9        1.0  0.26355  0.57805  0.86479  1.0000
  N   N10       1.0  0.73645  0.42195  0.13521  1.0000
  N   N11       1.0  0.17066  0.71048  0.70785  1.0000
  N   N12       1.0  0.82934  0.28952  0.29215  1.0000
  O   O1        1.0  0.31321  0.15895  0.09432  1.0000
  O   O2        1.0  0.68679  0.84105  0.90568  1.0000
  O   O3        1.0  0.60073  0.09996  0.74329  1.0000
  O   O4        1.0  0.39928  0.90004  0.25671  1.0000
  O   O5        1.0  0.47994  0.07998  0.89458  1.0000
  O   O6        1.0  0.52006  0.92002  0.10542  1.0000
  O   O7        1.0  0.37758  0.77516  0.94423  1.0000
  O   O8        1.0  0.62242  0.22484  0.05577  1.0000
  O   O9        1.0  0.80397  0.81570  0.49972  1.0000
  O   O10       1.0  0.19603  0.18430  0.50028  1.0000
  O   O11       1.0  0.44399  0.02744  0.60757  1.0000
  O   O12       1.0  0.55601  0.97256  0.39243  1.0000
  O   O13       1.0  0.10602  0.96120  0.89060  1.0000
  O   O14       1.0  0.89398  0.03880  0.10940  1.0000
  O   O15       1.0  0.26349  0.80502  0.10101  1.0000
  O   O16       1.0  0.73651  0.19498  0.89899  1.0000
  O   O17       1.0  0.33739  0.17288  0.28233  1.0000
  O   O18       1.0  0.66261  0.82712  0.71767  1.0000
  O   O19       1.0  0.83645  0.06485  0.42797  1.0000
  O   O20       1.0  0.16355  0.93515  0.57203  1.0000
  O   O21       1.0  0.32184  0.01116  0.76207  1.0000
  O   O22       1.0  0.67816  0.98884  0.23793  1.0000
  O   O23       1.0  0.98001  0.83352  0.41067  1.0000
  O   O24       1.0  0.01999  0.16648  0.58933  1.0000
  O   O25       1.0  0.90884  0.94515  0.90901  1.0000
  O   O26       1.0  0.09116  0.05485  0.09099  1.0000
  O   O27       1.0  0.90204  0.90175  0.69127  1.0000
  O   O28       1.0  0.09796  0.09825  0.30873  1.0000
  O   O29       1.0  0.77962  0.18359  0.64120  1.0000
  O   O30       1.0  0.22039  0.81641  0.35880  1.0000
