data_image0
_chemical_formula_structural       Tb4H40C56S2N16O28
_chemical_formula_sum              "Tb4 H40 C56 S2 N16 O28"
_cell_length_a       8.56917
_cell_length_b       11.449
_cell_length_c       17.8166
_cell_angle_alpha    102.832
_cell_angle_beta     89.9688
_cell_angle_gamma    112.049

_space_group_name_H-M_alt    "P 1"
_space_group_IT_number       1

loop_
  _space_group_symop_operation_xyz
  'x, y, z'

loop_
  _atom_site_type_symbol
  _atom_site_label
  _atom_site_symmetry_multiplicity
  _atom_site_fract_x
  _atom_site_fract_y
  _atom_site_fract_z
  _atom_site_occupancy
  Tb  Tb1       1.0  0.22557  0.72211  0.26182  1.0000
  Tb  Tb2       1.0  0.50338  0.27789  0.23812  1.0000
  Tb  Tb3       1.0  0.77443  0.27789  0.73818  1.0000
  Tb  Tb4       1.0  0.49662  0.72211  0.76188  1.0000
  H   H1        1.0  0.11195  0.43878  0.20609  1.0000
  H   H2        1.0  0.67276  0.56142  0.29408  1.0000
  H   H3        1.0  0.88805  0.56121  0.79391  1.0000
  H   H4        1.0  0.32724  0.43858  0.70592  1.0000
  H   H5        1.0  0.98347  0.45534  0.26995  1.0000
  H   H6        1.0  0.52768  0.54455  0.23019  1.0000
  H   H7        1.0  0.01653  0.54467  0.73005  1.0000
  H   H8        1.0  0.47232  0.45545  0.76981  1.0000
  H   H9        1.0  0.96909  0.91241  0.26269  1.0000
  H   H10       1.0  0.05589  0.08769  0.23738  1.0000
  H   H11       1.0  0.03090  0.08759  0.73731  1.0000
  H   H12       1.0  0.94411  0.91231  0.76262  1.0000
  H   H13       1.0  0.89779  0.55389  0.11201  1.0000
  H   H14       1.0  0.34428  0.44611  0.38804  1.0000
  H   H15       1.0  0.10222  0.44611  0.88799  1.0000
  H   H16       1.0  0.65572  0.55389  0.61196  1.0000
  H   H17       1.0  0.25273  0.71192  0.46341  1.0000
  H   H18       1.0  0.54106  0.28755  0.03665  1.0000
  H   H19       1.0  0.74728  0.28808  0.53659  1.0000
  H   H20       1.0  0.45894  0.71245  0.96335  1.0000
  H   H21       1.0  0.65628  0.84637  0.32854  1.0000
  H   H22       1.0  0.80989  0.15326  0.17140  1.0000
  H   H23       1.0  0.34372  0.15363  0.67146  1.0000
  H   H24       1.0  0.19011  0.84675  0.82860  1.0000
  H   H25       1.0  0.66968  0.83042  0.16813  1.0000
  H   H26       1.0  0.83871  0.16987  0.33194  1.0000
  H   H27       1.0  0.33032  0.16958  0.83187  1.0000
  H   H28       1.0  0.16128  0.83013  0.66806  1.0000
  H   H29       1.0  0.55478  0.82169  0.55871  1.0000
  H   H30       1.0  0.73326  0.17796  0.94128  1.0000
  H   H31       1.0  0.44523  0.17831  0.44129  1.0000
  H   H32       1.0  0.26674  0.82204  0.05872  1.0000
  H   H33       1.0  0.80443  0.55394  0.98883  1.0000
  H   H34       1.0  0.25045  0.44633  0.51129  1.0000
  H   H35       1.0  0.19557  0.44605  0.01117  1.0000
  H   H36       1.0  0.74954  0.55367  0.48871  1.0000
  H   H37       1.0  0.77449  0.07077  0.55200  1.0000
  H   H38       1.0  0.70378  0.92932  0.94766  1.0000
  H   H39       1.0  0.22551  0.92923  0.44799  1.0000
  H   H40       1.0  0.29621  0.07068  0.05235  1.0000
  C   C1        1.0  0.90899  0.82635  0.21653  1.0000
  C   C2        1.0  0.08212  0.17375  0.28354  1.0000
  C   C3        1.0  0.09101  0.17365  0.78347  1.0000
  C   C4        1.0  0.91788  0.82625  0.71646  1.0000
  C   C5        1.0  0.88044  0.64195  0.13994  1.0000
  C   C6        1.0  0.23864  0.35806  0.36014  1.0000
  C   C7        1.0  0.11956  0.35805  0.86006  1.0000
  C   C8        1.0  0.76135  0.64194  0.63986  1.0000
  C   C9        1.0  0.38166  0.75623  0.44978  1.0000
  C   C10       1.0  0.62555  0.24324  0.05024  1.0000
  C   C11       1.0  0.61835  0.24377  0.55022  1.0000
  C   C12       1.0  0.37445  0.75677  0.94977  1.0000
  C   C13       1.0  0.58468  0.82423  0.37724  1.0000
  C   C14       1.0  0.76052  0.17542  0.12273  1.0000
  C   C15       1.0  0.41532  0.17577  0.62276  1.0000
  C   C16       1.0  0.23948  0.82459  0.87727  1.0000
  C   C17       1.0  0.76199  0.78713  0.17032  1.0000
  C   C18       1.0  0.97447  0.21307  0.32977  1.0000
  C   C19       1.0  0.23801  0.21287  0.82968  1.0000
  C   C20       1.0  0.02553  0.78693  0.67023  1.0000
  C   C21       1.0  0.52906  0.81088  0.49748  1.0000
  C   C22       1.0  0.71843  0.18883  0.00251  1.0000
  C   C23       1.0  0.47095  0.18912  0.50251  1.0000
  C   C24       1.0  0.28157  0.81117  0.99749  1.0000
  C   C25       1.0  0.61641  0.58590  0.06195  1.0000
  C   C26       1.0  0.03061  0.41422  0.43808  1.0000
  C   C27       1.0  0.38359  0.41410  0.93805  1.0000
  C   C28       1.0  0.96938  0.58578  0.56192  1.0000
  C   C29       1.0  0.83228  0.92275  0.47452  1.0000
  C   C30       1.0  0.90957  0.07710  0.02542  1.0000
  C   C31       1.0  0.16773  0.07725  0.52547  1.0000
  C   C32       1.0  0.09042  0.92290  0.97459  1.0000
  C   C33       1.0  0.44268  0.55721  0.06779  1.0000
  C   C34       1.0  0.88559  0.44273  0.43214  1.0000
  C   C35       1.0  0.55732  0.44279  0.93221  1.0000
  C   C36       1.0  0.11440  0.55727  0.56786  1.0000
  C   C37       1.0  0.67007  0.52887  0.99479  1.0000
  C   C38       1.0  0.14119  0.47132  0.50529  1.0000
  C   C39       1.0  0.32994  0.47113  0.00521  1.0000
  C   C40       1.0  0.85881  0.52868  0.49471  1.0000
  C   C41       1.0  0.95786  0.87916  0.44353  1.0000
  C   C42       1.0  0.07868  0.12070  0.05659  1.0000
  C   C43       1.0  0.04215  0.12084  0.55646  1.0000
  C   C44       1.0  0.92132  0.87930  0.94342  1.0000
  C   C45       1.0  0.87462  0.03993  0.52958  1.0000
  C   C46       1.0  0.83466  0.96006  0.97021  1.0000
  C   C47       1.0  0.12539  0.96007  0.47042  1.0000
  C   C48       1.0  0.16533  0.03994  0.02979  1.0000
  C   C49       1.0  0.36410  0.60826  0.13611  1.0000
  C   C50       1.0  0.75598  0.39157  0.36379  1.0000
  C   C51       1.0  0.63590  0.39174  0.86389  1.0000
  C   C52       1.0  0.24402  0.60843  0.63621  1.0000
  C   C53       1.0  0.92344  0.74927  0.38675  1.0000
  C   C54       1.0  0.17422  0.25072  0.11333  1.0000
  C   C55       1.0  0.07657  0.25072  0.61325  1.0000
  C   C56       1.0  0.82578  0.74928  0.88667  1.0000
  S   S1        1.0  0.40208  0.00001  0.24990  1.0000
  S   S2        1.0  0.59792  0.99999  0.75010  1.0000
  N   N1        1.0  0.98164  0.73536  0.19691  1.0000
  N   N2        1.0  0.24610  0.26461  0.30315  1.0000
  N   N3        1.0  0.01835  0.26465  0.80309  1.0000
  N   N4        1.0  0.75390  0.73539  0.69685  1.0000
  N   N5        1.0  0.41793  0.76581  0.37498  1.0000
  N   N6        1.0  0.65220  0.23369  0.12504  1.0000
  N   N7        1.0  0.58207  0.23419  0.62502  1.0000
  N   N8        1.0  0.34780  0.76631  0.87497  1.0000
  N   N9        1.0  0.74463  0.66891  0.12171  1.0000
  N   N10       1.0  0.07575  0.33122  0.37838  1.0000
  N   N11       1.0  0.25537  0.33109  0.87829  1.0000
  N   N12       1.0  0.92424  0.66878  0.62162  1.0000
  N   N13       1.0  0.65693  0.85330  0.45028  1.0000
  N   N14       1.0  0.80373  0.14643  0.04967  1.0000
  N   N15       1.0  0.34308  0.14670  0.54971  1.0000
  N   N16       1.0  0.19627  0.85358  0.95033  1.0000
  O   O1        1.0  0.05240  0.73021  0.35952  1.0000
  O   O2        1.0  0.32235  0.26993  0.14051  1.0000
  O   O3        1.0  0.94760  0.26978  0.64048  1.0000
  O   O4        1.0  0.67764  0.73007  0.85949  1.0000
  O   O5        1.0  0.44365  0.88714  0.21034  1.0000
  O   O6        1.0  0.55664  0.11319  0.28931  1.0000
  O   O7        1.0  0.55635  0.11286  0.78966  1.0000
  O   O8        1.0  0.44336  0.88681  0.71069  1.0000
  O   O9        1.0  0.27912  0.95092  0.30599  1.0000
  O   O10       1.0  0.32757  0.04887  0.19401  1.0000
  O   O11       1.0  0.72088  0.04908  0.69401  1.0000
  O   O12       1.0  0.67243  0.95113  0.80600  1.0000
  O   O13       1.0  0.09447  0.50230  0.25105  1.0000
  O   O14       1.0  0.59162  0.49774  0.24916  1.0000
  O   O15       1.0  0.90552  0.49770  0.74895  1.0000
  O   O16       1.0  0.40838  0.50225  0.75084  1.0000
  O   O17       1.0  0.42810  0.62861  0.20518  1.0000
  O   O18       1.0  0.79972  0.37145  0.29470  1.0000
  O   O19       1.0  0.57190  0.37139  0.79481  1.0000
  O   O20       1.0  0.20027  0.62855  0.70529  1.0000
  O   O21       1.0  0.23311  0.62998  0.12381  1.0000
  O   O22       1.0  0.60315  0.36964  0.37612  1.0000
  O   O23       1.0  0.76689  0.37003  0.87619  1.0000
  O   O24       1.0  0.39684  0.63036  0.62388  1.0000
  O   O25       1.0  0.77323  0.66849  0.37208  1.0000
  O   O26       1.0  0.10497  0.33145  0.12796  1.0000
  O   O27       1.0  0.22677  0.33151  0.62792  1.0000
  O   O28       1.0  0.89503  0.66855  0.87205  1.0000
