data_image0
_chemical_formula_structural       Zn4H48C60S2N4O26
_chemical_formula_sum              "Zn4 H48 C60 S2 N4 O26"
_cell_length_a       8.12167
_cell_length_b       10.2826
_cell_length_c       17.494
_cell_angle_alpha    83.4043
_cell_angle_beta     77.4768
_cell_angle_gamma    84.6963

_space_group_name_H-M_alt    "P 1"
_space_group_IT_number       1

loop_
  _space_group_symop_operation_xyz
  'x, y, z'

loop_
  _atom_site_type_symbol
  _atom_site_label
  _atom_site_symmetry_multiplicity
  _atom_site_fract_x
  _atom_site_fract_y
  _atom_site_fract_z
  _atom_site_occupancy
  Zn  Zn1       1.0  0.40548  0.43749  0.61974  1.0000
  Zn  Zn2       1.0  0.59452  0.56252  0.38026  1.0000
  Zn  Zn3       1.0  0.01565  0.58452  0.07572  1.0000
  Zn  Zn4       1.0  0.98435  0.41548  0.92428  1.0000
  H   H1        1.0  0.40777  0.91456  0.64353  1.0000
  H   H2        1.0  0.59223  0.08545  0.35647  1.0000
  H   H3        1.0  0.23643  0.77881  0.45297  1.0000
  H   H4        1.0  0.76357  0.22119  0.54703  1.0000
  H   H5        1.0  0.22623  0.19428  0.47425  1.0000
  H   H6        1.0  0.77378  0.80572  0.52575  1.0000
  H   H7        1.0  0.97663  0.83908  0.26584  1.0000
  H   H8        1.0  0.02337  0.16092  0.73417  1.0000
  H   H9        1.0  0.87969  0.07420  0.05955  1.0000
  H   H10       1.0  0.12031  0.92579  0.94045  1.0000
  H   H11       1.0  0.06400  0.25189  0.23239  1.0000
  H   H12       1.0  0.93601  0.74811  0.76761  1.0000
  H   H13       1.0  0.36601  0.64506  0.22141  1.0000
  H   H14       1.0  0.63399  0.35494  0.77858  1.0000
  H   H15       1.0  0.45136  0.85911  0.24384  1.0000
  H   H16       1.0  0.54864  0.14088  0.75615  1.0000
  H   H17       1.0  0.31964  0.01578  0.02092  1.0000
  H   H18       1.0  0.68036  0.98422  0.97908  1.0000
  H   H19       1.0  0.24082  0.79196  0.00948  1.0000
  H   H20       1.0  0.75918  0.20804  0.99052  1.0000
  H   H21       1.0  0.56321  0.02717  0.24371  1.0000
  H   H22       1.0  0.43679  0.97283  0.75629  1.0000
  H   H23       1.0  0.64090  0.25196  0.25565  1.0000
  H   H24       1.0  0.35910  0.74803  0.74435  1.0000
  H   H25       1.0  0.33127  0.19979  0.05089  1.0000
  H   H26       1.0  0.66874  0.80021  0.94911  1.0000
  H   H27       1.0  0.41799  0.41607  0.07207  1.0000
  H   H28       1.0  0.58201  0.58393  0.92793  1.0000
  H   H29       1.0  0.97380  0.34581  0.65517  1.0000
  H   H30       1.0  0.02620  0.65419  0.34483  1.0000
  H   H31       1.0  0.07753  0.46226  0.57893  1.0000
  H   H32       1.0  0.92247  0.53774  0.42108  1.0000
  H   H33       1.0  0.97563  0.33102  0.55335  1.0000
  H   H34       1.0  0.02437  0.66898  0.44665  1.0000
  H   H35       1.0  0.69928  0.66603  0.69057  1.0000
  H   H36       1.0  0.30072  0.33398  0.30943  1.0000
  H   H37       1.0  0.92493  0.64347  0.65796  1.0000
  H   H38       1.0  0.07507  0.35653  0.34204  1.0000
  H   H39       1.0  0.81707  0.52860  0.73397  1.0000
  H   H40       1.0  0.18293  0.47141  0.26603  1.0000
  H   H41       1.0  0.31449  0.50570  0.76135  1.0000
  H   H42       1.0  0.68551  0.49430  0.23866  1.0000
  H   H43       1.0  0.20390  0.38502  0.76222  1.0000
  H   H44       1.0  0.79610  0.61498  0.23778  1.0000
  H   H45       1.0  0.74048  0.69230  0.06259  1.0000
  H   H46       1.0  0.25952  0.30770  0.93741  1.0000
  H   H47       1.0  0.68735  0.54408  0.09179  1.0000
  H   H48       1.0  0.31264  0.45592  0.90821  1.0000
  C   C1        1.0  0.35066  0.93518  0.59238  1.0000
  C   C2        1.0  0.64934  0.06482  0.40762  1.0000
  C   C3        1.0  0.32126  0.83135  0.55286  1.0000
  C   C4        1.0  0.67874  0.16865  0.44714  1.0000
  C   C5        1.0  0.25333  0.85869  0.48563  1.0000
  C   C6        1.0  0.74667  0.14132  0.51437  1.0000
  C   C7        1.0  0.21679  0.98955  0.45690  1.0000
  C   C8        1.0  0.78321  0.01046  0.54310  1.0000
  C   C9        1.0  0.24878  0.09262  0.49699  1.0000
  C   C10       1.0  0.75122  0.90738  0.50301  1.0000
  C   C11       1.0  0.31418  0.06552  0.56516  1.0000
  C   C12       1.0  0.68582  0.93448  0.43484  1.0000
  C   C13       1.0  0.15067  0.01444  0.38768  1.0000
  C   C14       1.0  0.84934  0.98556  0.61233  1.0000
  C   C15       1.0  0.09176  0.02974  0.32851  1.0000
  C   C16       1.0  0.90823  0.97026  0.67148  1.0000
  C   C17       1.0  0.02807  0.04364  0.25864  1.0000
  C   C18       1.0  0.97193  0.95635  0.74136  1.0000
  C   C19       1.0  0.97404  0.93411  0.23163  1.0000
  C   C20       1.0  0.02596  0.06589  0.76837  1.0000
  C   C21       1.0  0.91869  0.94597  0.16085  1.0000
  C   C22       1.0  0.08130  0.05403  0.83915  1.0000
  C   C23       1.0  0.91883  0.06699  0.11552  1.0000
  C   C24       1.0  0.08117  0.93301  0.88448  1.0000
  C   C25       1.0  0.97051  0.17676  0.14175  1.0000
  C   C26       1.0  0.02949  0.82324  0.85825  1.0000
  C   C27       1.0  0.02352  0.16544  0.21319  1.0000
  C   C28       1.0  0.97648  0.83456  0.78681  1.0000
  C   C29       1.0  0.35189  0.17451  0.60822  1.0000
  C   C30       1.0  0.64812  0.82549  0.39178  1.0000
  C   C31       1.0  0.37141  0.69351  0.58160  1.0000
  C   C32       1.0  0.62859  0.30649  0.41840  1.0000
  C   C33       1.0  0.86483  0.82932  0.13098  1.0000
  C   C34       1.0  0.13517  0.17067  0.86902  1.0000
  C   C35       1.0  0.96977  0.30677  0.09402  1.0000
  C   C36       1.0  0.03023  0.69323  0.90599  1.0000
  C   C37       1.0  0.35839  0.73134  0.17992  1.0000
  C   C38       1.0  0.64161  0.26866  0.82008  1.0000
  C   C39       1.0  0.40527  0.85251  0.19044  1.0000
  C   C40       1.0  0.59473  0.14749  0.80956  1.0000
  C   C41       1.0  0.39274  0.96115  0.13454  1.0000
  C   C42       1.0  0.60726  0.03885  0.86546  1.0000
  C   C43       1.0  0.33315  0.93881  0.06792  1.0000
  C   C44       1.0  0.66684  0.06119  0.93208  1.0000
  C   C45       1.0  0.28864  0.81604  0.05915  1.0000
  C   C46       1.0  0.71135  0.18396  0.94085  1.0000
  C   C47       1.0  0.44093  0.09092  0.14473  1.0000
  C   C48       1.0  0.55906  0.90908  0.85527  1.0000
  C   C49       1.0  0.52798  0.10899  0.20348  1.0000
  C   C50       1.0  0.47202  0.89100  0.79652  1.0000
  C   C51       1.0  0.57565  0.23151  0.21087  1.0000
  C   C52       1.0  0.42435  0.76848  0.78913  1.0000
  C   C53       1.0  0.40247  0.20384  0.09639  1.0000
  C   C54       1.0  0.59753  0.79616  0.90360  1.0000
  C   C55       1.0  0.45029  0.32531  0.10571  1.0000
  C   C56       1.0  0.54971  0.67469  0.89429  1.0000
  C   C57       1.0  0.97114  0.39935  0.59745  1.0000
  C   C58       1.0  0.02886  0.60065  0.40255  1.0000
  C   C59       1.0  0.80745  0.59381  0.68058  1.0000
  C   C60       1.0  0.19255  0.40620  0.31942  1.0000
  S   S1        1.0  0.77877  0.50176  0.60354  1.0000
  S   S2        1.0  0.22123  0.49824  0.39645  1.0000
  N   N1        1.0  0.29873  0.71399  0.11507  1.0000
  N   N2        1.0  0.70127  0.28601  0.88493  1.0000
  N   N3        1.0  0.53818  0.33800  0.16223  1.0000
  N   N4        1.0  0.46181  0.66200  0.83777  1.0000
  O   O1        1.0  0.34270  0.29137  0.57143  1.0000
  O   O2        1.0  0.65730  0.70863  0.42857  1.0000
  O   O3        1.0  0.38821  0.14937  0.67452  1.0000
  O   O4        1.0  0.61179  0.85063  0.32548  1.0000
  O   O5        1.0  0.46249  0.67504  0.63221  1.0000
  O   O6        1.0  0.53751  0.32496  0.36779  1.0000
  O   O7        1.0  0.31863  0.59653  0.55425  1.0000
  O   O8        1.0  0.68137  0.40348  0.44575  1.0000
  O   O9        1.0  0.91947  0.71499  0.15952  1.0000
  O   O10       1.0  0.08053  0.28501  0.84048  1.0000
  O   O11       1.0  0.77644  0.84646  0.07932  1.0000
  O   O12       1.0  0.22355  0.15353  0.92069  1.0000
  O   O13       1.0  0.91487  0.31416  0.03054  1.0000
  O   O14       1.0  0.08513  0.68583  0.96947  1.0000
  O   O15       1.0  0.02274  0.40102  0.12105  1.0000
  O   O16       1.0  0.97726  0.59898  0.87895  1.0000
  O   O17       1.0  0.25094  0.59752  0.10705  1.0000
  O   O18       1.0  0.74906  0.40248  0.89295  1.0000
  O   O19       1.0  0.58498  0.45453  0.17056  1.0000
  O   O20       1.0  0.41501  0.54547  0.82944  1.0000
  O   O21       1.0  0.25650  0.46016  0.72794  1.0000
  O   O22       1.0  0.74350  0.53984  0.27206  1.0000
  O   O23       1.0  0.76334  0.59869  0.05003  1.0000
  O   O24       1.0  0.23666  0.40131  0.94997  1.0000
  O   O25       1.0  0.64161  0.40543  0.64090  1.0000
  O   O26       1.0  0.35839  0.59458  0.35910  1.0000
