data_image0
_chemical_formula_structural       Zn4H40C48N16O16
_chemical_formula_sum              "Zn4 H40 C48 N16 O16"
_cell_length_a       7.90584
_cell_length_b       7.90584
_cell_length_c       22.397
_cell_angle_alpha    90
_cell_angle_beta     90
_cell_angle_gamma    89.9997

_space_group_name_H-M_alt    "P 1"
_space_group_IT_number       1

loop_
  _space_group_symop_operation_xyz
  'x, y, z'

loop_
  _atom_site_type_symbol
  _atom_site_label
  _atom_site_symmetry_multiplicity
  _atom_site_fract_x
  _atom_site_fract_y
  _atom_site_fract_z
  _atom_site_occupancy
  Zn  Zn1       1.0  0.61569  0.61569  0.00000  1.0000
  Zn  Zn2       1.0  0.38431  0.38431  0.50000  1.0000
  Zn  Zn3       1.0  0.88431  0.11569  0.25000  1.0000
  Zn  Zn4       1.0  0.11569  0.88431  0.75000  1.0000
  H   H1        1.0  0.27457  0.47681  0.19543  1.0000
  H   H2        1.0  0.72544  0.52318  0.69543  1.0000
  H   H3        1.0  0.02320  0.77454  0.44543  1.0000
  H   H4        1.0  0.97680  0.22546  0.94543  1.0000
  H   H5        1.0  0.22546  0.97681  0.05457  1.0000
  H   H6        1.0  0.77454  0.02319  0.55457  1.0000
  H   H7        1.0  0.47681  0.27456  0.80457  1.0000
  H   H8        1.0  0.52319  0.72544  0.30457  1.0000
  H   H9        1.0  0.99633  0.50634  0.14484  1.0000
  H   H10       1.0  0.00367  0.49366  0.64484  1.0000
  H   H11       1.0  0.99367  0.49631  0.39483  1.0000
  H   H12       1.0  0.00634  0.50368  0.89483  1.0000
  H   H13       1.0  0.50368  0.00633  0.10517  1.0000
  H   H14       1.0  0.49631  0.99367  0.60517  1.0000
  H   H15       1.0  0.50634  0.99633  0.85516  1.0000
  H   H16       1.0  0.49366  0.00368  0.35516  1.0000
  H   H17       1.0  0.26244  0.64493  0.98427  1.0000
  H   H18       1.0  0.73756  0.35508  0.48427  1.0000
  H   H19       1.0  0.85508  0.76244  0.23427  1.0000
  H   H20       1.0  0.14492  0.23756  0.73427  1.0000
  H   H21       1.0  0.23756  0.14492  0.26573  1.0000
  H   H22       1.0  0.76244  0.85509  0.76573  1.0000
  H   H23       1.0  0.64493  0.26244  0.01573  1.0000
  H   H24       1.0  0.35507  0.73756  0.51573  1.0000
  H   H25       1.0  0.67989  0.53855  0.11645  1.0000
  H   H26       1.0  0.32011  0.46145  0.61645  1.0000
  H   H27       1.0  0.96146  0.17988  0.36645  1.0000
  H   H28       1.0  0.03853  0.82012  0.86645  1.0000
  H   H29       1.0  0.82012  0.03854  0.13355  1.0000
  H   H30       1.0  0.17988  0.96146  0.63355  1.0000
  H   H31       1.0  0.53856  0.67989  0.88355  1.0000
  H   H32       1.0  0.46145  0.32011  0.38355  1.0000
  H   H33       1.0  0.59016  0.48663  0.18426  1.0000
  H   H34       1.0  0.40984  0.51337  0.68426  1.0000
  H   H35       1.0  0.01338  0.09014  0.43426  1.0000
  H   H36       1.0  0.98662  0.90986  0.93426  1.0000
  H   H37       1.0  0.90986  0.98662  0.06575  1.0000
  H   H38       1.0  0.09014  0.01338  0.56575  1.0000
  H   H39       1.0  0.48663  0.59016  0.81574  1.0000
  H   H40       1.0  0.51337  0.40984  0.31574  1.0000
  C   C1        1.0  0.41958  0.54059  0.11629  1.0000
  C   C2        1.0  0.58042  0.45942  0.61629  1.0000
  C   C3        1.0  0.95943  0.91956  0.36629  1.0000
  C   C4        1.0  0.04057  0.08044  0.86629  1.0000
  C   C5        1.0  0.08044  0.04057  0.13371  1.0000
  C   C6        1.0  0.91956  0.95943  0.63371  1.0000
  C   C7        1.0  0.54059  0.41958  0.88371  1.0000
  C   C8        1.0  0.45942  0.58042  0.38371  1.0000
  C   C9        1.0  0.26705  0.51307  0.14857  1.0000
  C   C10       1.0  0.73295  0.48693  0.64857  1.0000
  C   C11       1.0  0.98695  0.76703  0.39857  1.0000
  C   C12       1.0  0.01306  0.23297  0.89857  1.0000
  C   C13       1.0  0.23297  0.01305  0.10143  1.0000
  C   C14       1.0  0.76703  0.98695  0.60143  1.0000
  C   C15       1.0  0.51306  0.26705  0.85143  1.0000
  C   C16       1.0  0.48693  0.73296  0.35143  1.0000
  C   C17       1.0  0.11336  0.53032  0.12043  1.0000
  C   C18       1.0  0.88665  0.46968  0.62042  1.0000
  C   C19       1.0  0.96969  0.61335  0.37042  1.0000
  C   C20       1.0  0.03031  0.38665  0.87042  1.0000
  C   C21       1.0  0.38665  0.03031  0.12958  1.0000
  C   C22       1.0  0.61335  0.96969  0.62958  1.0000
  C   C23       1.0  0.53032  0.11335  0.87958  1.0000
  C   C24       1.0  0.46967  0.88665  0.37957  1.0000
  C   C25       1.0  0.10825  0.58075  0.05988  1.0000
  C   C26       1.0  0.89175  0.41926  0.55988  1.0000
  C   C27       1.0  0.91927  0.60824  0.30988  1.0000
  C   C28       1.0  0.08073  0.39176  0.80988  1.0000
  C   C29       1.0  0.39176  0.08073  0.19012  1.0000
  C   C30       1.0  0.60824  0.91927  0.69012  1.0000
  C   C31       1.0  0.58074  0.10825  0.94012  1.0000
  C   C32       1.0  0.41925  0.89175  0.44011  1.0000
  C   C33       1.0  0.26146  0.60630  0.03107  1.0000
  C   C34       1.0  0.73854  0.39370  0.53107  1.0000
  C   C35       1.0  0.89371  0.76146  0.28107  1.0000
  C   C36       1.0  0.10629  0.23854  0.78107  1.0000
  C   C37       1.0  0.23854  0.10629  0.21893  1.0000
  C   C38       1.0  0.76146  0.89372  0.71894  1.0000
  C   C39       1.0  0.60630  0.26146  0.96893  1.0000
  C   C40       1.0  0.39370  0.73854  0.46893  1.0000
  C   C41       1.0  0.94934  0.60767  0.02625  1.0000
  C   C42       1.0  0.05066  0.39233  0.52625  1.0000
  C   C43       1.0  0.89235  0.44933  0.27624  1.0000
  C   C44       1.0  0.10766  0.55067  0.77624  1.0000
  C   C45       1.0  0.55067  0.10765  0.22375  1.0000
  C   C46       1.0  0.44933  0.89235  0.72376  1.0000
  C   C47       1.0  0.60767  0.94934  0.97375  1.0000
  C   C48       1.0  0.39233  0.05066  0.47375  1.0000
  N   N1        1.0  0.41308  0.58539  0.05726  1.0000
  N   N2        1.0  0.58692  0.41461  0.55726  1.0000
  N   N3        1.0  0.91462  0.91307  0.30726  1.0000
  N   N4        1.0  0.08538  0.08693  0.80726  1.0000
  N   N5        1.0  0.08693  0.08537  0.19274  1.0000
  N   N6        1.0  0.91307  0.91463  0.69274  1.0000
  N   N7        1.0  0.58539  0.41308  0.94274  1.0000
  N   N8        1.0  0.41461  0.58693  0.44274  1.0000
  N   N9        1.0  0.57225  0.52405  0.14142  1.0000
  N   N10       1.0  0.42775  0.47595  0.64142  1.0000
  N   N11       1.0  0.97596  0.07223  0.39142  1.0000
  N   N12       1.0  0.02403  0.92777  0.89142  1.0000
  N   N13       1.0  0.92777  0.02404  0.10858  1.0000
  N   N14       1.0  0.07223  0.97596  0.60858  1.0000
  N   N15       1.0  0.52405  0.57225  0.85858  1.0000
  N   N16       1.0  0.47595  0.42776  0.35858  1.0000
  O   O1        1.0  0.81054  0.55483  0.05153  1.0000
  O   O2        1.0  0.18946  0.44517  0.55152  1.0000
  O   O3        1.0  0.94518  0.31053  0.30152  1.0000
  O   O4        1.0  0.05482  0.68947  0.80152  1.0000
  O   O5        1.0  0.68947  0.05482  0.19848  1.0000
  O   O6        1.0  0.31053  0.94518  0.69848  1.0000
  O   O7        1.0  0.55483  0.81054  0.94848  1.0000
  O   O8        1.0  0.44517  0.18946  0.44848  1.0000
  O   O9        1.0  0.95003  0.67680  0.97579  1.0000
  O   O10       1.0  0.04997  0.32320  0.47579  1.0000
  O   O11       1.0  0.82321  0.45002  0.22578  1.0000
  O   O12       1.0  0.17679  0.54998  0.72578  1.0000
  O   O13       1.0  0.54998  0.17679  0.27422  1.0000
  O   O14       1.0  0.45002  0.82321  0.77422  1.0000
  O   O15       1.0  0.67680  0.95003  0.02421  1.0000
  O   O16       1.0  0.32320  0.04997  0.52421  1.0000
