data_image0
_chemical_formula_structural       Cu4H18C32N10O16
_chemical_formula_sum              "Cu4 H18 C32 N10 O16"
_cell_length_a       8.53449
_cell_length_b       9.14911
_cell_length_c       15.6074
_cell_angle_alpha    107.08
_cell_angle_beta     109.067
_cell_angle_gamma    90.0043

_space_group_name_H-M_alt    "P 1"
_space_group_IT_number       1

loop_
  _space_group_symop_operation_xyz
  'x, y, z'

loop_
  _atom_site_type_symbol
  _atom_site_label
  _atom_site_symmetry_multiplicity
  _atom_site_fract_x
  _atom_site_fract_y
  _atom_site_fract_z
  _atom_site_occupancy
  Cu  Cu1       1.0  0.92569  0.77455  0.57155  1.0000
  Cu  Cu2       1.0  0.57478  0.20291  0.42866  1.0000
  Cu  Cu3       1.0  0.07427  0.22548  0.42845  1.0000
  Cu  Cu4       1.0  0.42518  0.79706  0.57131  1.0000
  H   H1        1.0  0.75020  0.97634  0.00015  1.0000
  H   H2        1.0  0.24983  0.02368  0.99986  1.0000
  H   H3        1.0  0.88388  0.69909  0.73012  1.0000
  H   H4        1.0  0.61676  0.96861  0.27002  1.0000
  H   H5        1.0  0.11615  0.30090  0.26987  1.0000
  H   H6        1.0  0.38320  0.03139  0.72996  1.0000
  H   H7        1.0  0.80845  0.83087  0.87221  1.0000
  H   H8        1.0  0.69271  0.95880  0.12819  1.0000
  H   H9        1.0  0.19161  0.16911  0.12780  1.0000
  H   H10       1.0  0.30734  0.04120  0.87181  1.0000
  H   H11       1.0  0.88885  0.26154  0.82173  1.0000
  H   H12       1.0  0.61052  0.43965  0.17865  1.0000
  H   H13       1.0  0.11119  0.73845  0.17826  1.0000
  H   H14       1.0  0.38950  0.56038  0.82136  1.0000
  H   H15       1.0  0.95680  0.10919  0.67946  1.0000
  H   H16       1.0  0.54212  0.42913  0.32064  1.0000
  H   H17       1.0  0.04321  0.89080  0.32052  1.0000
  H   H18       1.0  0.45784  0.57083  0.67934  1.0000
  C   C1        1.0  0.79234  0.14646  0.93859  1.0000
  C   C2        1.0  0.70788  0.20802  0.06180  1.0000
  C   C3        1.0  0.20771  0.85355  0.06142  1.0000
  C   C4        1.0  0.29216  0.79199  0.93820  1.0000
  C   C5        1.0  0.88471  0.82355  0.75387  1.0000
  C   C6        1.0  0.61556  0.06935  0.24631  1.0000
  C   C7        1.0  0.11530  0.17645  0.24612  1.0000
  C   C8        1.0  0.38441  0.93063  0.75367  1.0000
  C   C9        1.0  0.84349  0.89935  0.83345  1.0000
  C   C10       1.0  0.65713  0.06587  0.16690  1.0000
  C   C11       1.0  0.15653  0.10064  0.16656  1.0000
  C   C12       1.0  0.34290  0.93412  0.83309  1.0000
  C   C13       1.0  0.84264  0.05978  0.85940  1.0000
  C   C14       1.0  0.65757  0.20037  0.14095  1.0000
  C   C15       1.0  0.15739  0.94022  0.14061  1.0000
  C   C16       1.0  0.34247  0.79964  0.85906  1.0000
  C   C17       1.0  0.88837  0.13731  0.80429  1.0000
  C   C18       1.0  0.61131  0.33279  0.19602  1.0000
  C   C19       1.0  0.11166  0.86269  0.19570  1.0000
  C   C20       1.0  0.38872  0.66723  0.80398  1.0000
  C   C21       1.0  0.92667  0.05288  0.72547  1.0000
  C   C22       1.0  0.57269  0.32694  0.27469  1.0000
  C   C23       1.0  0.07333  0.94711  0.27452  1.0000
  C   C24       1.0  0.42729  0.67304  0.72529  1.0000
  C   C25       1.0  0.03693  0.49311  0.55021  1.0000
  C   C26       1.0  0.46291  0.94286  0.44978  1.0000
  C   C27       1.0  0.96304  0.50696  0.44980  1.0000
  C   C28       1.0  0.53702  0.05709  0.55024  1.0000
  C   C29       1.0  0.09603  0.99561  0.51686  1.0000
  C   C30       1.0  0.40393  0.47870  0.48305  1.0000
  C   C31       1.0  0.90395  0.00439  0.48315  1.0000
  C   C32       1.0  0.59607  0.52132  0.51697  1.0000
  N   N1        1.0  0.92374  0.89853  0.69997  1.0000
  N   N2        1.0  0.57582  0.19805  0.30007  1.0000
  N   N3        1.0  0.07624  0.10145  0.30002  1.0000
  N   N4        1.0  0.42410  0.80192  0.69988  1.0000
  N   N5        1.0  0.77631  0.29690  0.96196  1.0000
  N   N6        1.0  0.72366  0.33513  0.03848  1.0000
  N   N7        1.0  0.22375  0.70311  0.03805  1.0000
  N   N8        1.0  0.27640  0.66488  0.96153  1.0000
  N   N9        1.0  0.75016  0.08709  0.00018  1.0000
  N   N10       1.0  0.24987  0.91292  0.99982  1.0000
  O   O1        1.0  0.03567  0.60764  0.61946  1.0000
  O   O2        1.0  0.46422  0.98807  0.38057  1.0000
  O   O3        1.0  0.96431  0.39242  0.38055  1.0000
  O   O4        1.0  0.53563  0.01179  0.61940  1.0000
  O   O5        1.0  0.09585  0.36923  0.55813  1.0000
  O   O6        1.0  0.40387  0.81101  0.44178  1.0000
  O   O7        1.0  0.90411  0.63085  0.44186  1.0000
  O   O8        1.0  0.59609  0.18896  0.55830  1.0000
  O   O9        1.0  0.15376  0.91022  0.56718  1.0000
  O   O10       1.0  0.34630  0.34295  0.43268  1.0000
  O   O11       1.0  0.84627  0.08979  0.43286  1.0000
  O   O12       1.0  0.65369  0.65711  0.56735  1.0000
  O   O13       1.0  0.18353  0.07509  0.49053  1.0000
  O   O14       1.0  0.31631  0.58453  0.50933  1.0000
  O   O15       1.0  0.81645  0.92490  0.50947  1.0000
  O   O16       1.0  0.68373  0.41551  0.49069  1.0000
