data_image0
_chemical_formula_structural       Fe2H16C20S4N12
_chemical_formula_sum              "Fe2 H16 C20 S4 N12"
_cell_length_a       8.23822
_cell_length_b       9.40025
_cell_length_c       9.39925
_cell_angle_alpha    122.317
_cell_angle_beta     90.8148
_cell_angle_gamma    89.067

_space_group_name_H-M_alt    "P 1"
_space_group_IT_number       1

loop_
  _space_group_symop_operation_xyz
  'x, y, z'

loop_
  _atom_site_type_symbol
  _atom_site_label
  _atom_site_symmetry_multiplicity
  _atom_site_fract_x
  _atom_site_fract_y
  _atom_site_fract_z
  _atom_site_occupancy
  Fe  Fe1       1.0  0.99035  0.49368  0.50474  1.0000
  Fe  Fe2       1.0  0.48942  0.00501  0.99366  1.0000
  H   H1        1.0  0.75264  0.29631  0.21303  1.0000
  H   H2        1.0  0.25551  0.20256  0.28643  1.0000
  H   H3        1.0  0.25661  0.71291  0.79628  1.0000
  H   H4        1.0  0.75195  0.78630  0.70247  1.0000
  H   H5        1.0  0.76023  0.99543  0.50298  1.0000
  H   H6        1.0  0.24460  0.50750  0.00065  1.0000
  H   H7        1.0  0.24508  0.00034  0.49292  1.0000
  H   H8        1.0  0.75983  0.49838  0.00536  1.0000
  H   H9        1.0  0.96651  0.21480  0.56742  1.0000
  H   H10       1.0  0.45552  0.28491  0.93289  1.0000
  H   H11       1.0  0.54299  0.94230  0.28695  1.0000
  H   H12       1.0  0.03208  0.55876  0.21465  1.0000
  H   H13       1.0  0.03270  0.78669  0.44182  1.0000
  H   H14       1.0  0.54253  0.71467  0.05843  1.0000
  H   H15       1.0  0.45569  0.06721  0.71493  1.0000
  H   H16       1.0  0.96633  0.43268  0.78503  1.0000
  C   C1        1.0  0.75252  0.23157  0.28001  1.0000
  C   C2        1.0  0.25078  0.26800  0.22016  1.0000
  C   C3        1.0  0.25162  0.77966  0.73131  1.0000
  C   C4        1.0  0.75194  0.71983  0.76773  1.0000
  C   C5        1.0  0.75687  0.06358  0.43893  1.0000
  C   C6        1.0  0.24525  0.43736  0.06265  1.0000
  C   C7        1.0  0.24573  0.93807  0.56280  1.0000
  C   C8        1.0  0.75652  0.56199  0.93677  1.0000
  C   C9        1.0  0.86937  0.18708  0.47734  1.0000
  C   C10       1.0  0.36019  0.31286  0.02305  1.0000
  C   C11       1.0  0.63970  0.03196  0.31862  1.0000
  C   C12       1.0  0.13070  0.46876  0.18280  1.0000
  C   C13       1.0  0.13132  0.81809  0.53146  1.0000
  C   C14       1.0  0.63927  0.68249  0.96841  1.0000
  C   C15       1.0  0.36056  0.97713  0.68697  1.0000
  C   C16       1.0  0.86905  0.52288  0.81278  1.0000
  C   C17       1.0  0.71228  0.61889  0.38024  1.0000
  C   C18       1.0  0.21813  0.88209  0.11717  1.0000
  C   C19       1.0  0.77763  0.11890  0.88099  1.0000
  C   C20       1.0  0.28431  0.37941  0.62067  1.0000
  S   S1        1.0  0.54151  0.66805  0.33126  1.0000
  S   S2        1.0  0.04859  0.83492  0.16419  1.0000
  S   S3        1.0  0.95283  0.16165  0.83954  1.0000
  S   S4        1.0  0.46082  0.33619  0.66521  1.0000
  N   N1        1.0  0.86161  0.28088  0.40684  1.0000
  N   N2        1.0  0.35707  0.21854  0.09290  1.0000
  N   N3        1.0  0.64442  0.10931  0.23246  1.0000
  N   N4        1.0  0.14024  0.39106  0.26877  1.0000
  N   N5        1.0  0.14112  0.73184  0.60879  1.0000
  N   N6        1.0  0.64382  0.76823  0.89058  1.0000
  N   N7        1.0  0.35766  0.90688  0.78097  1.0000
  N   N8        1.0  0.86114  0.59287  0.71855  1.0000
  N   N9        1.0  0.83698  0.58109  0.41800  1.0000
  N   N10       1.0  0.34186  0.91860  0.08086  1.0000
  N   N11       1.0  0.65017  0.08560  0.91353  1.0000
  N   N12       1.0  0.15583  0.41320  0.58605  1.0000
