data_image0
_chemical_formula_structural       Mn2H16C20S4N12
_chemical_formula_sum              "Mn2 H16 C20 S4 N12"
_cell_length_a       8.43413
_cell_length_b       9.04226
_cell_length_c       9.04342
_cell_angle_alpha    116.561
_cell_angle_beta     91.7962
_cell_angle_gamma    88.1611

_space_group_name_H-M_alt    "P 1"
_space_group_IT_number       1

loop_
  _space_group_symop_operation_xyz
  'x, y, z'

loop_
  _atom_site_type_symbol
  _atom_site_label
  _atom_site_symmetry_multiplicity
  _atom_site_fract_x
  _atom_site_fract_y
  _atom_site_fract_z
  _atom_site_occupancy
  Mn  Mn1       1.0  0.00000  0.50000  0.50000  1.0000
  Mn  Mn2       1.0  0.49999  0.99998  0.99998  1.0000
  H   H1        1.0  0.73289  0.28724  0.20295  1.0000
  H   H2        1.0  0.26714  0.20290  0.28729  1.0000
  H   H3        1.0  0.26711  0.71275  0.79705  1.0000
  H   H4        1.0  0.73286  0.79710  0.71270  1.0000
  H   H5        1.0  0.74802  0.97407  0.52228  1.0000
  H   H6        1.0  0.25191  0.52215  0.97404  1.0000
  H   H7        1.0  0.25199  0.02593  0.47773  1.0000
  H   H8        1.0  0.74809  0.47786  0.02597  1.0000
  H   H9        1.0  0.94903  0.19516  0.57277  1.0000
  H   H10       1.0  0.45446  0.29467  0.91701  1.0000
  H   H11       1.0  0.54561  0.91713  0.29496  1.0000
  H   H12       1.0  0.05080  0.57280  0.19527  1.0000
  H   H13       1.0  0.05097  0.80485  0.42724  1.0000
  H   H14       1.0  0.54553  0.70534  0.08299  1.0000
  H   H15       1.0  0.45440  0.08287  0.70504  1.0000
  H   H16       1.0  0.94920  0.42721  0.80474  1.0000
  C   C1        1.0  0.73845  0.21540  0.27246  1.0000
  C   C2        1.0  0.26153  0.27234  0.21538  1.0000
  C   C3        1.0  0.26155  0.78460  0.72755  1.0000
  C   C4        1.0  0.73846  0.72766  0.78461  1.0000
  C   C5        1.0  0.74646  0.04271  0.44945  1.0000
  C   C6        1.0  0.25349  0.44929  0.04266  1.0000
  C   C7        1.0  0.25355  0.95729  0.55056  1.0000
  C   C8        1.0  0.74650  0.55072  0.95734  1.0000
  C   C9        1.0  0.85487  0.16574  0.47929  1.0000
  C   C10       1.0  0.36389  0.32207  0.00929  1.0000
  C   C11       1.0  0.63612  0.00939  0.32229  1.0000
  C   C12       1.0  0.14502  0.47923  0.16577  1.0000
  C   C13       1.0  0.14513  0.83426  0.52072  1.0000
  C   C14       1.0  0.63610  0.67793  0.99071  1.0000
  C   C15       1.0  0.36388  0.99060  0.67771  1.0000
  C   C16       1.0  0.85498  0.52078  0.83424  1.0000
  C   C17       1.0  0.70561  0.62172  0.37815  1.0000
  C   C18       1.0  0.20967  0.88713  0.11276  1.0000
  C   C19       1.0  0.79033  0.11287  0.88723  1.0000
  C   C20       1.0  0.29439  0.37829  0.62186  1.0000
  S   S1        1.0  0.51759  0.64065  0.35884  1.0000
  S   S2        1.0  0.03124  0.85450  0.14521  1.0000
  S   S3        1.0  0.96876  0.14551  0.85480  1.0000
  S   S4        1.0  0.48241  0.35935  0.64117  1.0000
  N   N1        1.0  0.84542  0.25751  0.39576  1.0000
  N   N2        1.0  0.36366  0.22607  0.08923  1.0000
  N   N3        1.0  0.63636  0.08933  0.22629  1.0000
  N   N4        1.0  0.15452  0.39575  0.25759  1.0000
  N   N5        1.0  0.15458  0.74249  0.60425  1.0000
  N   N6        1.0  0.63633  0.77393  0.91076  1.0000
  N   N7        1.0  0.36365  0.91067  0.77372  1.0000
  N   N8        1.0  0.84548  0.60426  0.74241  1.0000
  N   N9        1.0  0.84598  0.60704  0.39310  1.0000
  N   N10       1.0  0.34187  0.91288  0.08712  1.0000
  N   N11       1.0  0.65812  0.08710  0.91286  1.0000
  N   N12       1.0  0.15401  0.39296  0.60690  1.0000
