data_image0
_chemical_formula_structural       Cd2H28C40N6O8
_chemical_formula_sum              "Cd2 H28 C40 N6 O8"
_cell_length_a       9.42543
_cell_length_b       10.551
_cell_length_c       10.9953
_cell_angle_alpha    66.1822
_cell_angle_beta     70.5739
_cell_angle_gamma    67.144

_space_group_name_H-M_alt    "P 1"
_space_group_IT_number       1

loop_
  _space_group_symop_operation_xyz
  'x, y, z'

loop_
  _atom_site_type_symbol
  _atom_site_label
  _atom_site_symmetry_multiplicity
  _atom_site_fract_x
  _atom_site_fract_y
  _atom_site_fract_z
  _atom_site_occupancy
  Cd  Cd1       1.0  0.18069  0.36631  0.50591  1.0000
  Cd  Cd2       1.0  0.81931  0.63370  0.49409  1.0000
  H   H1        1.0  0.91063  0.21234  0.25473  1.0000
  H   H2        1.0  0.08937  0.78766  0.74527  1.0000
  H   H3        1.0  0.86530  0.88354  0.06276  1.0000
  H   H4        1.0  0.13470  0.11646  0.93724  1.0000
  H   H5        1.0  0.27602  0.95450  0.27409  1.0000
  H   H6        1.0  0.72399  0.04550  0.72591  1.0000
  H   H7        1.0  0.97746  0.03260  0.83245  1.0000
  H   H8        1.0  0.02254  0.96740  0.16755  1.0000
  H   H9        1.0  0.54250  0.37458  0.83350  1.0000
  H   H10       1.0  0.45750  0.62542  0.16650  1.0000
  H   H11       1.0  0.52107  0.37788  0.54786  1.0000
  H   H12       1.0  0.47893  0.62212  0.45215  1.0000
  H   H13       1.0  0.26088  0.33412  0.93125  1.0000
  H   H14       1.0  0.73912  0.66589  0.06875  1.0000
  H   H15       1.0  0.81126  0.61677  0.84532  1.0000
  H   H16       1.0  0.18874  0.38323  0.15468  1.0000
  H   H17       1.0  0.80358  0.34506  0.42797  1.0000
  H   H18       1.0  0.19642  0.65494  0.57203  1.0000
  H   H19       1.0  0.55608  0.86620  0.22056  1.0000
  H   H20       1.0  0.44392  0.13380  0.77944  1.0000
  H   H21       1.0  0.67139  0.91277  0.28141  1.0000
  H   H22       1.0  0.32861  0.08723  0.71858  1.0000
  H   H23       1.0  0.42998  0.22936  0.06404  1.0000
  H   H24       1.0  0.57002  0.77064  0.93596  1.0000
  H   H25       1.0  0.06018  0.13529  0.42625  1.0000
  H   H26       1.0  0.93982  0.86470  0.57375  1.0000
  H   H27       1.0  0.73597  0.11438  0.21498  1.0000
  H   H28       1.0  0.26403  0.88563  0.78502  1.0000
  C   C1        1.0  0.53550  0.19156  0.36372  1.0000
  C   C2        1.0  0.46450  0.80844  0.63628  1.0000
  C   C3        1.0  0.64036  0.04732  0.07832  1.0000
  C   C4        1.0  0.35965  0.95267  0.92168  1.0000
  C   C5        1.0  0.04030  0.47269  0.87638  1.0000
  C   C6        1.0  0.95970  0.52731  0.12362  1.0000
  C   C7        1.0  0.41808  0.13934  0.35345  1.0000
  C   C8        1.0  0.58193  0.86066  0.64655  1.0000
  C   C9        1.0  0.84006  0.30496  0.68584  1.0000
  C   C10       1.0  0.15994  0.69504  0.31416  1.0000
  C   C11       1.0  0.78925  0.22673  0.31184  1.0000
  C   C12       1.0  0.21075  0.77327  0.68816  1.0000
  C   C13       1.0  0.76712  0.21239  0.81952  1.0000
  C   C14       1.0  0.23288  0.78761  0.18048  1.0000
  C   C15       1.0  0.79432  0.99085  0.01188  1.0000
  C   C16       1.0  0.20568  0.00915  0.98812  1.0000
  C   C17       1.0  0.29061  0.02660  0.31358  1.0000
  C   C18       1.0  0.70939  0.97340  0.68642  1.0000
  C   C19       1.0  0.85683  0.07319  0.88406  1.0000
  C   C20       1.0  0.14317  0.92681  0.11594  1.0000
  C   C21       1.0  0.61177  0.26649  0.88424  1.0000
  C   C22       1.0  0.38823  0.73351  0.11576  1.0000
  C   C23       1.0  0.57344  0.31958  0.47352  1.0000
  C   C24       1.0  0.42655  0.68042  0.52648  1.0000
  C   C25       1.0  0.14702  0.40632  0.96314  1.0000
  C   C26       1.0  0.85298  0.59368  0.03686  1.0000
  C   C27       1.0  0.89259  0.56651  0.91416  1.0000
  C   C28       1.0  0.10740  0.43350  0.08584  1.0000
  C   C29       1.0  0.08517  0.44568  0.74294  1.0000
  C   C30       1.0  0.91483  0.55432  0.25707  1.0000
  C   C31       1.0  0.73084  0.30134  0.40617  1.0000
  C   C32       1.0  0.26917  0.69866  0.59383  1.0000
  C   C33       1.0  0.58035  0.95962  0.22110  1.0000
  C   C34       1.0  0.41965  0.04038  0.77890  1.0000
  C   C35       1.0  0.54929  0.18460  0.01266  1.0000
  C   C36       1.0  0.45071  0.81540  0.98733  1.0000
  C   C37       1.0  0.18583  0.11622  0.38775  1.0000
  C   C38       1.0  0.81417  0.88378  0.61224  1.0000
  C   C39       1.0  0.69164  0.17029  0.29021  1.0000
  C   C40       1.0  0.30836  0.82971  0.70979  1.0000
  N   N1        1.0  0.47823  0.26734  0.45284  1.0000
  N   N2        1.0  0.52177  0.73266  0.54716  1.0000
  N   N3        1.0  0.43674  0.04129  0.29261  1.0000
  N   N4        1.0  0.56326  0.95871  0.70739  1.0000
  N   N5        1.0  0.26602  0.18461  0.41121  1.0000
  N   N6        1.0  0.73398  0.81539  0.58879  1.0000
  O   O1        1.0  0.21092  0.34553  0.71946  1.0000
  O   O2        1.0  0.78908  0.65447  0.28054  1.0000
  O   O3        1.0  0.98390  0.25093  0.63770  1.0000
  O   O4        1.0  0.01610  0.74907  0.36230  1.0000
  O   O5        1.0  0.99736  0.52550  0.65735  1.0000
  O   O6        1.0  0.00264  0.47450  0.34265  1.0000
  O   O7        1.0  0.74947  0.42979  0.63419  1.0000
  O   O8        1.0  0.25053  0.57021  0.36581  1.0000
