data_image0
_chemical_formula_structural       Cu4H20C30N8O10
_chemical_formula_sum              "Cu4 H20 C30 N8 O10"
_cell_length_a       8.10648
_cell_length_b       10.0248
_cell_length_c       10.8427
_cell_angle_alpha    115.932
_cell_angle_beta     102.571
_cell_angle_gamma    101.85

_space_group_name_H-M_alt    "P 1"
_space_group_IT_number       1

loop_
  _space_group_symop_operation_xyz
  'x, y, z'

loop_
  _atom_site_type_symbol
  _atom_site_label
  _atom_site_symmetry_multiplicity
  _atom_site_fract_x
  _atom_site_fract_y
  _atom_site_fract_z
  _atom_site_occupancy
  Cu  Cu1       1.0  0.45673  0.64631  0.01391  1.0000
  Cu  Cu2       1.0  0.54327  0.35369  0.98609  1.0000
  Cu  Cu3       1.0  0.13283  0.36071  0.01216  1.0000
  Cu  Cu4       1.0  0.86717  0.63929  0.98784  1.0000
  H   H1        1.0  0.47073  0.42310  0.78604  1.0000
  H   H2        1.0  0.52927  0.57689  0.21395  1.0000
  H   H3        1.0  0.96502  0.62721  0.45751  1.0000
  H   H4        1.0  0.03499  0.37280  0.54250  1.0000
  H   H5        1.0  0.47756  0.60707  0.72051  1.0000
  H   H6        1.0  0.52245  0.39293  0.27949  1.0000
  H   H7        1.0  0.36468  0.71590  0.56633  1.0000
  H   H8        1.0  0.63533  0.28411  0.43367  1.0000
  H   H9        1.0  0.22317  0.92609  0.66593  1.0000
  H   H10       1.0  0.77683  0.07391  0.33407  1.0000
  H   H11       1.0  0.18828  0.00283  0.90539  1.0000
  H   H12       1.0  0.81171  0.99716  0.09461  1.0000
  H   H13       1.0  0.17532  0.06134  0.11543  1.0000
  H   H14       1.0  0.82467  0.93865  0.88456  1.0000
  H   H15       1.0  0.17339  0.11207  0.35991  1.0000
  H   H16       1.0  0.82661  0.88793  0.64008  1.0000
  H   H17       1.0  0.29416  0.95788  0.46268  1.0000
  H   H18       1.0  0.70585  0.04213  0.53732  1.0000
  H   H19       1.0  0.41968  0.75851  0.31518  1.0000
  H   H20       1.0  0.58032  0.24150  0.68482  1.0000
  C   C1        1.0  0.14735  0.38359  0.28397  1.0000
  C   C2        1.0  0.85264  0.61641  0.71602  1.0000
  C   C3        1.0  0.05610  0.49493  0.27182  1.0000
  C   C4        1.0  0.94390  0.50508  0.72818  1.0000
  C   C5        1.0  0.98004  0.60176  0.35315  1.0000
  C   C6        1.0  0.01997  0.39825  0.64686  1.0000
  C   C7        1.0  0.91531  0.66020  0.26264  1.0000
  C   C8        1.0  0.08471  0.33982  0.73737  1.0000
  C   C9        1.0  0.81809  0.77122  0.26437  1.0000
  C   C10       1.0  0.18191  0.22878  0.73564  1.0000
  C   C11       1.0  0.40828  0.69125  0.75612  1.0000
  C   C12       1.0  0.59172  0.30876  0.24388  1.0000
  C   C13       1.0  0.34735  0.75535  0.67183  1.0000
  C   C14       1.0  0.65265  0.24464  0.32816  1.0000
  C   C15       1.0  0.26750  0.86875  0.72573  1.0000
  C   C16       1.0  0.73251  0.13124  0.27427  1.0000
  C   C17       1.0  0.24785  0.91260  0.86121  1.0000
  C   C18       1.0  0.75214  0.08739  0.13878  1.0000
  C   C19       1.0  0.30847  0.84210  0.93934  1.0000
  C   C20       1.0  0.69153  0.15789  0.06065  1.0000
  C   C21       1.0  0.29480  0.87912  0.08296  1.0000
  C   C22       1.0  0.70520  0.12087  0.91704  1.0000
  C   C23       1.0  0.22327  0.99145  0.15901  1.0000
  C   C24       1.0  0.77673  0.00854  0.84099  1.0000
  C   C25       1.0  0.22322  0.02108  0.29709  1.0000
  C   C26       1.0  0.77678  0.97891  0.70291  1.0000
  C   C27       1.0  0.29310  0.93657  0.35515  1.0000
  C   C28       1.0  0.70690  0.06343  0.64485  1.0000
  C   C29       1.0  0.36213  0.82593  0.27374  1.0000
  C   C30       1.0  0.63787  0.17407  0.72626  1.0000
  N   N1        1.0  0.03472  0.49294  0.14323  1.0000
  N   N2        1.0  0.96528  0.50707  0.85678  1.0000
  N   N3        1.0  0.95108  0.58998  0.13737  1.0000
  N   N4        1.0  0.04893  0.41003  0.86264  1.0000
  N   N5        1.0  0.36293  0.79795  0.14108  1.0000
  N   N6        1.0  0.63706  0.20205  0.85892  1.0000
  N   N7        1.0  0.38959  0.73383  0.88660  1.0000
  N   N8        1.0  0.61041  0.26617  0.11339  1.0000
  O   O1        1.0  0.18467  0.30182  0.16688  1.0000
  O   O2        1.0  0.81532  0.69819  0.83312  1.0000
  O   O3        1.0  0.18371  0.37124  0.39518  1.0000
  O   O4        1.0  0.81628  0.62876  0.60482  1.0000
  O   O5        1.0  0.54178  0.48326  0.89039  1.0000
  O   O6        1.0  0.45822  0.51673  0.10960  1.0000
  O   O7        1.0  0.76701  0.84154  0.36746  1.0000
  O   O8        1.0  0.23299  0.15846  0.63254  1.0000
  O   O9        1.0  0.78550  0.78294  0.14543  1.0000
  O   O10       1.0  0.21450  0.21706  0.85457  1.0000
