data_image0
_chemical_formula_structural       Cd2H38C40S2N10O14
_chemical_formula_sum              "Cd2 H38 C40 S2 N10 O14"
_cell_length_a       10.2806
_cell_length_b       10.2373
_cell_length_c       11.7358
_cell_angle_alpha    102.296
_cell_angle_beta     110.877
_cell_angle_gamma    101.954

_space_group_name_H-M_alt    "P 1"
_space_group_IT_number       1

loop_
  _space_group_symop_operation_xyz
  'x, y, z'

loop_
  _atom_site_type_symbol
  _atom_site_label
  _atom_site_symmetry_multiplicity
  _atom_site_fract_x
  _atom_site_fract_y
  _atom_site_fract_z
  _atom_site_occupancy
  Cd  Cd1       1.0  0.03568  0.37792  0.37867  1.0000
  Cd  Cd2       1.0  0.96432  0.62208  0.62134  1.0000
  H   H1        1.0  0.57512  0.43688  0.05709  1.0000
  H   H2        1.0  0.42488  0.56312  0.94291  1.0000
  H   H3        1.0  0.29778  0.40062  0.02139  1.0000
  H   H4        1.0  0.70223  0.59938  0.97861  1.0000
  H   H5        1.0  0.07600  0.83727  0.26648  1.0000
  H   H6        1.0  0.92400  0.16273  0.73352  1.0000
  H   H7        1.0  0.26547  0.29005  0.74972  1.0000
  H   H8        1.0  0.73453  0.70995  0.25028  1.0000
  H   H9        1.0  0.17149  0.68563  0.34474  1.0000
  H   H10       1.0  0.82851  0.31437  0.65526  1.0000
  H   H11       1.0  0.26406  0.71689  0.51167  1.0000
  H   H12       1.0  0.73594  0.28311  0.48833  1.0000
  H   H13       1.0  0.43317  0.69203  0.40644  1.0000
  H   H14       1.0  0.56683  0.30797  0.59356  1.0000
  H   H15       1.0  0.49363  0.86579  0.51324  1.0000
  H   H16       1.0  0.50637  0.13421  0.48676  1.0000
  H   H17       1.0  0.40248  0.83262  0.34440  1.0000
  H   H18       1.0  0.59752  0.16738  0.65560  1.0000
  H   H19       1.0  0.50547  0.82611  0.78651  1.0000
  H   H20       1.0  0.49453  0.17390  0.21349  1.0000
  H   H21       1.0  0.61769  0.87996  0.95487  1.0000
  H   H22       1.0  0.38231  0.12004  0.04513  1.0000
  H   H23       1.0  0.77567  0.86135  0.83948  1.0000
  H   H24       1.0  0.22433  0.13865  0.16052  1.0000
  H   H25       1.0  0.70283  0.97162  0.75135  1.0000
  H   H26       1.0  0.29717  0.02838  0.24865  1.0000
  H   H27       1.0  0.76338  0.23266  0.88669  1.0000
  H   H28       1.0  0.23662  0.76735  0.11331  1.0000
  H   H29       1.0  0.87742  0.28071  0.05484  1.0000
  H   H30       1.0  0.12258  0.71929  0.94517  1.0000
  H   H31       1.0  0.68223  0.12333  0.08445  1.0000
  H   H32       1.0  0.31777  0.87667  0.91555  1.0000
  H   H33       1.0  0.60878  0.24155  0.00905  1.0000
  H   H34       1.0  0.39122  0.75845  0.99095  1.0000
  H   H35       1.0  0.93240  0.09672  0.92530  1.0000
  H   H36       1.0  0.06760  0.90328  0.07470  1.0000
  H   H37       1.0  0.87941  0.04245  0.03215  1.0000
  H   H38       1.0  0.12059  0.95754  0.96785  1.0000
  C   C1        1.0  0.78026  0.44983  0.30272  1.0000
  C   C2        1.0  0.21974  0.55017  0.69728  1.0000
  C   C3        1.0  0.62716  0.45149  0.25665  1.0000
  C   C4        1.0  0.37284  0.54851  0.74335  1.0000
  C   C5        1.0  0.53578  0.43744  0.13160  1.0000
  C   C6        1.0  0.46422  0.56256  0.86840  1.0000
  C   C7        1.0  0.38895  0.41860  0.11240  1.0000
  C   C8        1.0  0.61105  0.58140  0.88760  1.0000
  C   C9        1.0  0.36984  0.42112  0.22389  1.0000
  C   C10       1.0  0.63016  0.57888  0.77611  1.0000
  C   C11       1.0  0.22876  0.39458  0.23751  1.0000
  C   C12       1.0  0.77124  0.60542  0.76249  1.0000
  C   C13       1.0  0.97331  0.05014  0.24771  1.0000
  C   C14       1.0  0.02669  0.94986  0.75229  1.0000
  C   C15       1.0  0.07712  0.03689  0.36927  1.0000
  C   C16       1.0  0.92288  0.96311  0.63073  1.0000
  C   C17       1.0  0.13209  0.13978  0.49522  1.0000
  C   C18       1.0  0.86790  0.86021  0.50478  1.0000
  C   C19       1.0  0.23297  0.10632  0.59915  1.0000
  C   C20       1.0  0.76703  0.89368  0.40085  1.0000
  C   C21       1.0  0.27604  0.98401  0.58051  1.0000
  C   C22       1.0  0.72396  0.01599  0.41948  1.0000
  C   C23       1.0  0.12104  0.91777  0.35968  1.0000
  C   C24       1.0  0.87895  0.08223  0.64032  1.0000
  C   C25       1.0  0.29824  0.19641  0.72726  1.0000
  C   C26       1.0  0.70176  0.80358  0.27274  1.0000
  C   C27       1.0  0.43536  0.05470  0.79116  1.0000
  C   C28       1.0  0.56464  0.94531  0.20884  1.0000
  C   C29       1.0  0.25999  0.76099  0.43378  1.0000
  C   C30       1.0  0.74001  0.23900  0.56622  1.0000
  C   C31       1.0  0.40607  0.79038  0.42367  1.0000
  C   C32       1.0  0.59393  0.20962  0.57633  1.0000
  C   C33       1.0  0.59242  0.91226  0.86781  1.0000
  C   C34       1.0  0.40758  0.08774  0.13219  1.0000
  C   C35       1.0  0.72839  0.94791  0.84236  1.0000
  C   C36       1.0  0.27161  0.05209  0.15764  1.0000
  C   C37       1.0  0.78871  0.19736  0.97212  1.0000
  C   C38       1.0  0.21129  0.80264  0.02788  1.0000
  C   C39       1.0  0.65297  0.15411  0.99682  1.0000
  C   C40       1.0  0.34703  0.84589  0.00318  1.0000
  S   S1        1.0  0.53213  0.44719  0.35168  1.0000
  S   S2        1.0  0.46787  0.55281  0.64832  1.0000
  N   N1        1.0  0.39801  0.17404  0.82226  1.0000
  N   N2        1.0  0.60199  0.82596  0.17774  1.0000
  N   N3        1.0  0.37529  0.95706  0.67456  1.0000
  N   N4        1.0  0.62471  0.04294  0.32544  1.0000
  N   N5        1.0  0.21586  0.88901  0.45788  1.0000
  N   N6        1.0  0.78414  0.11099  0.54212  1.0000
  N   N7        1.0  0.54237  0.03465  0.88843  1.0000
  N   N8        1.0  0.45763  0.96536  0.11157  1.0000
  N   N9        1.0  0.84258  0.07388  0.94807  1.0000
  N   N10       1.0  0.15742  0.92612  0.05193  1.0000
  O   O1        1.0  0.84604  0.45400  0.23014  1.0000
  O   O2        1.0  0.15395  0.54600  0.76986  1.0000
  O   O3        1.0  0.83965  0.43319  0.41449  1.0000
  O   O4        1.0  0.16035  0.56681  0.58551  1.0000
  O   O5        1.0  0.11215  0.33111  0.13892  1.0000
  O   O6        1.0  0.88785  0.66889  0.86109  1.0000
  O   O7        1.0  0.24096  0.43710  0.35408  1.0000
  O   O8        1.0  0.75904  0.56290  0.64592  1.0000
  O   O9        1.0  0.10024  0.25270  0.52013  1.0000
  O   O10       1.0  0.89975  0.74729  0.47987  1.0000
  O   O11       1.0  0.91341  0.14689  0.25253  1.0000
  O   O12       1.0  0.08660  0.85311  0.74747  1.0000
  O   O13       1.0  0.94737  0.96104  0.14108  1.0000
  O   O14       1.0  0.05263  0.03895  0.85892  1.0000
