data_image0
_chemical_formula_structural       Na2Gd4P2H28C22N2O36
_chemical_formula_sum              "Na2 Gd4 P2 H28 C22 N2 O36"
_cell_length_a       9.69528
_cell_length_b       10.4426
_cell_length_c       11.5052
_cell_angle_alpha    101.904
_cell_angle_beta     105.841
_cell_angle_gamma    88.1866

_space_group_name_H-M_alt    "P 1"
_space_group_IT_number       1

loop_
  _space_group_symop_operation_xyz
  'x, y, z'

loop_
  _atom_site_type_symbol
  _atom_site_label
  _atom_site_symmetry_multiplicity
  _atom_site_fract_x
  _atom_site_fract_y
  _atom_site_fract_z
  _atom_site_occupancy
  Na  Na1       1.0  0.28334  0.15732  0.86471  1.0000
  Na  Na2       1.0  0.71666  0.84269  0.13530  1.0000
  Gd  Gd1       1.0  0.90623  0.98164  0.71010  1.0000
  Gd  Gd2       1.0  0.09378  0.01835  0.28989  1.0000
  Gd  Gd3       1.0  0.42496  0.39778  0.71127  1.0000
  Gd  Gd4       1.0  0.57504  0.60223  0.28873  1.0000
  P   P1        1.0  0.09561  0.21271  0.60522  1.0000
  P   P2        1.0  0.90439  0.78729  0.39478  1.0000
  H   H1        1.0  0.81460  0.41453  0.72676  1.0000
  H   H2        1.0  0.18541  0.58544  0.27325  1.0000
  H   H3        1.0  0.83511  0.57327  0.92465  1.0000
  H   H4        1.0  0.16490  0.42670  0.07536  1.0000
  H   H5        1.0  0.06496  0.71162  0.02121  1.0000
  H   H6        1.0  0.93504  0.28836  0.97880  1.0000
  H   H7        1.0  0.25314  0.68838  0.90730  1.0000
  H   H8        1.0  0.74686  0.31162  0.09270  1.0000
  H   H9        1.0  0.06567  0.41538  0.53681  1.0000
  H   H10       1.0  0.93433  0.58463  0.46319  1.0000
  H   H11       1.0  0.89867  0.35152  0.54102  1.0000
  H   H12       1.0  0.10132  0.64849  0.45898  1.0000
  H   H13       1.0  0.09741  0.82025  0.64134  1.0000
  H   H14       1.0  0.90260  0.17974  0.35867  1.0000
  H   H15       1.0  0.22419  0.88483  0.75507  1.0000
  H   H16       1.0  0.77582  0.11517  0.24493  1.0000
  H   H17       1.0  0.71282  0.73806  0.62310  1.0000
  H   H18       1.0  0.28717  0.26194  0.37690  1.0000
  H   H19       1.0  0.61960  0.84145  0.56523  1.0000
  H   H20       1.0  0.38040  0.15855  0.43477  1.0000
  H   H21       1.0  0.30841  0.15308  0.11923  1.0000
  H   H22       1.0  0.69159  0.84692  0.88078  1.0000
  H   H23       1.0  0.41771  0.26274  0.11882  1.0000
  H   H24       1.0  0.58228  0.73727  0.88118  1.0000
  H   H25       1.0  0.39456  0.95592  0.69112  1.0000
  H   H26       1.0  0.60545  0.04409  0.30888  1.0000
  H   H27       1.0  0.46985  0.91219  0.81818  1.0000
  H   H28       1.0  0.53016  0.08781  0.18182  1.0000
  C   C1        1.0  0.01906  0.46460  0.71120  1.0000
  C   C2        1.0  0.98093  0.53539  0.28880  1.0000
  C   C3        1.0  0.91073  0.47553  0.77074  1.0000
  C   C4        1.0  0.08927  0.52444  0.22926  1.0000
  C   C5        1.0  0.92241  0.56468  0.88101  1.0000
  C   C6        1.0  0.07760  0.43529  0.11900  1.0000
  C   C7        1.0  0.04736  0.64184  0.93387  1.0000
  C   C8        1.0  0.95264  0.35814  0.06614  1.0000
  C   C9        1.0  0.15369  0.63089  0.87374  1.0000
  C   C10       1.0  0.84631  0.36911  0.12626  1.0000
  C   C11       1.0  0.01175  0.37222  0.59258  1.0000
  C   C12       1.0  0.98826  0.62778  0.40742  1.0000
  C   C13       1.0  0.68423  0.20180  0.77244  1.0000
  C   C14       1.0  0.31577  0.79821  0.22756  1.0000
  C   C15       1.0  0.63284  0.16279  0.62882  1.0000
  C   C16       1.0  0.36716  0.83721  0.37118  1.0000
  C   C17       1.0  0.06166  0.04913  0.00793  1.0000
  C   C18       1.0  0.93834  0.95087  0.99208  1.0000
  C   C19       1.0  0.45304  0.44413  0.00568  1.0000
  C   C20       1.0  0.54695  0.55588  0.99430  1.0000
  C   C21       1.0  0.57213  0.52778  0.54618  1.0000
  C   C22       1.0  0.42786  0.47223  0.45383  1.0000
  N   N1        1.0  0.13834  0.54506  0.76443  1.0000
  N   N2        1.0  0.86165  0.45493  0.23557  1.0000
  O   O1        1.0  0.02886  0.14979  0.68684  1.0000
  O   O2        1.0  0.97113  0.85020  0.31316  1.0000
  O   O3        1.0  0.06254  0.13780  0.47148  1.0000
  O   O4        1.0  0.93746  0.86220  0.52852  1.0000
  O   O5        1.0  0.25702  0.23679  0.66703  1.0000
  O   O6        1.0  0.74297  0.76321  0.33297  1.0000
  O   O7        1.0  0.23973  0.54168  0.70636  1.0000
  O   O8        1.0  0.76027  0.45833  0.29364  1.0000
  O   O9        1.0  0.78905  0.14110  0.82576  1.0000
  O   O10       1.0  0.21095  0.85890  0.17424  1.0000
  O   O11       1.0  0.61812  0.29171  0.82554  1.0000
  O   O12       1.0  0.38188  0.70829  0.17445  1.0000
  O   O13       1.0  0.70405  0.07828  0.57602  1.0000
  O   O14       1.0  0.29596  0.92172  0.42397  1.0000
  O   O15       1.0  0.52270  0.22074  0.57768  1.0000
  O   O16       1.0  0.47731  0.77926  0.42233  1.0000
  O   O17       1.0  0.08572  0.06891  0.91051  1.0000
  O   O18       1.0  0.91428  0.93109  0.08948  1.0000
  O   O19       1.0  0.12875  0.10289  0.11761  1.0000
  O   O20       1.0  0.87124  0.89711  0.88238  1.0000
  O   O21       1.0  0.37467  0.37708  0.90655  1.0000
  O   O22       1.0  0.62532  0.62294  0.09344  1.0000
  O   O23       1.0  0.46215  0.42844  0.11382  1.0000
  O   O24       1.0  0.53785  0.57158  0.88618  1.0000
  O   O25       1.0  0.59063  0.52007  0.65741  1.0000
  O   O26       1.0  0.40937  0.47994  0.34258  1.0000
  O   O27       1.0  0.66030  0.57784  0.50347  1.0000
  O   O28       1.0  0.33970  0.42216  0.49653  1.0000
  O   O29       1.0  0.12402  0.84864  0.73183  1.0000
  O   O30       1.0  0.87599  0.15136  0.26817  1.0000
  O   O31       1.0  0.69612  0.83285  0.64027  1.0000
  O   O32       1.0  0.30387  0.16715  0.35973  1.0000
  O   O33       1.0  0.39832  0.16680  0.09731  1.0000
  O   O34       1.0  0.60168  0.83321  0.90269  1.0000
  O   O35       1.0  0.38686  0.96147  0.77482  1.0000
  O   O36       1.0  0.61314  0.03854  0.22518  1.0000
