data_image0
_chemical_formula_structural       Cd2Fe2H44C48Br4N8O4
_chemical_formula_sum              "Cd2 Fe2 H44 C48 Br4 N8 O4"
_cell_length_a       7.49045
_cell_length_b       9.8123
_cell_length_c       16.9361
_cell_angle_alpha    77.6922
_cell_angle_beta     89.5554
_cell_angle_gamma    79.6029

_space_group_name_H-M_alt    "P 1"
_space_group_IT_number       1

loop_
  _space_group_symop_operation_xyz
  'x, y, z'

loop_
  _atom_site_type_symbol
  _atom_site_label
  _atom_site_symmetry_multiplicity
  _atom_site_fract_x
  _atom_site_fract_y
  _atom_site_fract_z
  _atom_site_occupancy
  Cd  Cd1       1.0  0.76169  0.92763  0.04970  1.0000
  Cd  Cd2       1.0  0.23831  0.07238  0.95030  1.0000
  Fe  Fe1       1.0  0.27677  0.21366  0.37800  1.0000
  Fe  Fe2       1.0  0.72322  0.78633  0.62200  1.0000
  H   H1        1.0  0.19871  0.01855  0.29170  1.0000
  H   H2        1.0  0.80126  0.98145  0.70830  1.0000
  H   H3        1.0  0.38067  0.91755  0.43531  1.0000
  H   H4        1.0  0.61931  0.08244  0.56468  1.0000
  H   H5        1.0  0.23463  0.07621  0.54003  1.0000
  H   H6        1.0  0.76535  0.92378  0.45997  1.0000
  H   H7        1.0  0.95488  0.27554  0.46209  1.0000
  H   H8        1.0  0.04511  0.72446  0.53792  1.0000
  H   H9        1.0  0.20175  0.44088  0.24440  1.0000
  H   H10       1.0  0.79826  0.55912  0.75560  1.0000
  H   H11       1.0  0.46638  0.21706  0.23446  1.0000
  H   H12       1.0  0.53363  0.78293  0.76555  1.0000
  H   H13       1.0  0.65765  0.13780  0.37722  1.0000
  H   H14       1.0  0.34235  0.86220  0.62278  1.0000
  H   H15       1.0  0.51802  0.31677  0.47314  1.0000
  H   H16       1.0  0.48198  0.68322  0.52686  1.0000
  H   H17       1.0  0.66588  0.38689  0.16745  1.0000
  H   H18       1.0  0.33413  0.61312  0.83255  1.0000
  H   H19       1.0  0.77786  0.27374  0.10608  1.0000
  H   H20       1.0  0.22215  0.72628  0.89391  1.0000
  H   H21       1.0  0.69094  0.62015  0.11503  1.0000
  H   H22       1.0  0.30907  0.37986  0.88497  1.0000
  H   H23       1.0  0.17712  0.74592  0.04273  1.0000
  H   H24       1.0  0.82290  0.25408  0.95727  1.0000
  H   H25       1.0  0.33911  0.49357  0.06406  1.0000
  H   H26       1.0  0.66090  0.50642  0.93594  1.0000
  H   H27       1.0  0.16476  0.29824  0.11371  1.0000
  H   H28       1.0  0.83524  0.70176  0.88629  1.0000
  H   H29       1.0  0.97366  0.76798  0.39540  1.0000
  H   H30       1.0  0.02635  0.23202  0.60459  1.0000
  H   H31       1.0  0.83798  0.64877  0.44718  1.0000
  H   H32       1.0  0.16203  0.35123  0.55282  1.0000
  H   H33       1.0  0.92886  0.82480  0.23194  1.0000
  H   H34       1.0  0.07114  0.17521  0.76807  1.0000
  H   H35       1.0  0.39915  0.87060  0.14760  1.0000
  H   H36       1.0  0.60084  0.12940  0.85241  1.0000
  H   H37       1.0  0.30459  0.74763  0.28220  1.0000
  H   H38       1.0  0.69541  0.25238  0.71780  1.0000
  H   H39       1.0  0.53607  0.65817  0.39558  1.0000
  H   H40       1.0  0.46393  0.34183  0.60443  1.0000
  H   H41       1.0  0.94819  0.13621  0.21429  1.0000
  H   H42       1.0  0.05181  0.86380  0.78571  1.0000
  H   H43       1.0  0.97405  0.49950  0.34069  1.0000
  H   H44       1.0  0.02595  0.50050  0.65931  1.0000
  C   C1        1.0  0.02879  0.17578  0.35539  1.0000
  C   C2        1.0  0.97120  0.82423  0.64461  1.0000
  C   C3        1.0  0.16770  0.05712  0.34677  1.0000
  C   C4        1.0  0.83228  0.94288  0.65322  1.0000
  C   C5        1.0  0.26530  0.00441  0.42264  1.0000
  C   C6        1.0  0.73468  0.99558  0.57736  1.0000
  C   C7        1.0  0.18763  0.08903  0.47796  1.0000
  C   C8        1.0  0.81236  0.91096  0.52204  1.0000
  C   C9        1.0  0.04194  0.19477  0.43713  1.0000
  C   C10       1.0  0.95806  0.80523  0.56287  1.0000
  C   C11       1.0  0.31778  0.41638  0.36980  1.0000
  C   C12       1.0  0.68222  0.58362  0.63020  1.0000
  C   C13       1.0  0.30370  0.38532  0.29090  1.0000
  C   C14       1.0  0.69630  0.61467  0.70910  1.0000
  C   C15       1.0  0.44375  0.26772  0.28578  1.0000
  C   C16       1.0  0.55625  0.73227  0.71422  1.0000
  C   C17       1.0  0.54400  0.22539  0.36148  1.0000
  C   C18       1.0  0.45601  0.77460  0.63852  1.0000
  C   C19       1.0  0.46847  0.31749  0.41297  1.0000
  C   C20       1.0  0.53153  0.68250  0.58703  1.0000
  C   C21       1.0  0.91331  0.27764  0.29084  1.0000
  C   C22       1.0  0.08669  0.72237  0.70916  1.0000
  C   C23       1.0  0.79945  0.33412  0.15173  1.0000
  C   C24       1.0  0.20055  0.66589  0.84827  1.0000
  C   C25       1.0  0.91315  0.44456  0.11912  1.0000
  C   C26       1.0  0.08685  0.55545  0.88088  1.0000
  C   C27       1.0  0.83468  0.58775  0.10428  1.0000
  C   C28       1.0  0.16532  0.41225  0.89573  1.0000
  C   C29       1.0  0.10556  0.65816  0.06373  1.0000
  C   C30       1.0  0.89446  0.34183  0.93627  1.0000
  C   C31       1.0  0.19498  0.51758  0.07621  1.0000
  C   C32       1.0  0.80504  0.48242  0.92379  1.0000
  C   C33       1.0  0.09773  0.40921  0.10384  1.0000
  C   C34       1.0  0.90227  0.59078  0.89616  1.0000
  C   C35       1.0  0.19920  0.53148  0.40048  1.0000
  C   C36       1.0  0.80081  0.46852  0.59951  1.0000
  C   C37       1.0  0.89896  0.68404  0.38866  1.0000
  C   C38       1.0  0.10105  0.31596  0.61134  1.0000
  C   C39       1.0  0.75118  0.73833  0.32380  1.0000
  C   C40       1.0  0.24882  0.26167  0.67620  1.0000
  C   C41       1.0  0.79117  0.80724  0.24637  1.0000
  C   C42       1.0  0.20883  0.19276  0.75363  1.0000
  C   C43       1.0  0.49580  0.83213  0.19873  1.0000
  C   C44       1.0  0.50420  0.16787  0.80127  1.0000
  C   C45       1.0  0.44406  0.76423  0.27383  1.0000
  C   C46       1.0  0.55593  0.23578  0.72618  1.0000
  C   C47       1.0  0.57346  0.71568  0.33710  1.0000
  C   C48       1.0  0.42654  0.28432  0.66290  1.0000
  Br  Br1       1.0  0.06438  0.01696  0.10298  1.0000
  Br  Br2       1.0  0.93562  0.98305  0.89702  1.0000
  Br  Br3       1.0  0.50949  0.17519  0.02741  1.0000
  Br  Br4       1.0  0.49052  0.82480  0.97260  1.0000
  N   N1        1.0  0.88432  0.23283  0.22251  1.0000
  N   N2        1.0  0.11567  0.76718  0.77749  1.0000
  N   N3        1.0  0.92739  0.69221  0.07662  1.0000
  N   N4        1.0  0.07263  0.30780  0.92337  1.0000
  N   N5        1.0  0.02849  0.56945  0.36730  1.0000
  N   N6        1.0  0.97152  0.43055  0.63270  1.0000
  N   N7        1.0  0.66724  0.85285  0.18522  1.0000
  N   N8        1.0  0.33275  0.14716  0.81479  1.0000
  O   O1        1.0  0.25644  0.59182  0.45050  1.0000
  O   O2        1.0  0.74356  0.40817  0.54950  1.0000
  O   O3        1.0  0.84545  0.40097  0.29725  1.0000
  O   O4        1.0  0.15454  0.59904  0.70275  1.0000
