data_image0
_chemical_formula_structural       Ag4H44C40N12O8
_chemical_formula_sum              "Ag4 H44 C40 N12 O8"
_cell_length_a       11.1805
_cell_length_b       11.1781
_cell_length_c       11.6888
_cell_angle_alpha    96.9983
_cell_angle_beta     112.243
_cell_angle_gamma    118.44

_space_group_name_H-M_alt    "P 1"
_space_group_IT_number       1

loop_
  _space_group_symop_operation_xyz
  'x, y, z'

loop_
  _atom_site_type_symbol
  _atom_site_label
  _atom_site_symmetry_multiplicity
  _atom_site_fract_x
  _atom_site_fract_y
  _atom_site_fract_z
  _atom_site_occupancy
  Ag  Ag1       1.0  0.23845  0.02675  0.38427  1.0000
  Ag  Ag2       1.0  0.14265  0.85421  0.11552  1.0000
  Ag  Ag3       1.0  0.76154  0.97325  0.61573  1.0000
  Ag  Ag4       1.0  0.85735  0.14579  0.88447  1.0000
  H   H1        1.0  0.29286  0.52728  0.39647  1.0000
  H   H2        1.0  0.63112  0.89661  0.10359  1.0000
  H   H3        1.0  0.70714  0.47272  0.60353  1.0000
  H   H4        1.0  0.36888  0.10339  0.89642  1.0000
  H   H5        1.0  0.34040  0.26396  0.55583  1.0000
  H   H6        1.0  0.20857  0.78449  0.94410  1.0000
  H   H7        1.0  0.65960  0.73604  0.44417  1.0000
  H   H8        1.0  0.79143  0.21552  0.05590  1.0000
  H   H9        1.0  0.46862  0.43798  0.55754  1.0000
  H   H10       1.0  0.38071  0.91100  0.94224  1.0000
  H   H11       1.0  0.53138  0.56202  0.44246  1.0000
  H   H12       1.0  0.61929  0.08901  0.05776  1.0000
  H   H13       1.0  0.31994  0.41083  0.59304  1.0000
  H   H14       1.0  0.31835  0.72683  0.90711  1.0000
  H   H15       1.0  0.68006  0.58917  0.40696  1.0000
  H   H16       1.0  0.68165  0.27317  0.09289  1.0000
  H   H17       1.0  0.02082  0.40666  0.02658  1.0000
  H   H18       1.0  0.88017  0.99462  0.47363  1.0000
  H   H19       1.0  0.97917  0.59334  0.97342  1.0000
  H   H20       1.0  0.11983  0.00538  0.52637  1.0000
  H   H21       1.0  0.08151  0.53053  0.18109  1.0000
  H   H22       1.0  0.84954  0.90080  0.31908  1.0000
  H   H23       1.0  0.91849  0.46947  0.81891  1.0000
  H   H24       1.0  0.15045  0.09920  0.68092  1.0000
  H   H25       1.0  0.22333  0.54403  0.14065  1.0000
  H   H26       1.0  0.90351  0.08307  0.35939  1.0000
  H   H27       1.0  0.77666  0.45596  0.85934  1.0000
  H   H28       1.0  0.09650  0.91693  0.64061  1.0000
  H   H29       1.0  0.96989  0.56368  0.42690  1.0000
  H   H30       1.0  0.63653  0.54319  0.07246  1.0000
  H   H31       1.0  0.03011  0.43632  0.57311  1.0000
  H   H32       1.0  0.36347  0.45680  0.92754  1.0000
  H   H33       1.0  0.75016  0.34170  0.42571  1.0000
  H   H34       1.0  0.41564  0.32496  0.07388  1.0000
  H   H35       1.0  0.24984  0.65830  0.57429  1.0000
  H   H36       1.0  0.58436  0.67504  0.92612  1.0000
  H   H37       1.0  0.84794  0.94353  0.01352  1.0000
  H   H38       1.0  0.43020  0.83468  0.48664  1.0000
  H   H39       1.0  0.15205  0.05647  0.98648  1.0000
  H   H40       1.0  0.56980  0.16533  0.51336  1.0000
  H   H41       1.0  0.94248  0.90444  0.14657  1.0000
  H   H42       1.0  0.25800  0.79578  0.35348  1.0000
  H   H43       1.0  0.05752  0.09556  0.85343  1.0000
  H   H44       1.0  0.74200  0.20422  0.64652  1.0000
  C   C1        1.0  0.22275  0.41178  0.33423  1.0000
  C   C2        1.0  0.57786  0.88875  0.16586  1.0000
  C   C3        1.0  0.77725  0.58822  0.66577  1.0000
  C   C4        1.0  0.42214  0.11126  0.83414  1.0000
  C   C5        1.0  0.12061  0.36174  0.19798  1.0000
  C   C6        1.0  0.66403  0.92304  0.30217  1.0000
  C   C7        1.0  0.87939  0.63825  0.80201  1.0000
  C   C8        1.0  0.33598  0.07697  0.69783  1.0000
  C   C9        1.0  0.34696  0.35744  0.53116  1.0000
  C   C10       1.0  0.32669  0.81575  0.96879  1.0000
  C   C11       1.0  0.65304  0.64256  0.46884  1.0000
  C   C12       1.0  0.67331  0.18426  0.03121  1.0000
  C   C13       1.0  0.23551  0.31039  0.38745  1.0000
  C   C14       1.0  0.42328  0.84820  0.11260  1.0000
  C   C15       1.0  0.76449  0.68961  0.61255  1.0000
  C   C16       1.0  0.57672  0.15181  0.88740  1.0000
  C   C17       1.0  0.11033  0.46594  0.13251  1.0000
  C   C18       1.0  0.83362  0.97825  0.36767  1.0000
  C   C19       1.0  0.88967  0.53405  0.86749  1.0000
  C   C20       1.0  0.16638  0.02175  0.63233  1.0000
  C   C21       1.0  0.84807  0.50933  0.34949  1.0000
  C   C22       1.0  0.65940  0.49873  0.14995  1.0000
  C   C23       1.0  0.15194  0.49067  0.65052  1.0000
  C   C24       1.0  0.34060  0.50126  0.85005  1.0000
  C   C25       1.0  0.03798  0.12374  0.18154  1.0000
  C   C26       1.0  0.44246  0.85677  0.31856  1.0000
  C   C27       1.0  0.96202  0.87625  0.81845  1.0000
  C   C28       1.0  0.55753  0.14323  0.68143  1.0000
  C   C29       1.0  0.94709  0.69703  0.24952  1.0000
  C   C30       1.0  0.05291  0.30297  0.75049  1.0000
  C   C31       1.0  0.81562  0.56580  0.24965  1.0000
  C   C32       1.0  0.18438  0.43420  0.75036  1.0000
  C   C33       1.0  0.57014  0.32051  0.24979  1.0000
  C   C34       1.0  0.42986  0.67949  0.75022  1.0000
  C   C35       1.0  0.43872  0.18889  0.24985  1.0000
  C   C36       1.0  0.56128  0.81111  0.75015  1.0000
  C   C37       1.0  0.72637  0.38715  0.34912  1.0000
  C   C38       1.0  0.53755  0.37757  0.15047  1.0000
  C   C39       1.0  0.27363  0.61285  0.65089  1.0000
  C   C40       1.0  0.46246  0.62242  0.84953  1.0000
  N   N1        1.0  0.14669  0.16706  0.31081  1.0000
  N   N2        1.0  0.35655  0.83609  0.18924  1.0000
  N   N3        1.0  0.85331  0.83294  0.68919  1.0000
  N   N4        1.0  0.64345  0.16392  0.81076  1.0000
  N   N5        1.0  0.93400  0.98036  0.10988  1.0000
  N   N6        1.0  0.37073  0.82444  0.39027  1.0000
  N   N7        1.0  0.06599  0.01964  0.89012  1.0000
  N   N8        1.0  0.62928  0.17556  0.60972  1.0000
  N   N9        1.0  0.02764  0.21838  0.12164  1.0000
  N   N10       1.0  0.59698  0.90649  0.37853  1.0000
  N   N11       1.0  0.97236  0.78162  0.87836  1.0000
  N   N12       1.0  0.40302  0.09351  0.62147  1.0000
  O   O1        1.0  0.46705  0.16512  0.35753  1.0000
  O   O2        1.0  0.30735  0.10945  0.14222  1.0000
  O   O3        1.0  0.53295  0.83488  0.64247  1.0000
  O   O4        1.0  0.69265  0.89055  0.85778  1.0000
  O   O5        1.0  0.08110  0.77158  0.35552  1.0000
  O   O6        1.0  0.91584  0.72505  0.14345  1.0000
  O   O7        1.0  0.91891  0.22841  0.64449  1.0000
  O   O8        1.0  0.08416  0.27495  0.85655  1.0000
