data_image0
_chemical_formula_structural       Ag6H60C54N18O12
_chemical_formula_sum              "Ag6 H60 C54 N18 O12"
_cell_length_a       11.4659
_cell_length_b       11.4659
_cell_length_c       11.4659
_cell_angle_alpha    96.2236
_cell_angle_beta     96.2234
_cell_angle_gamma    96.2235

_space_group_name_H-M_alt    "P 1"
_space_group_IT_number       1

loop_
  _space_group_symop_operation_xyz
  'x, y, z'

loop_
  _atom_site_type_symbol
  _atom_site_label
  _atom_site_symmetry_multiplicity
  _atom_site_fract_x
  _atom_site_fract_y
  _atom_site_fract_z
  _atom_site_occupancy
  Ag  Ag1       1.0  0.67563  0.46863  0.00227  1.0000
  Ag  Ag2       1.0  0.00227  0.67563  0.46862  1.0000
  Ag  Ag3       1.0  0.46863  0.00227  0.67563  1.0000
  Ag  Ag4       1.0  0.32437  0.53138  0.99773  1.0000
  Ag  Ag5       1.0  0.99773  0.32437  0.53137  1.0000
  Ag  Ag6       1.0  0.53137  0.99773  0.32437  1.0000
  H   H1        1.0  0.35166  0.53949  0.25337  1.0000
  H   H2        1.0  0.25337  0.35166  0.53949  1.0000
  H   H3        1.0  0.53949  0.25337  0.35166  1.0000
  H   H4        1.0  0.64834  0.46051  0.74663  1.0000
  H   H5        1.0  0.74663  0.64834  0.46051  1.0000
  H   H6        1.0  0.46051  0.74663  0.64834  1.0000
  H   H7        1.0  0.92261  0.14251  0.83053  1.0000
  H   H8        1.0  0.83054  0.92261  0.14251  1.0000
  H   H9        1.0  0.14251  0.83054  0.92261  1.0000
  H   H10       1.0  0.07739  0.85749  0.16947  1.0000
  H   H11       1.0  0.16946  0.07739  0.85749  1.0000
  H   H12       1.0  0.85749  0.16947  0.07739  1.0000
  H   H13       1.0  0.99476  0.32690  0.96437  1.0000
  H   H14       1.0  0.96438  0.99476  0.32690  1.0000
  H   H15       1.0  0.32690  0.96438  0.99476  1.0000
  H   H16       1.0  0.00524  0.67310  0.03563  1.0000
  H   H17       1.0  0.03562  0.00524  0.67310  1.0000
  H   H18       1.0  0.67310  0.03562  0.00524  1.0000
  H   H19       1.0  0.89261  0.42680  0.00804  1.0000
  H   H20       1.0  0.00804  0.89261  0.42679  1.0000
  H   H21       1.0  0.42680  0.00804  0.89260  1.0000
  H   H22       1.0  0.10739  0.57320  0.99196  1.0000
  H   H23       1.0  0.99196  0.10739  0.57320  1.0000
  H   H24       1.0  0.57320  0.99196  0.10740  1.0000
  H   H25       1.0  0.93856  0.42122  0.86429  1.0000
  H   H26       1.0  0.86429  0.93856  0.42121  1.0000
  H   H27       1.0  0.42122  0.86429  0.93856  1.0000
  H   H28       1.0  0.06144  0.57878  0.13571  1.0000
  H   H29       1.0  0.13571  0.06144  0.57878  1.0000
  H   H30       1.0  0.57878  0.13571  0.06144  1.0000
  H   H31       1.0  0.67641  0.90322  0.73723  1.0000
  H   H32       1.0  0.73723  0.67641  0.90322  1.0000
  H   H33       1.0  0.90322  0.73723  0.67641  1.0000
  H   H34       1.0  0.32359  0.09678  0.26277  1.0000
  H   H35       1.0  0.26277  0.32359  0.09678  1.0000
  H   H36       1.0  0.09678  0.26278  0.32359  1.0000
  H   H37       1.0  0.83352  0.94072  0.74794  1.0000
  H   H38       1.0  0.74794  0.83352  0.94072  1.0000
  H   H39       1.0  0.94072  0.74794  0.83352  1.0000
  H   H40       1.0  0.16648  0.05928  0.25206  1.0000
  H   H41       1.0  0.25206  0.16648  0.05928  1.0000
  H   H42       1.0  0.05928  0.25206  0.16648  1.0000
  H   H43       1.0  0.73951  0.96995  0.62307  1.0000
  H   H44       1.0  0.62307  0.73951  0.96995  1.0000
  H   H45       1.0  0.96995  0.62307  0.73951  1.0000
  H   H46       1.0  0.26049  0.03005  0.37693  1.0000
  H   H47       1.0  0.37693  0.26049  0.03005  1.0000
  H   H48       1.0  0.03005  0.37693  0.26049  1.0000
  H   H49       1.0  0.49809  0.35368  0.84283  1.0000
  H   H50       1.0  0.84283  0.49809  0.35368  1.0000
  H   H51       1.0  0.35368  0.84284  0.49809  1.0000
  H   H52       1.0  0.50191  0.64632  0.15717  1.0000
  H   H53       1.0  0.15717  0.50191  0.64632  1.0000
  H   H54       1.0  0.64632  0.15717  0.50191  1.0000
  H   H55       1.0  0.44063  0.21993  0.75746  1.0000
  H   H56       1.0  0.75746  0.44063  0.21993  1.0000
  H   H57       1.0  0.21993  0.75746  0.44063  1.0000
  H   H58       1.0  0.55937  0.78007  0.24254  1.0000
  H   H59       1.0  0.24254  0.55937  0.78007  1.0000
  H   H60       1.0  0.78007  0.24254  0.55937  1.0000
  C   C1        1.0  0.36615  0.47065  0.30972  1.0000
  C   C2        1.0  0.30972  0.36615  0.47065  1.0000
  C   C3        1.0  0.47065  0.30972  0.36615  1.0000
  C   C4        1.0  0.63385  0.52935  0.69028  1.0000
  C   C5        1.0  0.69028  0.63385  0.52935  1.0000
  C   C6        1.0  0.52935  0.69028  0.63385  1.0000
  C   C7        1.0  0.83351  0.16662  0.83121  1.0000
  C   C8        1.0  0.83121  0.83351  0.16662  1.0000
  C   C9        1.0  0.16662  0.83121  0.83351  1.0000
  C   C10       1.0  0.16649  0.83338  0.16880  1.0000
  C   C11       1.0  0.16879  0.16649  0.83338  1.0000
  C   C12       1.0  0.83337  0.16879  0.16650  1.0000
  C   C13       1.0  0.91632  0.36761  0.93476  1.0000
  C   C14       1.0  0.93477  0.91632  0.36761  1.0000
  C   C15       1.0  0.36761  0.93477  0.91632  1.0000
  C   C16       1.0  0.08368  0.63239  0.06523  1.0000
  C   C17       1.0  0.06523  0.08368  0.63239  1.0000
  C   C18       1.0  0.63239  0.06523  0.08368  1.0000
  C   C19       1.0  0.74761  0.96878  0.71954  1.0000
  C   C20       1.0  0.71954  0.74761  0.96878  1.0000
  C   C21       1.0  0.96878  0.71954  0.74761  1.0000
  C   C22       1.0  0.25239  0.03122  0.28046  1.0000
  C   C23       1.0  0.28046  0.25239  0.03122  1.0000
  C   C24       1.0  0.03122  0.28046  0.25239  1.0000
  C   C25       1.0  0.53279  0.41298  0.19706  1.0000
  C   C26       1.0  0.19706  0.53279  0.41298  1.0000
  C   C27       1.0  0.41298  0.19706  0.53279  1.0000
  C   C28       1.0  0.46721  0.58702  0.80294  1.0000
  C   C29       1.0  0.80294  0.46721  0.58702  1.0000
  C   C30       1.0  0.58702  0.80294  0.46721  1.0000
  C   C31       1.0  0.61289  0.23076  0.82750  1.0000
  C   C32       1.0  0.82750  0.61289  0.23076  1.0000
  C   C33       1.0  0.23076  0.82750  0.61289  1.0000
  C   C34       1.0  0.38710  0.76924  0.17250  1.0000
  C   C35       1.0  0.17250  0.38711  0.76924  1.0000
  C   C36       1.0  0.76924  0.17250  0.38711  1.0000
  C   C37       1.0  0.45502  0.39822  0.29304  1.0000
  C   C38       1.0  0.29304  0.45502  0.39822  1.0000
  C   C39       1.0  0.39822  0.29304  0.45502  1.0000
  C   C40       1.0  0.54498  0.60178  0.70696  1.0000
  C   C41       1.0  0.70696  0.54498  0.60178  1.0000
  C   C42       1.0  0.60178  0.70696  0.54498  1.0000
  C   C43       1.0  0.81484  0.27756  0.88385  1.0000
  C   C44       1.0  0.88386  0.81483  0.27756  1.0000
  C   C45       1.0  0.27756  0.88385  0.81483  1.0000
  C   C46       1.0  0.18516  0.72244  0.11615  1.0000
  C   C47       1.0  0.11615  0.18517  0.72244  1.0000
  C   C48       1.0  0.72244  0.11615  0.18517  1.0000
  C   C49       1.0  0.73560  0.08886  0.77836  1.0000
  C   C50       1.0  0.77836  0.73559  0.08886  1.0000
  C   C51       1.0  0.08887  0.77836  0.73560  1.0000
  C   C52       1.0  0.26441  0.91114  0.22165  1.0000
  C   C53       1.0  0.22164  0.26440  0.91113  1.0000
  C   C54       1.0  0.91113  0.22164  0.26441  1.0000
  N   N1        1.0  0.70490  0.30770  0.88647  1.0000
  N   N2        1.0  0.88647  0.70490  0.30770  1.0000
  N   N3        1.0  0.30770  0.88648  0.70490  1.0000
  N   N4        1.0  0.29510  0.69230  0.11353  1.0000
  N   N5        1.0  0.11353  0.29510  0.69230  1.0000
  N   N6        1.0  0.69229  0.11352  0.29510  1.0000
  N   N7        1.0  0.50429  0.26458  0.82222  1.0000
  N   N8        1.0  0.82222  0.50429  0.26458  1.0000
  N   N9        1.0  0.26458  0.82222  0.50429  1.0000
  N   N10       1.0  0.49571  0.73542  0.17778  1.0000
  N   N11       1.0  0.17778  0.49571  0.73542  1.0000
  N   N12       1.0  0.73542  0.17777  0.49572  1.0000
  N   N13       1.0  0.62587  0.12079  0.77581  1.0000
  N   N14       1.0  0.77581  0.62587  0.12079  1.0000
  N   N15       1.0  0.12079  0.77581  0.62587  1.0000
  N   N16       1.0  0.37413  0.87921  0.22419  1.0000
  N   N17       1.0  0.22419  0.37413  0.87921  1.0000
  N   N18       1.0  0.87921  0.22419  0.37413  1.0000
  O   O1        1.0  0.51433  0.49316  0.12964  1.0000
  O   O2        1.0  0.12964  0.51433  0.49316  1.0000
  O   O3        1.0  0.49316  0.12964  0.51432  1.0000
  O   O4        1.0  0.48567  0.50684  0.87036  1.0000
  O   O5        1.0  0.87036  0.48568  0.50684  1.0000
  O   O6        1.0  0.50684  0.87036  0.48568  1.0000
  O   O7        1.0  0.61295  0.34594  0.18621  1.0000
  O   O8        1.0  0.18622  0.61295  0.34594  1.0000
  O   O9        1.0  0.34594  0.18622  0.61295  1.0000
  O   O10       1.0  0.38705  0.65406  0.81378  1.0000
  O   O11       1.0  0.81379  0.38705  0.65406  1.0000
  O   O12       1.0  0.65406  0.81378  0.38705  1.0000
