data_image0
_chemical_formula_structural       CdFe2H44C48Br2N8O4
_chemical_formula_sum              "Cd1 Fe2 H44 C48 Br2 N8 O4"
_cell_length_a       8.93743
_cell_length_b       10.6642
_cell_length_c       13.3088
_cell_angle_alpha    107.681
_cell_angle_beta     105.659
_cell_angle_gamma    93.5181

_space_group_name_H-M_alt    "P 1"
_space_group_IT_number       1

loop_
  _space_group_symop_operation_xyz
  'x, y, z'

loop_
  _atom_site_type_symbol
  _atom_site_label
  _atom_site_symmetry_multiplicity
  _atom_site_fract_x
  _atom_site_fract_y
  _atom_site_fract_z
  _atom_site_occupancy
  Cd  Cd1       1.0  0.50000  0.00000  0.50000  1.0000
  Fe  Fe1       1.0  0.32870  0.42976  0.17634  1.0000
  Fe  Fe2       1.0  0.67131  0.57024  0.82366  1.0000
  H   H1        1.0  0.01949  0.47345  0.16633  1.0000
  H   H2        1.0  0.98052  0.52657  0.83368  1.0000
  H   H3        1.0  0.24517  0.68659  0.22421  1.0000
  H   H4        1.0  0.75485  0.31342  0.77579  1.0000
  H   H5        1.0  0.43247  0.62231  0.09367  1.0000
  H   H6        1.0  0.56755  0.37767  0.90632  1.0000
  H   H7        1.0  0.32481  0.36794  0.95468  1.0000
  H   H8        1.0  0.67518  0.63205  0.04532  1.0000
  H   H9        1.0  0.50481  0.22004  0.13160  1.0000
  H   H10       1.0  0.49520  0.77995  0.86841  1.0000
  H   H11       1.0  0.25462  0.18610  0.20644  1.0000
  H   H12       1.0  0.74539  0.81389  0.79356  1.0000
  H   H13       1.0  0.26045  0.41138  0.36734  1.0000
  H   H14       1.0  0.73954  0.58861  0.63266  1.0000
  H   H15       1.0  0.50664  0.59099  0.39183  1.0000
  H   H16       1.0  0.49336  0.40900  0.60818  1.0000
  H   H17       1.0  0.80908  0.04130  0.03069  1.0000
  H   H18       1.0  0.19092  0.95873  0.96933  1.0000
  H   H19       1.0  0.89876  0.01126  0.92323  1.0000
  H   H20       1.0  0.10122  0.98874  0.07678  1.0000
  H   H21       1.0  0.76325  0.02964  0.74193  1.0000
  H   H22       1.0  0.23675  0.97037  0.25808  1.0000
  H   H23       1.0  0.29337  0.07180  0.66237  1.0000
  H   H24       1.0  0.70661  0.92820  0.33762  1.0000
  H   H25       1.0  0.29132  0.11543  0.85984  1.0000
  H   H26       1.0  0.70865  0.88457  0.14015  1.0000
  H   H27       1.0  0.54489  0.11728  0.00118  1.0000
  H   H28       1.0  0.45508  0.88273  0.99882  1.0000
  H   H29       1.0  0.85699  0.78417  0.27847  1.0000
  H   H30       1.0  0.14302  0.21584  0.72154  1.0000
  H   H31       1.0  0.89738  0.63294  0.19951  1.0000
  H   H32       1.0  0.10262  0.36706  0.80048  1.0000
  H   H33       1.0  0.12914  0.88978  0.36386  1.0000
  H   H34       1.0  0.87087  0.11022  0.63615  1.0000
  H   H35       1.0  0.44043  0.75273  0.58369  1.0000
  H   H36       1.0  0.55958  0.24726  0.41632  1.0000
  H   H37       1.0  0.24036  0.55767  0.54935  1.0000
  H   H38       1.0  0.75964  0.44232  0.45065  1.0000
  H   H39       1.0  0.97751  0.52294  0.40603  1.0000
  H   H40       1.0  0.02249  0.47704  0.59396  1.0000
  H   H41       1.0  0.88859  0.28049  0.07089  1.0000
  H   H42       1.0  0.11143  0.71952  0.92911  1.0000
  H   H43       1.0  0.70024  0.66481  0.34914  1.0000
  H   H44       1.0  0.29977  0.33519  0.65086  1.0000
  C   C1        1.0  0.13757  0.37571  0.03933  1.0000
  C   C2        1.0  0.86244  0.62429  0.96068  1.0000
  C   C3        1.0  0.11199  0.48021  0.12850  1.0000
  C   C4        1.0  0.88803  0.51980  0.87150  1.0000
  C   C5        1.0  0.23029  0.59277  0.15821  1.0000
  C   C6        1.0  0.76972  0.40723  0.84179  1.0000
  C   C7        1.0  0.32988  0.55838  0.08914  1.0000
  C   C8        1.0  0.67013  0.44162  0.91086  1.0000
  C   C9        1.0  0.27404  0.42460  0.01620  1.0000
  C   C10       1.0  0.72597  0.57540  0.98380  1.0000
  C   C11       1.0  0.55565  0.42540  0.25590  1.0000
  C   C12       1.0  0.44436  0.57459  0.74411  1.0000
  C   C13       1.0  0.47247  0.29216  0.19601  1.0000
  C   C14       1.0  0.52754  0.70784  0.80400  1.0000
  C   C15       1.0  0.34284  0.27418  0.23631  1.0000
  C   C16       1.0  0.65717  0.72582  0.76369  1.0000
  C   C17       1.0  0.34507  0.39474  0.32160  1.0000
  C   C18       1.0  0.65493  0.60525  0.67840  1.0000
  C   C19       1.0  0.47488  0.48945  0.33387  1.0000
  C   C20       1.0  0.52512  0.51055  0.66614  1.0000
  C   C21       1.0  0.04803  0.23968  0.98171  1.0000
  C   C22       1.0  0.95197  0.76032  0.01828  1.0000
  C   C23       1.0  0.82902  0.07734  0.96558  1.0000
  C   C24       1.0  0.17096  0.92268  0.03443  1.0000
  C   C25       1.0  0.67451  0.07611  0.88337  1.0000
  C   C26       1.0  0.32548  0.92390  0.11663  1.0000
  C   C27       1.0  0.66235  0.05216  0.77196  1.0000
  C   C28       1.0  0.33765  0.94785  0.22805  1.0000
  C   C29       1.0  0.39885  0.07389  0.72794  1.0000
  C   C30       1.0  0.60113  0.92611  0.27205  1.0000
  C   C31       1.0  0.39869  0.09766  0.83682  1.0000
  C   C32       1.0  0.60129  0.90235  0.16318  1.0000
  C   C33       1.0  0.53921  0.09890  0.91500  1.0000
  C   C34       1.0  0.46077  0.90111  0.08500  1.0000
  C   C35       1.0  0.69598  0.48091  0.23484  1.0000
  C   C36       1.0  0.30403  0.51909  0.76516  1.0000
  C   C37       1.0  0.88243  0.68537  0.28025  1.0000
  C   C38       1.0  0.11757  0.31462  0.71975  1.0000
  C   C39       1.0  0.03378  0.70158  0.37088  1.0000
  C   C40       1.0  0.96623  0.29841  0.62912  1.0000
  C   C41       1.0  0.15048  0.81069  0.39991  1.0000
  C   C42       1.0  0.84953  0.18931  0.60009  1.0000
  C   C43       1.0  0.32296  0.73672  0.52549  1.0000
  C   C44       1.0  0.67705  0.26327  0.47451  1.0000
  C   C45       1.0  0.21112  0.62791  0.50511  1.0000
  C   C46       1.0  0.78888  0.37208  0.49488  1.0000
  C   C47       1.0  0.06577  0.60916  0.42591  1.0000
  C   C48       1.0  0.93424  0.39083  0.57408  1.0000
  Br  Br1       1.0  0.27594  0.16598  0.47719  1.0000
  Br  Br2       1.0  0.72405  0.83401  0.52281  1.0000
  N   N1        1.0  0.92498  0.20856  0.01636  1.0000
  N   N2        1.0  0.07502  0.79145  0.98364  1.0000
  N   N3        1.0  0.52824  0.05183  0.69611  1.0000
  N   N4        1.0  0.47175  0.94818  0.30389  1.0000
  N   N5        1.0  0.74810  0.61295  0.29006  1.0000
  N   N6        1.0  0.25190  0.38705  0.70994  1.0000
  N   N7        1.0  0.29256  0.82664  0.47349  1.0000
  N   N8        1.0  0.70745  0.17335  0.52651  1.0000
  O   O1        1.0  0.08435  0.15783  0.90577  1.0000
  O   O2        1.0  0.91563  0.84218  0.09421  1.0000
  O   O3        1.0  0.76092  0.40968  0.17084  1.0000
  O   O4        1.0  0.23907  0.59031  0.82916  1.0000
