data_image0
_chemical_formula_structural       Na2Sm4P2H28C22N2O36
_chemical_formula_sum              "Na2 Sm4 P2 H28 C22 N2 O36"
_cell_length_a       9.75708
_cell_length_b       10.4731
_cell_length_c       11.603
_cell_angle_alpha    101.864
_cell_angle_beta     106.007
_cell_angle_gamma    87.7144

_space_group_name_H-M_alt    "P 1"
_space_group_IT_number       1

loop_
  _space_group_symop_operation_xyz
  'x, y, z'

loop_
  _atom_site_type_symbol
  _atom_site_label
  _atom_site_symmetry_multiplicity
  _atom_site_fract_x
  _atom_site_fract_y
  _atom_site_fract_z
  _atom_site_occupancy
  Na  Na1       1.0  0.27958  0.15922  0.86466  1.0000
  Na  Na2       1.0  0.72044  0.84079  0.13534  1.0000
  Sm  Sm1       1.0  0.90565  0.97886  0.70878  1.0000
  Sm  Sm2       1.0  0.09435  0.02115  0.29122  1.0000
  Sm  Sm3       1.0  0.42074  0.40030  0.71115  1.0000
  Sm  Sm4       1.0  0.57925  0.59969  0.28885  1.0000
  P   P1        1.0  0.09083  0.21554  0.60635  1.0000
  P   P2        1.0  0.90918  0.78445  0.39365  1.0000
  H   H1        1.0  0.81230  0.41626  0.73132  1.0000
  H   H2        1.0  0.18769  0.58374  0.26867  1.0000
  H   H3        1.0  0.83473  0.57365  0.92811  1.0000
  H   H4        1.0  0.16525  0.42637  0.07188  1.0000
  H   H5        1.0  0.06245  0.71155  0.02169  1.0000
  H   H6        1.0  0.93754  0.28846  0.97829  1.0000
  H   H7        1.0  0.24652  0.68922  0.90548  1.0000
  H   H8        1.0  0.75348  0.31077  0.09451  1.0000
  H   H9        1.0  0.05729  0.41862  0.53953  1.0000
  H   H10       1.0  0.94271  0.58138  0.46047  1.0000
  H   H11       1.0  0.89296  0.35443  0.54543  1.0000
  H   H12       1.0  0.10704  0.64557  0.45456  1.0000
  H   H13       1.0  0.10501  0.81992  0.64150  1.0000
  H   H14       1.0  0.89499  0.18009  0.35850  1.0000
  H   H15       1.0  0.22878  0.88539  0.75603  1.0000
  H   H16       1.0  0.77123  0.11462  0.24397  1.0000
  H   H17       1.0  0.71246  0.73346  0.62197  1.0000
  H   H18       1.0  0.28754  0.26654  0.37803  1.0000
  H   H19       1.0  0.61923  0.83724  0.56424  1.0000
  H   H20       1.0  0.38077  0.16277  0.43577  1.0000
  H   H21       1.0  0.30590  0.15454  0.11637  1.0000
  H   H22       1.0  0.69409  0.84546  0.88363  1.0000
  H   H23       1.0  0.41669  0.26174  0.11593  1.0000
  H   H24       1.0  0.58332  0.73826  0.88407  1.0000
  H   H25       1.0  0.40139  0.95934  0.69854  1.0000
  H   H26       1.0  0.59861  0.04067  0.30146  1.0000
  H   H27       1.0  0.47342  0.91501  0.82458  1.0000
  H   H28       1.0  0.52658  0.08500  0.17542  1.0000
  C   C1        1.0  0.01382  0.46636  0.71345  1.0000
  C   C2        1.0  0.98618  0.53364  0.28655  1.0000
  C   C3        1.0  0.90763  0.47696  0.77396  1.0000
  C   C4        1.0  0.09238  0.52304  0.22604  1.0000
  C   C5        1.0  0.92028  0.56548  0.88354  1.0000
  C   C6        1.0  0.07972  0.43454  0.11645  1.0000
  C   C7        1.0  0.04409  0.64242  0.93476  1.0000
  C   C8        1.0  0.95592  0.35760  0.06524  1.0000
  C   C9        1.0  0.14817  0.63194  0.87357  1.0000
  C   C10       1.0  0.85184  0.36805  0.12643  1.0000
  C   C11       1.0  0.00563  0.37483  0.59545  1.0000
  C   C12       1.0  0.99436  0.62516  0.40454  1.0000
  C   C13       1.0  0.68272  0.20240  0.77224  1.0000
  C   C14       1.0  0.31727  0.79759  0.22777  1.0000
  C   C15       1.0  0.62951  0.16228  0.62968  1.0000
  C   C16       1.0  0.37048  0.83770  0.37033  1.0000
  C   C17       1.0  0.06150  0.04832  0.00732  1.0000
  C   C18       1.0  0.93851  0.95169  0.99268  1.0000
  C   C19       1.0  0.45429  0.44375  0.00589  1.0000
  C   C20       1.0  0.54569  0.55623  0.99411  1.0000
  C   C21       1.0  0.57159  0.52738  0.54618  1.0000
  C   C22       1.0  0.42841  0.47261  0.45381  1.0000
  N   N1        1.0  0.13175  0.54675  0.76489  1.0000
  N   N2        1.0  0.86825  0.45325  0.23511  1.0000
  O   O1        1.0  0.02483  0.15142  0.68633  1.0000
  O   O2        1.0  0.97515  0.84859  0.31367  1.0000
  O   O3        1.0  0.05888  0.14277  0.47317  1.0000
  O   O4        1.0  0.94112  0.85722  0.52683  1.0000
  O   O5        1.0  0.25119  0.23891  0.66858  1.0000
  O   O6        1.0  0.74882  0.76110  0.33143  1.0000
  O   O7        1.0  0.23083  0.54386  0.70590  1.0000
  O   O8        1.0  0.76917  0.45613  0.29410  1.0000
  O   O9        1.0  0.78786  0.14196  0.82502  1.0000
  O   O10       1.0  0.21213  0.85803  0.17499  1.0000
  O   O11       1.0  0.61761  0.29290  0.82508  1.0000
  O   O12       1.0  0.38237  0.70708  0.17492  1.0000
  O   O13       1.0  0.69955  0.07723  0.57699  1.0000
  O   O14       1.0  0.30044  0.92276  0.42302  1.0000
  O   O15       1.0  0.51899  0.22002  0.57907  1.0000
  O   O16       1.0  0.48100  0.77996  0.42093  1.0000
  O   O17       1.0  0.08551  0.06651  0.91033  1.0000
  O   O18       1.0  0.91449  0.93349  0.08966  1.0000
  O   O19       1.0  0.12838  0.10266  0.11572  1.0000
  O   O20       1.0  0.87163  0.89734  0.88428  1.0000
  O   O21       1.0  0.37367  0.37898  0.90821  1.0000
  O   O22       1.0  0.62631  0.62103  0.09178  1.0000
  O   O23       1.0  0.46748  0.42537  0.11302  1.0000
  O   O24       1.0  0.53254  0.57464  0.88700  1.0000
  O   O25       1.0  0.58792  0.52303  0.65702  1.0000
  O   O26       1.0  0.41211  0.47697  0.34297  1.0000
  O   O27       1.0  0.66134  0.57367  0.50395  1.0000
  O   O28       1.0  0.33867  0.42633  0.49607  1.0000
  O   O29       1.0  0.12946  0.84932  0.73101  1.0000
  O   O30       1.0  0.87055  0.15068  0.26899  1.0000
  O   O31       1.0  0.69591  0.82810  0.63850  1.0000
  O   O32       1.0  0.30409  0.17190  0.36150  1.0000
  O   O33       1.0  0.39489  0.16666  0.09382  1.0000
  O   O34       1.0  0.60512  0.83335  0.90619  1.0000
  O   O35       1.0  0.39088  0.96400  0.78050  1.0000
  O   O36       1.0  0.60912  0.03601  0.21951  1.0000
