data_image0
_chemical_formula_structural       Cd2P8H40C12N4O24
_chemical_formula_sum              "Cd2 P8 H40 C12 N4 O24"
_cell_length_a       6.53385
_cell_length_b       9.0154
_cell_length_c       13.9615
_cell_angle_alpha    90
_cell_angle_beta     90
_cell_angle_gamma    96.4294

_space_group_name_H-M_alt    "P 1"
_space_group_IT_number       1

loop_
  _space_group_symop_operation_xyz
  'x, y, z'

loop_
  _atom_site_type_symbol
  _atom_site_label
  _atom_site_symmetry_multiplicity
  _atom_site_fract_x
  _atom_site_fract_y
  _atom_site_fract_z
  _atom_site_occupancy
  Cd  Cd1       1.0  0.09327  0.49325  0.40727  1.0000
  Cd  Cd2       1.0  0.90673  0.50675  0.90727  1.0000
  P   P1        1.0  0.13756  0.87748  0.47382  1.0000
  P   P2        1.0  0.86244  0.12252  0.97382  1.0000
  P   P3        1.0  0.83671  0.12426  0.45554  1.0000
  P   P4        1.0  0.16330  0.87574  0.95554  1.0000
  P   P5        1.0  0.07875  0.45316  0.67645  1.0000
  P   P6        1.0  0.92125  0.54684  0.17645  1.0000
  P   P7        1.0  0.39771  0.43522  0.84723  1.0000
  P   P8        1.0  0.60229  0.56478  0.34723  1.0000
  H   H1        1.0  0.98360  0.85251  0.27677  1.0000
  H   H2        1.0  0.01640  0.14749  0.77677  1.0000
  H   H3        1.0  0.65436  0.52575  0.70826  1.0000
  H   H4        1.0  0.34563  0.47425  0.20826  1.0000
  H   H5        1.0  0.79581  0.86269  0.41286  1.0000
  H   H6        1.0  0.20419  0.13731  0.91286  1.0000
  H   H7        1.0  0.65786  0.94579  0.26344  1.0000
  H   H8        1.0  0.34214  0.05421  0.76344  1.0000
  H   H9        1.0  0.83338  0.99380  0.16721  1.0000
  H   H10       1.0  0.16661  0.00620  0.66721  1.0000
  H   H11       1.0  0.79437  0.13102  0.25612  1.0000
  H   H12       1.0  0.20563  0.86898  0.75613  1.0000
  H   H13       1.0  0.19532  0.03768  0.19839  1.0000
  H   H14       1.0  0.80468  0.96231  0.69839  1.0000
  H   H15       1.0  0.29755  0.01508  0.31629  1.0000
  H   H16       1.0  0.70245  0.98492  0.81629  1.0000
  H   H17       1.0  0.15673  0.16988  0.29210  1.0000
  H   H18       1.0  0.84327  0.83012  0.79211  1.0000
  H   H19       1.0  0.32097  0.63473  0.75150  1.0000
  H   H20       1.0  0.67903  0.36527  0.25150  1.0000
  H   H21       1.0  0.67189  0.39911  0.56646  1.0000
  H   H22       1.0  0.32811  0.60089  0.06646  1.0000
  H   H23       1.0  0.39944  0.37948  0.55286  1.0000
  H   H24       1.0  0.60056  0.62052  0.05286  1.0000
  H   H25       1.0  0.51238  0.28801  0.65101  1.0000
  H   H26       1.0  0.48761  0.71198  0.15101  1.0000
  H   H27       1.0  0.68606  0.66238  0.56513  1.0000
  H   H28       1.0  0.31394  0.33762  0.06513  1.0000
  H   H29       1.0  0.55529  0.75736  0.65559  1.0000
  H   H30       1.0  0.44471  0.24264  0.15559  1.0000
  H   H31       1.0  0.41167  0.66159  0.56017  1.0000
  H   H32       1.0  0.58833  0.33841  0.06017  1.0000
  H   H33       1.0  0.04190  0.68680  0.57017  1.0000
  H   H34       1.0  0.95811  0.31320  0.07017  1.0000
  H   H35       1.0  0.48052  0.06822  0.46274  1.0000
  H   H36       1.0  0.51948  0.93178  0.96274  1.0000
  H   H37       1.0  0.94417  0.19271  0.60764  1.0000
  H   H38       1.0  0.05583  0.80729  0.10764  1.0000
  H   H39       1.0  0.59701  0.25351  0.85503  1.0000
  H   H40       1.0  0.40299  0.74649  0.35502  1.0000
  C   C1        1.0  0.92512  0.95139  0.40720  1.0000
  C   C2        1.0  0.07487  0.04861  0.90720  1.0000
  C   C3        1.0  0.80054  0.01231  0.24257  1.0000
  C   C4        1.0  0.19946  0.98769  0.74257  1.0000
  C   C5        1.0  0.17133  0.05330  0.27509  1.0000
  C   C6        1.0  0.82867  0.94670  0.77509  1.0000
  C   C7        1.0  0.33374  0.51779  0.73180  1.0000
  C   C8        1.0  0.66626  0.48221  0.23180  1.0000
  C   C9        1.0  0.52489  0.38606  0.60470  1.0000
  C   C10       1.0  0.47511  0.61394  0.10469  1.0000
  C   C11       1.0  0.54500  0.66140  0.60718  1.0000
  C   C12       1.0  0.45501  0.33860  0.10718  1.0000
  N   N1        1.0  0.97283  0.96163  0.30076  1.0000
  N   N2        1.0  0.02717  0.03837  0.80076  1.0000
  N   N3        1.0  0.51961  0.52213  0.66604  1.0000
  N   N4        1.0  0.48039  0.47787  0.16604  1.0000
  O   O1        1.0  0.29699  0.00160  0.50605  1.0000
  O   O2        1.0  0.70301  0.99840  0.00605  1.0000
  O   O3        1.0  0.21259  0.75957  0.40710  1.0000
  O   O4        1.0  0.78741  0.24044  0.90710  1.0000
  O   O5        1.0  0.02412  0.79930  0.56298  1.0000
  O   O6        1.0  0.97588  0.20071  0.06298  1.0000
  O   O7        1.0  0.84716  0.11013  0.56624  1.0000
  O   O8        1.0  0.15284  0.88987  0.06624  1.0000
  O   O9        1.0  0.60775  0.12233  0.42430  1.0000
  O   O10       1.0  0.39224  0.87767  0.92430  1.0000
  O   O11       1.0  0.96799  0.25343  0.41173  1.0000
  O   O12       1.0  0.03201  0.74657  0.91173  1.0000
  O   O13       1.0  0.08208  0.52469  0.57579  1.0000
  O   O14       1.0  0.91792  0.47531  0.07579  1.0000
  O   O15       1.0  0.05653  0.28188  0.67348  1.0000
  O   O16       1.0  0.94346  0.71812  0.17348  1.0000
  O   O17       1.0  0.92138  0.51869  0.74056  1.0000
  O   O18       1.0  0.07863  0.48132  0.24056  1.0000
  O   O19       1.0  0.46511  0.27696  0.81910  1.0000
  O   O20       1.0  0.53489  0.72304  0.31910  1.0000
  O   O21       1.0  0.20724  0.41347  0.90888  1.0000
  O   O22       1.0  0.79276  0.58653  0.40888  1.0000
  O   O23       1.0  0.57817  0.53752  0.88669  1.0000
  O   O24       1.0  0.42183  0.46248  0.38669  1.0000
