data_image0
_chemical_formula_structural       Cu4H22C44N10O16
_chemical_formula_sum              "Cu4 H22 C44 N10 O16"
_cell_length_a       8.49724
_cell_length_b       9.44788
_cell_length_c       14.1617
_cell_angle_alpha    81.0479
_cell_angle_beta     89.2037
_cell_angle_gamma    73.9786

_space_group_name_H-M_alt    "P 1"
_space_group_IT_number       1

loop_
  _space_group_symop_operation_xyz
  'x, y, z'

loop_
  _atom_site_type_symbol
  _atom_site_label
  _atom_site_symmetry_multiplicity
  _atom_site_fract_x
  _atom_site_fract_y
  _atom_site_fract_z
  _atom_site_occupancy
  Cu  Cu1       1.0  0.44324  0.35532  0.85458  1.0000
  Cu  Cu2       1.0  0.55676  0.64468  0.14542  1.0000
  Cu  Cu3       1.0  0.48255  0.19892  0.09850  1.0000
  Cu  Cu4       1.0  0.51745  0.80108  0.90150  1.0000
  H   H1        1.0  0.93529  0.11740  0.82167  1.0000
  H   H2        1.0  0.06471  0.88260  0.17833  1.0000
  H   H3        1.0  0.04063  0.60296  0.99465  1.0000
  H   H4        1.0  0.95937  0.39704  0.00535  1.0000
  H   H5        1.0  0.40989  0.63943  0.71727  1.0000
  H   H6        1.0  0.59011  0.36057  0.28273  1.0000
  H   H7        1.0  0.54113  0.71375  0.56701  1.0000
  H   H8        1.0  0.45886  0.28625  0.43299  1.0000
  H   H9        1.0  0.79228  0.24864  0.56953  1.0000
  H   H10       1.0  0.20772  0.75136  0.43046  1.0000
  H   H11       1.0  0.64936  0.19170  0.72067  1.0000
  H   H12       1.0  0.35064  0.80830  0.27933  1.0000
  H   H13       1.0  0.08858  0.21329  0.37156  1.0000
  H   H14       1.0  0.91142  0.78671  0.62844  1.0000
  H   H15       1.0  0.31507  0.09654  0.26840  1.0000
  H   H16       1.0  0.68492  0.90346  0.73160  1.0000
  H   H17       1.0  0.28229  0.50310  0.09895  1.0000
  H   H18       1.0  0.71771  0.49690  0.90105  1.0000
  H   H19       1.0  0.05770  0.63679  0.19466  1.0000
  H   H20       1.0  0.94230  0.36321  0.80534  1.0000
  H   H21       1.0  0.85480  0.74610  0.31148  1.0000
  H   H22       1.0  0.14520  0.25390  0.68852  1.0000
  C   C1        1.0  0.69902  0.08903  0.94718  1.0000
  C   C2        1.0  0.30097  0.91097  0.05282  1.0000
  C   C3        1.0  0.84776  0.97073  0.92787  1.0000
  C   C4        1.0  0.15226  0.02926  0.07213  1.0000
  C   C5        1.0  0.95946  0.00488  0.86106  1.0000
  C   C6        1.0  0.04055  0.99512  0.13894  1.0000
  C   C7        1.0  0.10557  0.90012  0.84497  1.0000
  C   C8        1.0  0.89443  0.09988  0.15504  1.0000
  C   C9        1.0  0.13262  0.75351  0.89370  1.0000
  C   C10       1.0  0.86738  0.24650  0.10631  1.0000
  C   C11       1.0  0.01866  0.71765  0.95865  1.0000
  C   C12       1.0  0.98134  0.28236  0.04135  1.0000
  C   C13       1.0  0.87907  0.82518  0.97882  1.0000
  C   C14       1.0  0.12092  0.17482  0.02118  1.0000
  C   C15       1.0  0.77153  0.77597  0.05441  1.0000
  C   C16       1.0  0.22847  0.22403  0.94559  1.0000
  C   C17       1.0  0.22019  0.95346  0.77422  1.0000
  C   C18       1.0  0.77981  0.04655  0.22578  1.0000
  C   C19       1.0  0.27715  0.62500  0.88212  1.0000
  C   C20       1.0  0.72286  0.37499  0.11788  1.0000
  C   C21       1.0  0.49417  0.55566  0.68243  1.0000
  C   C22       1.0  0.50583  0.44435  0.31757  1.0000
  C   C23       1.0  0.56804  0.59673  0.59868  1.0000
  C   C24       1.0  0.43195  0.40327  0.40131  1.0000
  C   C25       1.0  0.67910  0.48651  0.55653  1.0000
  C   C26       1.0  0.32090  0.51348  0.44347  1.0000
  C   C27       1.0  0.70733  0.33754  0.60021  1.0000
  C   C28       1.0  0.29267  0.66246  0.39979  1.0000
  C   C29       1.0  0.62824  0.30540  0.68363  1.0000
  C   C30       1.0  0.37176  0.69461  0.31637  1.0000
  C   C31       1.0  0.76558  0.52371  0.47092  1.0000
  C   C32       1.0  0.23441  0.47629  0.52907  1.0000
  C   C33       1.0  0.92897  0.50127  0.35602  1.0000
  C   C34       1.0  0.07103  0.49873  0.64398  1.0000
  C   C35       1.0  0.05529  0.43537  0.29236  1.0000
  C   C36       1.0  0.94470  0.56463  0.70764  1.0000
  C   C37       1.0  0.12834  0.28054  0.31141  1.0000
  C   C38       1.0  0.87166  0.71946  0.68859  1.0000
  C   C39       1.0  0.25224  0.21530  0.25404  1.0000
  C   C40       1.0  0.74776  0.78470  0.74596  1.0000
  C   C41       1.0  0.23423  0.44332  0.15948  1.0000
  C   C42       1.0  0.76577  0.55668  0.84052  1.0000
  C   C43       1.0  0.11108  0.51719  0.21430  1.0000
  C   C44       1.0  0.88891  0.48281  0.78570  1.0000
  N   N1        1.0  0.52514  0.41235  0.72539  1.0000
  N   N2        1.0  0.47486  0.58766  0.27461  1.0000
  N   N3        1.0  0.87744  0.42024  0.42970  1.0000
  N   N4        1.0  0.12256  0.57975  0.57030  1.0000
  N   N5        1.0  0.74463  0.66486  0.42681  1.0000
  N   N6        1.0  0.25537  0.33515  0.57319  1.0000
  N   N7        1.0  0.84820  0.64867  0.35465  1.0000
  N   N8        1.0  0.15180  0.35132  0.64534  1.0000
  N   N9        1.0  0.30429  0.29494  0.17883  1.0000
  N   N10       1.0  0.69570  0.70506  0.82117  1.0000
  O   O1        1.0  0.65449  0.20478  0.88326  1.0000
  O   O2        1.0  0.34551  0.79521  0.11674  1.0000
  O   O3        1.0  0.63265  0.06245  0.02640  1.0000
  O   O4        1.0  0.36735  0.93755  0.97361  1.0000
  O   O5        1.0  0.65548  0.72295  0.02506  1.0000
  O   O6        1.0  0.34453  0.27705  0.97494  1.0000
  O   O7        1.0  0.80029  0.77034  0.14038  1.0000
  O   O8        1.0  0.19971  0.22965  0.85962  1.0000
  O   O9        1.0  0.37731  0.89275  0.78360  1.0000
  O   O10       1.0  0.62270  0.10726  0.21640  1.0000
  O   O11       1.0  0.15676  0.05513  0.70702  1.0000
  O   O12       1.0  0.84326  0.94487  0.29298  1.0000
  O   O13       1.0  0.24688  0.52892  0.83525  1.0000
  O   O14       1.0  0.75312  0.47108  0.16475  1.0000
  O   O15       1.0  0.41367  0.60843  0.92206  1.0000
  O   O16       1.0  0.58633  0.39157  0.07794  1.0000
