data_image0
_chemical_formula_structural       Cu2H20C34N10O8
_chemical_formula_sum              "Cu2 H20 C34 N10 O8"
_cell_length_a       7.70871
_cell_length_b       9.08791
_cell_length_c       12.3397
_cell_angle_alpha    98.0541
_cell_angle_beta     97.1698
_cell_angle_gamma    99.9665

_space_group_name_H-M_alt    "P 1"
_space_group_IT_number       1

loop_
  _space_group_symop_operation_xyz
  'x, y, z'

loop_
  _atom_site_type_symbol
  _atom_site_label
  _atom_site_symmetry_multiplicity
  _atom_site_fract_x
  _atom_site_fract_y
  _atom_site_fract_z
  _atom_site_occupancy
  Cu  Cu1       1.0  0.62553  0.89911  0.94676  1.0000
  Cu  Cu2       1.0  0.37447  0.10089  0.05324  1.0000
  H   H1        1.0  0.70105  0.42397  0.88707  1.0000
  H   H2        1.0  0.29894  0.57602  0.11292  1.0000
  H   H3        1.0  0.36555  0.72846  0.77285  1.0000
  H   H4        1.0  0.63445  0.27153  0.22714  1.0000
  H   H5        1.0  0.20359  0.75360  0.59100  1.0000
  H   H6        1.0  0.79641  0.24640  0.40900  1.0000
  H   H7        1.0  0.51471  0.20575  0.63132  1.0000
  H   H8        1.0  0.48529  0.79425  0.36868  1.0000
  H   H9        1.0  0.66660  0.16165  0.81039  1.0000
  H   H10       1.0  0.33340  0.83834  0.18961  1.0000
  H   H11       1.0  0.90518  0.65039  0.33283  1.0000
  H   H12       1.0  0.09483  0.34962  0.66718  1.0000
  H   H13       1.0  0.66368  0.49536  0.18028  1.0000
  H   H14       1.0  0.33632  0.50464  0.81973  1.0000
  H   H15       1.0  0.56061  0.61942  0.02284  1.0000
  H   H16       1.0  0.43939  0.38058  0.97717  1.0000
  H   H17       1.0  0.90591  0.02469  0.15235  1.0000
  H   H18       1.0  0.09409  0.97531  0.84765  1.0000
  H   H19       1.0  0.10791  0.16356  0.30162  1.0000
  H   H20       1.0  0.89209  0.83645  0.69838  1.0000
  C   C1        1.0  0.86787  0.68735  0.84710  1.0000
  C   C2        1.0  0.13213  0.31266  0.15290  1.0000
  C   C3        1.0  0.93931  0.59313  0.92701  1.0000
  C   C4        1.0  0.06069  0.40687  0.07299  1.0000
  C   C5        1.0  0.83308  0.45599  0.93680  1.0000
  C   C6        1.0  0.16691  0.54401  0.06319  1.0000
  C   C7        1.0  0.89122  0.36242  0.00856  1.0000
  C   C8        1.0  0.10878  0.63758  0.99143  1.0000
  C   C9        1.0  0.76441  0.21802  0.01273  1.0000
  C   C10       1.0  0.23559  0.78197  0.98727  1.0000
  C   C11       1.0  0.39457  0.83205  0.73873  1.0000
  C   C12       1.0  0.60543  0.16795  0.26127  1.0000
  C   C13       1.0  0.30513  0.84664  0.63774  1.0000
  C   C14       1.0  0.69487  0.15336  0.36226  1.0000
  C   C15       1.0  0.34329  0.98304  0.59689  1.0000
  C   C16       1.0  0.65670  0.01696  0.40310  1.0000
  C   C17       1.0  0.47650  0.09877  0.66033  1.0000
  C   C18       1.0  0.52350  0.90123  0.33967  1.0000
  C   C19       1.0  0.56080  0.07493  0.76068  1.0000
  C   C20       1.0  0.43920  0.92507  0.23932  1.0000
  C   C21       1.0  0.24319  0.99745  0.49210  1.0000
  C   C22       1.0  0.75681  0.00255  0.50789  1.0000
  C   C23       1.0  0.06031  0.93539  0.34295  1.0000
  C   C24       1.0  0.93969  0.06461  0.65705  1.0000
  C   C25       1.0  0.92423  0.84790  0.25358  1.0000
  C   C26       1.0  0.07577  0.15210  0.74643  1.0000
  C   C27       1.0  0.85428  0.69718  0.26148  1.0000
  C   C28       1.0  0.14573  0.30282  0.73853  1.0000
  C   C29       1.0  0.72167  0.61292  0.17877  1.0000
  C   C30       1.0  0.27834  0.38708  0.82123  1.0000
  C   C31       1.0  0.66240  0.68033  0.09054  1.0000
  C   C32       1.0  0.33760  0.31967  0.90946  1.0000
  C   C33       1.0  0.85698  0.90824  0.16216  1.0000
  C   C34       1.0  0.14302  0.09176  0.83784  1.0000
  N   N1        1.0  0.51899  0.94495  0.80118  1.0000
  N   N2        1.0  0.48101  0.05504  0.19882  1.0000
  N   N3        1.0  0.12652  0.87726  0.42907  1.0000
  N   N4        1.0  0.87348  0.12274  0.57093  1.0000
  N   N5        1.0  0.25267  0.12676  0.44940  1.0000
  N   N6        1.0  0.74733  0.87324  0.55060  1.0000
  N   N7        1.0  0.13596  0.08495  0.35508  1.0000
  N   N8        1.0  0.86404  0.91506  0.64492  1.0000
  N   N9        1.0  0.72760  0.82551  0.08303  1.0000
  N   N10       1.0  0.27241  0.17449  0.91697  1.0000
  O   O1        1.0  0.70690  0.70268  0.84600  1.0000
  O   O2        1.0  0.29310  0.29732  0.15400  1.0000
  O   O3        1.0  0.97513  0.74210  0.78605  1.0000
  O   O4        1.0  0.02487  0.25791  0.21395  1.0000
  O   O5        1.0  0.61685  0.23602  0.04275  1.0000
  O   O6        1.0  0.38315  0.76398  0.95724  1.0000
  O   O7        1.0  0.80924  0.09285  0.97870  1.0000
  O   O8        1.0  0.19076  0.90714  0.02129  1.0000
