data_image0
_chemical_formula_structural       Zn2CoH42C54N2O12
_chemical_formula_sum              "Zn2 Co1 H42 C54 N2 O12"
_cell_length_a       10.3508
_cell_length_b       10.9213
_cell_length_c       12.8937
_cell_angle_alpha    75.1184
_cell_angle_beta     66.9282
_cell_angle_gamma    63.3681

_space_group_name_H-M_alt    "P 1"
_space_group_IT_number       1

loop_
  _space_group_symop_operation_xyz
  'x, y, z'

loop_
  _atom_site_type_symbol
  _atom_site_label
  _atom_site_symmetry_multiplicity
  _atom_site_fract_x
  _atom_site_fract_y
  _atom_site_fract_z
  _atom_site_occupancy
  Zn  Zn1       1.0  0.70119  0.96463  0.71598  1.0000
  Zn  Zn2       1.0  0.29881  0.03537  0.28402  1.0000
  Co  Co1       1.0  0.00000  1.00000  0.50000  1.0000
  H   H1        1.0  0.95057  0.80214  0.27803  1.0000
  H   H2        1.0  0.04943  0.19785  0.72197  1.0000
  H   H3        1.0  0.89631  0.68056  0.16980  1.0000
  H   H4        1.0  0.10370  0.31943  0.83020  1.0000
  H   H5        1.0  0.65240  0.64651  0.24678  1.0000
  H   H6        1.0  0.34759  0.35348  0.75323  1.0000
  H   H7        1.0  0.46284  0.73453  0.42960  1.0000
  H   H8        1.0  0.53716  0.26547  0.57040  1.0000
  H   H9        1.0  0.52149  0.85083  0.53849  1.0000
  H   H10       1.0  0.47851  0.14918  0.46151  1.0000
  H   H11       1.0  0.30474  0.70853  0.61810  1.0000
  H   H12       1.0  0.69526  0.29147  0.38189  1.0000
  H   H13       1.0  0.50880  0.55258  0.70497  1.0000
  H   H14       1.0  0.49120  0.44741  0.29503  1.0000
  H   H15       1.0  0.43766  0.45017  0.90432  1.0000
  H   H16       1.0  0.56235  0.54982  0.09568  1.0000
  H   H17       1.0  0.16329  0.50374  0.01734  1.0000
  H   H18       1.0  0.83672  0.49626  0.98266  1.0000
  H   H19       1.0  0.96165  0.65980  0.92925  1.0000
  H   H20       1.0  0.03836  0.34020  0.07076  1.0000
  H   H21       1.0  0.71550  0.31848  0.87160  1.0000
  H   H22       1.0  0.28450  0.68151  0.12840  1.0000
  H   H23       1.0  0.74994  0.53983  0.84134  1.0000
  H   H24       1.0  0.25006  0.46017  0.15866  1.0000
  H   H25       1.0  0.82006  0.65395  0.64654  1.0000
  H   H26       1.0  0.17993  0.34605  0.35346  1.0000
  H   H27       1.0  0.85645  0.54923  0.48208  1.0000
  H   H28       1.0  0.14355  0.45077  0.51792  1.0000
  H   H29       1.0  0.82832  0.32626  0.51238  1.0000
  H   H30       1.0  0.17168  0.67374  0.48762  1.0000
  H   H31       1.0  0.45850  0.10688  0.91723  1.0000
  H   H32       1.0  0.54150  0.89313  0.08277  1.0000
  H   H33       1.0  0.20693  0.10336  0.04987  1.0000
  H   H34       1.0  0.79306  0.89664  0.95013  1.0000
  H   H35       1.0  0.26438  0.80787  0.85129  1.0000
  H   H36       1.0  0.73562  0.19213  0.14870  1.0000
  H   H37       1.0  0.51531  0.82036  0.72987  1.0000
  H   H38       1.0  0.48470  0.17963  0.27014  1.0000
  H   H39       1.0  0.02163  0.99502  0.11304  1.0000
  H   H40       1.0  0.97837  0.00499  0.88695  1.0000
  H   H41       1.0  0.06437  0.84974  0.04929  1.0000
  H   H42       1.0  0.93563  0.15026  0.95071  1.0000
  C   C1        1.0  0.78022  0.89377  0.48337  1.0000
  C   C2        1.0  0.21979  0.10623  0.51662  1.0000
  C   C3        1.0  0.74004  0.83292  0.41449  1.0000
  C   C4        1.0  0.25995  0.16708  0.58551  1.0000
  C   C5        1.0  0.84431  0.78679  0.30979  1.0000
  C   C6        1.0  0.15569  0.21320  0.69021  1.0000
  C   C7        1.0  0.81354  0.71869  0.25028  1.0000
  C   C8        1.0  0.18647  0.28130  0.74972  1.0000
  C   C9        1.0  0.67680  0.69902  0.29366  1.0000
  C   C10       1.0  0.32320  0.30098  0.70634  1.0000
  C   C11       1.0  0.57065  0.74785  0.39680  1.0000
  C   C12       1.0  0.42935  0.25215  0.60321  1.0000
  C   C13       1.0  0.60243  0.81378  0.45742  1.0000
  C   C14       1.0  0.39756  0.18623  0.54258  1.0000
  C   C15       1.0  0.00077  0.78795  0.71610  1.0000
  C   C16       1.0  0.99924  0.21205  0.28390  1.0000
  C   C17       1.0  0.12158  0.69289  0.76843  1.0000
  C   C18       1.0  0.87842  0.30711  0.23157  1.0000
  C   C19       1.0  0.27587  0.66254  0.70531  1.0000
  C   C20       1.0  0.72413  0.33746  0.29469  1.0000
  C   C21       1.0  0.38904  0.57604  0.75424  1.0000
  C   C22       1.0  0.61096  0.42395  0.24576  1.0000
  C   C23       1.0  0.34877  0.51887  0.86667  1.0000
  C   C24       1.0  0.65124  0.48112  0.13333  1.0000
  C   C25       1.0  0.19510  0.54857  0.92987  1.0000
  C   C26       1.0  0.80491  0.45143  0.07013  1.0000
  C   C27       1.0  0.08181  0.63546  0.88107  1.0000
  C   C28       1.0  0.91819  0.36454  0.11893  1.0000
  C   C29       1.0  0.74225  0.18249  0.71386  1.0000
  C   C30       1.0  0.25774  0.81751  0.28614  1.0000
  C   C31       1.0  0.77007  0.30989  0.69371  1.0000
  C   C32       1.0  0.22993  0.69011  0.30629  1.0000
  C   C33       1.0  0.74805  0.36971  0.78676  1.0000
  C   C34       1.0  0.25195  0.63029  0.21325  1.0000
  C   C35       1.0  0.76726  0.49256  0.76951  1.0000
  C   C36       1.0  0.23273  0.50744  0.23049  1.0000
  C   C37       1.0  0.80674  0.55707  0.65983  1.0000
  C   C38       1.0  0.19325  0.44294  0.34017  1.0000
  C   C39       1.0  0.82722  0.49821  0.56732  1.0000
  C   C40       1.0  0.17277  0.50179  0.43269  1.0000
  C   C41       1.0  0.81051  0.37426  0.58383  1.0000
  C   C42       1.0  0.18949  0.62574  0.41617  1.0000
  C   C43       1.0  0.41010  0.04212  0.90707  1.0000
  C   C44       1.0  0.58990  0.95788  0.09293  1.0000
  C   C45       1.0  0.26982  0.04071  0.97877  1.0000
  C   C46       1.0  0.73018  0.95929  0.02123  1.0000
  C   C47       1.0  0.21327  0.95627  0.96042  1.0000
  C   C48       1.0  0.78673  0.04373  0.03958  1.0000
  C   C49       1.0  0.30288  0.87550  0.86954  1.0000
  C   C50       1.0  0.69712  0.12451  0.13046  1.0000
  C   C51       1.0  0.44252  0.88124  0.80164  1.0000
  C   C52       1.0  0.55748  0.11876  0.19836  1.0000
  C   C53       1.0  0.05913  0.95566  0.03134  1.0000
  C   C54       1.0  0.94086  0.04434  0.96865  1.0000
  N   N1        1.0  0.49579  0.96357  0.81994  1.0000
  N   N2        1.0  0.50421  0.03643  0.18006  1.0000
  O   O1        1.0  0.88956  0.93359  0.43542  1.0000
  O   O2        1.0  0.11045  0.06641  0.56458  1.0000
  O   O3        1.0  0.69955  0.89702  0.58839  1.0000
  O   O4        1.0  0.30046  0.10298  0.41160  1.0000
  O   O5        1.0  0.04285  0.83158  0.61256  1.0000
  O   O6        1.0  0.95715  0.16842  0.38744  1.0000
  O   O7        1.0  0.86116  0.81862  0.78008  1.0000
  O   O8        1.0  0.13885  0.18138  0.21992  1.0000
  O   O9        1.0  0.78625  0.11297  0.62867  1.0000
  O   O10       1.0  0.21375  0.88704  0.37132  1.0000
  O   O11       1.0  0.67067  0.14411  0.81134  1.0000
  O   O12       1.0  0.32932  0.85589  0.18866  1.0000
