data_image0
_chemical_formula_structural       Zn2CdH42C54N2O12
_chemical_formula_sum              "Zn2 Cd1 H42 C54 N2 O12"
_cell_length_a       10.3061
_cell_length_b       10.9392
_cell_length_c       13.1533
_cell_angle_alpha    76.3992
_cell_angle_beta     67.4727
_cell_angle_gamma    63.0817

_space_group_name_H-M_alt    "P 1"
_space_group_IT_number       1

loop_
  _space_group_symop_operation_xyz
  'x, y, z'

loop_
  _atom_site_type_symbol
  _atom_site_label
  _atom_site_symmetry_multiplicity
  _atom_site_fract_x
  _atom_site_fract_y
  _atom_site_fract_z
  _atom_site_occupancy
  Zn  Zn1       1.0  0.70260  0.95948  0.71698  1.0000
  Zn  Zn2       1.0  0.29740  0.04052  0.28302  1.0000
  Cd  Cd1       1.0  1.00000  1.00000  0.50000  1.0000
  H   H1        1.0  0.51101  0.84255  0.54971  1.0000
  H   H2        1.0  0.48898  0.15745  0.45029  1.0000
  H   H3        1.0  0.44462  0.72840  0.44471  1.0000
  H   H4        1.0  0.55537  0.27160  0.55529  1.0000
  H   H5        1.0  0.62480  0.64549  0.26123  1.0000
  H   H6        1.0  0.37519  0.35451  0.73877  1.0000
  H   H7        1.0  0.86802  0.67955  0.18055  1.0000
  H   H8        1.0  0.13199  0.32044  0.81945  1.0000
  H   H9        1.0  0.92985  0.79985  0.28433  1.0000
  H   H10       1.0  0.07016  0.20013  0.71568  1.0000
  H   H11       1.0  0.95635  0.65791  0.93306  1.0000
  H   H12       1.0  0.04365  0.34209  0.06694  1.0000
  H   H13       1.0  0.15510  0.50975  0.02365  1.0000
  H   H14       1.0  0.84490  0.49026  0.97635  1.0000
  H   H15       1.0  0.43239  0.45391  0.91833  1.0000
  H   H16       1.0  0.56761  0.54609  0.08167  1.0000
  H   H17       1.0  0.50842  0.54869  0.72375  1.0000
  H   H18       1.0  0.49157  0.45131  0.27626  1.0000
  H   H19       1.0  0.30740  0.69510  0.63371  1.0000
  H   H20       1.0  0.69260  0.30491  0.36629  1.0000
  H   H21       1.0  0.81442  0.31971  0.52714  1.0000
  H   H22       1.0  0.18559  0.68030  0.47285  1.0000
  H   H23       1.0  0.85158  0.53672  0.49010  1.0000
  H   H24       1.0  0.14843  0.46328  0.50990  1.0000
  H   H25       1.0  0.82975  0.64726  0.64431  1.0000
  H   H26       1.0  0.17026  0.35274  0.35569  1.0000
  H   H27       1.0  0.76647  0.54302  0.83611  1.0000
  H   H28       1.0  0.23354  0.45697  0.16388  1.0000
  H   H29       1.0  0.72482  0.32517  0.87409  1.0000
  H   H30       1.0  0.27519  0.67483  0.12591  1.0000
  H   H31       1.0  0.51188  0.82397  0.72923  1.0000
  H   H32       1.0  0.48811  0.17604  0.27076  1.0000
  H   H33       1.0  0.26140  0.81417  0.84929  1.0000
  H   H34       1.0  0.73860  0.18585  0.15070  1.0000
  H   H35       1.0  0.21039  0.10720  0.04689  1.0000
  H   H36       1.0  0.78961  0.89280  0.95311  1.0000
  H   H37       1.0  0.46156  0.10865  0.91540  1.0000
  H   H38       1.0  0.53843  0.89135  0.08460  1.0000
  H   H39       1.0  0.07017  0.85354  0.05074  1.0000
  H   H40       1.0  0.92982  0.14646  0.94926  1.0000
  H   H41       1.0  0.02303  0.00563  0.10781  1.0000
  H   H42       1.0  0.97697  0.99437  0.89219  1.0000
  C   C1        1.0  0.76750  0.89221  0.48660  1.0000
  C   C2        1.0  0.23250  0.10779  0.51340  1.0000
  C   C3        1.0  0.72442  0.82790  0.42291  1.0000
  C   C4        1.0  0.27558  0.17209  0.57710  1.0000
  C   C5        1.0  0.58817  0.80687  0.46864  1.0000
  C   C6        1.0  0.41183  0.19313  0.53136  1.0000
  C   C7        1.0  0.55197  0.74226  0.41028  1.0000
  C   C8        1.0  0.44803  0.25774  0.58972  1.0000
  C   C9        1.0  0.65277  0.69640  0.30668  1.0000
  C   C10       1.0  0.34723  0.30360  0.69332  1.0000
  C   C11       1.0  0.78917  0.71636  0.26110  1.0000
  C   C12       1.0  0.21083  0.28363  0.73891  1.0000
  C   C13       1.0  0.82415  0.78344  0.31828  1.0000
  C   C14       1.0  0.17586  0.21654  0.68173  1.0000
  C   C15       1.0  0.00269  0.77490  0.72176  1.0000
  C   C16       1.0  0.99730  0.22511  0.27824  1.0000
  C   C17       1.0  0.12046  0.68447  0.77757  1.0000
  C   C18       1.0  0.87954  0.31554  0.22243  1.0000
  C   C19       1.0  0.07761  0.63285  0.88779  1.0000
  C   C20       1.0  0.92239  0.36715  0.11222  1.0000
  C   C21       1.0  0.18950  0.55021  0.93821  1.0000
  C   C22       1.0  0.81050  0.44979  0.06179  1.0000
  C   C23       1.0  0.34462  0.51957  0.87945  1.0000
  C   C24       1.0  0.65538  0.48043  0.12056  1.0000
  C   C25       1.0  0.38772  0.57201  0.76975  1.0000
  C   C26       1.0  0.61228  0.42799  0.23026  1.0000
  C   C27       1.0  0.27618  0.65345  0.71901  1.0000
  C   C28       1.0  0.72382  0.34655  0.28099  1.0000
  C   C29       1.0  0.73558  0.18364  0.72892  1.0000
  C   C30       1.0  0.26441  0.81636  0.27107  1.0000
  C   C31       1.0  0.76800  0.30898  0.70322  1.0000
  C   C32       1.0  0.23200  0.69103  0.29678  1.0000
  C   C33       1.0  0.80401  0.36831  0.59491  1.0000
  C   C34       1.0  0.19600  0.63169  0.40509  1.0000
  C   C35       1.0  0.82559  0.48992  0.57411  1.0000
  C   C36       1.0  0.17442  0.51008  0.42589  1.0000
  C   C37       1.0  0.81334  0.55203  0.66077  1.0000
  C   C38       1.0  0.18667  0.44797  0.33923  1.0000
  C   C39       1.0  0.77774  0.49293  0.76884  1.0000
  C   C40       1.0  0.22227  0.50707  0.23116  1.0000
  C   C41       1.0  0.75466  0.37209  0.79032  1.0000
  C   C42       1.0  0.24535  0.62790  0.20968  1.0000
  C   C43       1.0  0.44044  0.88533  0.80028  1.0000
  C   C44       1.0  0.55955  0.11467  0.19972  1.0000
  C   C45       1.0  0.30089  0.88106  0.86753  1.0000
  C   C46       1.0  0.69911  0.11895  0.13246  1.0000
  C   C47       1.0  0.21354  0.96142  0.95809  1.0000
  C   C48       1.0  0.78646  0.03858  0.04191  1.0000
  C   C49       1.0  0.27154  0.04507  0.97602  1.0000
  C   C50       1.0  0.72846  0.95493  0.02398  1.0000
  C   C51       1.0  0.41166  0.04525  0.90498  1.0000
  C   C52       1.0  0.58834  0.95475  0.09502  1.0000
  C   C53       1.0  0.06071  0.96017  0.02994  1.0000
  C   C54       1.0  0.93929  0.03983  0.97005  1.0000
  N   N1        1.0  0.49575  0.96612  0.81859  1.0000
  N   N2        1.0  0.50424  0.03388  0.18140  1.0000
  O   O1        1.0  0.86684  0.94190  0.43344  1.0000
  O   O2        1.0  0.13316  0.05810  0.56656  1.0000
  O   O3        1.0  0.70041  0.88979  0.59116  1.0000
  O   O4        1.0  0.29959  0.11020  0.40884  1.0000
  O   O5        1.0  0.04979  0.80596  0.61948  1.0000
  O   O6        1.0  0.95021  0.19404  0.38052  1.0000
  O   O7        1.0  0.86072  0.81522  0.78259  1.0000
  O   O8        1.0  0.13928  0.18478  0.21741  1.0000
  O   O9        1.0  0.77268  0.11291  0.64638  1.0000
  O   O10       1.0  0.22732  0.88709  0.35362  1.0000
  O   O11       1.0  0.67031  0.14919  0.82564  1.0000
  O   O12       1.0  0.32968  0.85082  0.17436  1.0000
