data_image0
_chemical_formula_structural       K4H44C36O16
_chemical_formula_sum              "K4 H44 C36 O16"
_cell_length_a       6.89517
_cell_length_b       9.04541
_cell_length_c       16.1454
_cell_angle_alpha    89.9998
_cell_angle_beta     91.9135
_cell_angle_gamma    90.0001

_space_group_name_H-M_alt    "P 1"
_space_group_IT_number       1

loop_
  _space_group_symop_operation_xyz
  'x, y, z'

loop_
  _atom_site_type_symbol
  _atom_site_label
  _atom_site_symmetry_multiplicity
  _atom_site_fract_x
  _atom_site_fract_y
  _atom_site_fract_z
  _atom_site_occupancy
  K   K1        1.0  0.26058  0.63150  0.46491  1.0000
  K   K2        1.0  0.23943  0.13150  0.53509  1.0000
  K   K3        1.0  0.73943  0.36849  0.53509  1.0000
  K   K4        1.0  0.76058  0.86850  0.46491  1.0000
  H   H1        1.0  0.16730  0.44113  0.01530  1.0000
  H   H2        1.0  0.33271  0.94113  0.98471  1.0000
  H   H3        1.0  0.83271  0.55886  0.98470  1.0000
  H   H4        1.0  0.66730  0.05889  0.01529  1.0000
  H   H5        1.0  0.87068  0.31213  0.23564  1.0000
  H   H6        1.0  0.62932  0.81214  0.76436  1.0000
  H   H7        1.0  0.12932  0.68787  0.76436  1.0000
  H   H8        1.0  0.37069  0.18788  0.23564  1.0000
  H   H9        1.0  0.88986  0.31938  0.08402  1.0000
  H   H10       1.0  0.61015  0.81939  0.91598  1.0000
  H   H11       1.0  0.11014  0.68061  0.91598  1.0000
  H   H12       1.0  0.38987  0.18064  0.08402  1.0000
  H   H13       1.0  0.45323  0.67283  0.06286  1.0000
  H   H14       1.0  0.04677  0.17282  0.93714  1.0000
  H   H15       1.0  0.54676  0.32717  0.93714  1.0000
  H   H16       1.0  0.95322  0.82717  0.06286  1.0000
  H   H17       1.0  0.58032  0.50418  0.07287  1.0000
  H   H18       1.0  0.91967  0.00418  0.92713  1.0000
  H   H19       1.0  0.41967  0.49582  0.92713  1.0000
  H   H20       1.0  0.08032  0.99582  0.07286  1.0000
  H   H21       1.0  0.73567  0.59410  0.19645  1.0000
  H   H22       1.0  0.76434  0.09411  0.80356  1.0000
  H   H23       1.0  0.26433  0.40588  0.80356  1.0000
  H   H24       1.0  0.23566  0.90588  0.19644  1.0000
  H   H25       1.0  0.59449  0.75663  0.19133  1.0000
  H   H26       1.0  0.90552  0.25663  0.80867  1.0000
  H   H27       1.0  0.40552  0.24337  0.80866  1.0000
  H   H28       1.0  0.09447  0.74337  0.19133  1.0000
  H   H29       1.0  0.22781  0.91520  0.37954  1.0000
  H   H30       1.0  0.27219  0.41520  0.62046  1.0000
  H   H31       1.0  0.77219  0.08480  0.62046  1.0000
  H   H32       1.0  0.72781  0.58480  0.37954  1.0000
  H   H33       1.0  0.49158  0.77416  0.61099  1.0000
  H   H34       1.0  0.00842  0.27416  0.38901  1.0000
  H   H35       1.0  0.50842  0.22584  0.38901  1.0000
  H   H36       1.0  0.99158  0.72584  0.61099  1.0000
  H   H37       1.0  0.65471  0.65110  0.60993  1.0000
  H   H38       1.0  0.84529  0.15110  0.39007  1.0000
  H   H39       1.0  0.34528  0.34889  0.39007  1.0000
  H   H40       1.0  0.15472  0.84890  0.60993  1.0000
  H   H41       1.0  0.43764  0.98428  0.38262  1.0000
  H   H42       1.0  0.06235  0.48428  0.61738  1.0000
  H   H43       1.0  0.56235  0.01572  0.61738  1.0000
  H   H44       1.0  0.93765  0.51572  0.38262  1.0000
  C   C1        1.0  0.13948  0.42999  0.26078  1.0000
  C   C2        1.0  0.36052  0.92999  0.73922  1.0000
  C   C3        1.0  0.86052  0.57001  0.73922  1.0000
  C   C4        1.0  0.63948  0.07001  0.26078  1.0000
  C   C5        1.0  0.29582  0.50132  0.21996  1.0000
  C   C6        1.0  0.20418  0.00132  0.78004  1.0000
  C   C7        1.0  0.70417  0.49868  0.78004  1.0000
  C   C8        1.0  0.79582  0.99868  0.21996  1.0000
  C   C9        1.0  0.30567  0.50394  0.13260  1.0000
  C   C10       1.0  0.19433  0.00394  0.86740  1.0000
  C   C11       1.0  0.69434  0.49606  0.86740  1.0000
  C   C12       1.0  0.80566  0.99607  0.13260  1.0000
  C   C13       1.0  0.16137  0.43961  0.08266  1.0000
  C   C14       1.0  0.33864  0.93961  0.91734  1.0000
  C   C15       1.0  0.83863  0.56038  0.91734  1.0000
  C   C16       1.0  0.66137  0.06040  0.08266  1.0000
  C   C17       1.0  0.46192  0.57918  0.25649  1.0000
  C   C18       1.0  0.03809  0.07918  0.74351  1.0000
  C   C19       1.0  0.53807  0.42083  0.74350  1.0000
  C   C20       1.0  0.96191  0.92082  0.25649  1.0000
  C   C21       1.0  0.99294  0.36698  0.20754  1.0000
  C   C22       1.0  0.50706  0.86698  0.79246  1.0000
  C   C23       1.0  0.00706  0.63302  0.79246  1.0000
  C   C24       1.0  0.49295  0.13303  0.20754  1.0000
  C   C25       1.0  0.00509  0.37165  0.12174  1.0000
  C   C26       1.0  0.49492  0.87165  0.87826  1.0000
  C   C27       1.0  0.99491  0.62834  0.87826  1.0000
  C   C28       1.0  0.50509  0.12836  0.12174  1.0000
  C   C29       1.0  0.48742  0.58158  0.10604  1.0000
  C   C30       1.0  0.01258  0.08158  0.89396  1.0000
  C   C31       1.0  0.51258  0.41841  0.89396  1.0000
  C   C32       1.0  0.98741  0.91841  0.10603  1.0000
  C   C33       1.0  0.58646  0.63543  0.18714  1.0000
  C   C34       1.0  0.91354  0.13544  0.81286  1.0000
  C   C35       1.0  0.41353  0.36457  0.81286  1.0000
  C   C36       1.0  0.08645  0.86456  0.18714  1.0000
  O   O1        1.0  0.34674  0.92449  0.41535  1.0000
  O   O2        1.0  0.15326  0.42449  0.58465  1.0000
  O   O3        1.0  0.65326  0.07551  0.58465  1.0000
  O   O4        1.0  0.84674  0.57551  0.41535  1.0000
  O   O5        1.0  0.13181  0.42167  0.34158  1.0000
  O   O6        1.0  0.36819  0.92167  0.65842  1.0000
  O   O7        1.0  0.86819  0.57833  0.65842  1.0000
  O   O8        1.0  0.63181  0.07833  0.34158  1.0000
  O   O9        1.0  0.50000  0.60136  0.33152  1.0000
  O   O10       1.0  0.00000  0.10136  0.66848  1.0000
  O   O11       1.0  0.49999  0.39866  0.66848  1.0000
  O   O12       1.0  0.00000  0.89864  0.33152  1.0000
  O   O13       1.0  0.55432  0.70103  0.57456  1.0000
  O   O14       1.0  0.94568  0.20102  0.42544  1.0000
  O   O15       1.0  0.44568  0.29897  0.42544  1.0000
  O   O16       1.0  0.05432  0.79898  0.57457  1.0000
