data_image0
_chemical_formula_structural       Mg2H24C32N20O8
_chemical_formula_sum              "Mg2 H24 C32 N20 O8"
_cell_length_a       8.54338
_cell_length_b       9.75389
_cell_length_c       12.1144
_cell_angle_alpha    112.16
_cell_angle_beta     110.63
_cell_angle_gamma    89.9911

_space_group_name_H-M_alt    "P 1"
_space_group_IT_number       1

loop_
  _space_group_symop_operation_xyz
  'x, y, z'

loop_
  _atom_site_type_symbol
  _atom_site_label
  _atom_site_symmetry_multiplicity
  _atom_site_fract_x
  _atom_site_fract_y
  _atom_site_fract_z
  _atom_site_occupancy
  Mg  Mg1       1.0  0.54661  0.24995  0.00004  1.0000
  Mg  Mg2       1.0  0.45339  0.75005  0.99996  1.0000
  H   H1        1.0  0.29080  0.26441  0.16121  1.0000
  H   H2        1.0  0.12990  0.23561  0.83887  1.0000
  H   H3        1.0  0.70920  0.73559  0.83879  1.0000
  H   H4        1.0  0.87010  0.76439  0.16113  1.0000
  H   H5        1.0  0.09129  0.15216  0.05062  1.0000
  H   H6        1.0  0.04100  0.34794  0.94954  1.0000
  H   H7        1.0  0.90871  0.84784  0.94938  1.0000
  H   H8        1.0  0.95900  0.65207  0.05046  1.0000
  H   H9        1.0  0.55284  0.25705  0.56811  1.0000
  H   H10       1.0  0.98454  0.24260  0.43187  1.0000
  H   H11       1.0  0.44716  0.74295  0.43189  1.0000
  H   H12       1.0  0.01546  0.75740  0.56813  1.0000
  H   H13       1.0  0.65077  0.31516  0.80330  1.0000
  H   H14       1.0  0.84725  0.18429  0.19665  1.0000
  H   H15       1.0  0.34924  0.68483  0.19670  1.0000
  H   H16       1.0  0.15275  0.81571  0.80335  1.0000
  H   H17       1.0  0.24656  0.02983  0.74691  1.0000
  H   H18       1.0  0.49961  0.47000  0.25317  1.0000
  H   H19       1.0  0.75344  0.97017  0.25309  1.0000
  H   H20       1.0  0.50038  0.53001  0.74684  1.0000
  H   H21       1.0  0.12927  0.95927  0.50862  1.0000
  H   H22       1.0  0.62054  0.54065  0.49147  1.0000
  H   H23       1.0  0.87073  0.04073  0.49138  1.0000
  H   H24       1.0  0.37946  0.45935  0.50853  1.0000
  C   C1        1.0  0.30145  0.03969  0.03088  1.0000
  C   C2        1.0  0.27078  0.46035  0.96911  1.0000
  C   C3        1.0  0.69855  0.96031  0.96913  1.0000
  C   C4        1.0  0.72922  0.53965  0.03089  1.0000
  C   C5        1.0  0.21961  0.15141  0.11433  1.0000
  C   C6        1.0  0.10556  0.34863  0.88573  1.0000
  C   C7        1.0  0.78038  0.84859  0.88568  1.0000
  C   C8        1.0  0.89444  0.65138  0.11427  1.0000
  C   C9        1.0  0.25637  0.08268  0.38404  1.0000
  C   C10       1.0  0.87222  0.41712  0.61598  1.0000
  C   C11       1.0  0.74363  0.91732  0.61596  1.0000
  C   C12       1.0  0.12778  0.58288  0.38402  1.0000
  C   C13       1.0  0.32956  0.10627  0.51947  1.0000
  C   C14       1.0  0.80993  0.39345  0.48055  1.0000
  C   C15       1.0  0.67044  0.89373  0.48053  1.0000
  C   C16       1.0  0.19007  0.60655  0.51945  1.0000
  C   C17       1.0  0.48106  0.20430  0.60391  1.0000
  C   C18       1.0  0.87700  0.29535  0.39608  1.0000
  C   C19       1.0  0.51895  0.79570  0.39609  1.0000
  C   C20       1.0  0.12299  0.70465  0.60391  1.0000
  C   C21       1.0  0.53582  0.23690  0.73465  1.0000
  C   C22       1.0  0.80099  0.26265  0.26532  1.0000
  C   C23       1.0  0.46419  0.76309  0.26535  1.0000
  C   C24       1.0  0.19900  0.73735  0.73467  1.0000
  C   C25       1.0  0.30986  0.07811  0.70315  1.0000
  C   C26       1.0  0.60670  0.42168  0.29690  1.0000
  C   C27       1.0  0.69014  0.92189  0.29685  1.0000
  C   C28       1.0  0.39330  0.57832  0.70310  1.0000
  C   C29       1.0  0.24527  0.03886  0.57085  1.0000
  C   C30       1.0  0.67432  0.46097  0.42921  1.0000
  C   C31       1.0  0.75473  0.96114  0.42915  1.0000
  C   C32       1.0  0.32568  0.53903  0.57079  1.0000
  N   N1        1.0  0.20484  0.10912  0.21302  1.0000
  N   N2        1.0  0.99204  0.39096  0.78708  1.0000
  N   N3        1.0  0.79516  0.89088  0.78699  1.0000
  N   N4        1.0  0.00797  0.60904  0.21292  1.0000
  N   N5        1.0  0.32210  0.15471  0.33123  1.0000
  N   N6        1.0  0.99091  0.34519  0.66879  1.0000
  N   N7        1.0  0.67790  0.84529  0.66877  1.0000
  N   N8        1.0  0.00909  0.65481  0.33121  1.0000
  N   N9        1.0  0.10478  0.99588  0.29840  1.0000
  N   N10       1.0  0.80634  0.50401  0.70168  1.0000
  N   N11       1.0  0.89522  0.00412  0.70160  1.0000
  N   N12       1.0  0.19366  0.49600  0.29832  1.0000
  N   N13       1.0  0.07411  0.01334  0.19045  1.0000
  N   N14       1.0  0.88379  0.48667  0.80969  1.0000
  N   N15       1.0  0.92589  0.98666  0.80955  1.0000
  N   N16       1.0  0.11621  0.51333  0.19031  1.0000
  N   N17       1.0  0.45050  0.17820  0.78530  1.0000
  N   N18       1.0  0.66516  0.32148  0.21472  1.0000
  N   N19       1.0  0.54950  0.82180  0.21470  1.0000
  N   N20       1.0  0.33483  0.67852  0.78528  1.0000
  O   O1        1.0  0.36174  0.08756  0.96858  1.0000
  O   O2        1.0  0.39319  0.41249  0.03158  1.0000
  O   O3        1.0  0.63825  0.91243  0.03142  1.0000
  O   O4        1.0  0.60681  0.58751  0.96842  1.0000
  O   O5        1.0  0.29460  0.90881  0.02728  1.0000
  O   O6        1.0  0.26755  0.59119  0.97261  1.0000
  O   O7        1.0  0.70540  0.09119  0.97272  1.0000
  O   O8        1.0  0.73245  0.40881  0.02739  1.0000
