data_image0
_chemical_formula_structural       Ba2H32C32N20O12
_chemical_formula_sum              "Ba2 H32 C32 N20 O12"
_cell_length_a       7.03346
_cell_length_b       11.0755
_cell_length_c       13.9746
_cell_angle_alpha    105.317
_cell_angle_beta     89.9999
_cell_angle_gamma    89.9998

_space_group_name_H-M_alt    "P 1"
_space_group_IT_number       1

loop_
  _space_group_symop_operation_xyz
  'x, y, z'

loop_
  _atom_site_type_symbol
  _atom_site_label
  _atom_site_symmetry_multiplicity
  _atom_site_fract_x
  _atom_site_fract_y
  _atom_site_fract_z
  _atom_site_occupancy
  Ba  Ba1       1.0  0.90555  0.94385  0.55267  1.0000
  Ba  Ba2       1.0  0.40555  0.05615  0.44733  1.0000
  H   H1        1.0  0.49512  0.12989  0.20269  1.0000
  H   H2        1.0  0.99512  0.87011  0.79730  1.0000
  H   H3        1.0  0.50073  0.03282  0.01904  1.0000
  H   H4        1.0  0.00073  0.96718  0.98095  1.0000
  H   H5        1.0  0.80703  0.90159  0.17206  1.0000
  H   H6        1.0  0.30704  0.09841  0.82794  1.0000
  H   H7        1.0  0.81198  0.81900  0.98696  1.0000
  H   H8        1.0  0.31199  0.18101  0.01304  1.0000
  H   H9        1.0  0.16738  0.72878  0.06999  1.0000
  H   H10       1.0  0.66738  0.27122  0.93001  1.0000
  H   H11       1.0  0.17048  0.83999  0.25042  1.0000
  H   H12       1.0  0.67047  0.16001  0.74958  1.0000
  H   H13       1.0  0.62510  0.55982  0.20696  1.0000
  H   H14       1.0  0.12509  0.44018  0.79305  1.0000
  H   H15       1.0  0.62072  0.46422  0.02525  1.0000
  H   H16       1.0  0.12071  0.53578  0.97475  1.0000
  H   H17       1.0  0.45490  0.69325  0.62680  1.0000
  H   H18       1.0  0.95491  0.30675  0.37319  1.0000
  H   H19       1.0  0.63295  0.79869  0.69282  1.0000
  H   H20       1.0  0.13296  0.20130  0.30718  1.0000
  H   H21       1.0  0.52651  0.42097  0.60182  1.0000
  H   H22       1.0  0.02651  0.57903  0.39819  1.0000
  H   H23       1.0  0.48327  0.32848  0.68633  1.0000
  H   H24       1.0  0.98327  0.67152  0.31368  1.0000
  H   H25       1.0  0.19157  0.19357  0.67618  1.0000
  H   H26       1.0  0.69157  0.80643  0.32382  1.0000
  H   H27       1.0  0.07008  0.22462  0.59083  1.0000
  H   H28       1.0  0.57008  0.77538  0.40917  1.0000
  H   H29       1.0  0.82467  0.63093  0.59773  1.0000
  H   H30       1.0  0.32466  0.36908  0.40227  1.0000
  H   H31       1.0  0.71875  0.64696  0.50386  1.0000
  H   H32       1.0  0.21874  0.35304  0.49615  1.0000
  C   C1        1.0  0.42204  0.04183  0.17016  1.0000
  C   C2        1.0  0.92204  0.95817  0.82983  1.0000
  C   C3        1.0  0.42418  0.98859  0.06836  1.0000
  C   C4        1.0  0.92418  0.01140  0.93164  1.0000
  C   C5        1.0  0.76789  0.80471  0.13648  1.0000
  C   C6        1.0  0.26789  0.19530  0.86352  1.0000
  C   C7        1.0  0.77114  0.75899  0.03373  1.0000
  C   C8        1.0  0.27114  0.24101  0.96627  1.0000
  C   C9        1.0  0.23935  0.81829  0.09595  1.0000
  C   C10       1.0  0.73935  0.18171  0.90405  1.0000
  C   C11       1.0  0.71722  0.63473  0.99054  1.0000
  C   C12       1.0  0.21722  0.36527  0.00946  1.0000
  C   C13       1.0  0.71546  0.58659  0.88248  1.0000
  C   C14       1.0  0.21546  0.41341  0.11752  1.0000
  C   C15       1.0  0.24284  0.87957  0.19657  1.0000
  C   C16       1.0  0.74283  0.12044  0.80343  1.0000
  C   C17       1.0  0.33530  0.81389  0.92365  1.0000
  C   C18       1.0  0.83530  0.18611  0.07635  1.0000
  C   C19       1.0  0.33146  0.87403  0.02976  1.0000
  C   C20       1.0  0.83146  0.12597  0.97024  1.0000
  C   C21       1.0  0.66486  0.61509  0.15586  1.0000
  C   C22       1.0  0.16486  0.38491  0.84414  1.0000
  C   C23       1.0  0.66239  0.56159  0.05385  1.0000
  C   C24       1.0  0.16238  0.43841  0.94615  1.0000
  C   C25       1.0  0.39101  0.88694  0.64087  1.0000
  C   C26       1.0  0.89102  0.11306  0.35913  1.0000
  C   C27       1.0  0.48037  0.78331  0.68109  1.0000
  C   C28       1.0  0.98037  0.21668  0.31890  1.0000
  C   C29       1.0  0.59239  0.37915  0.65676  1.0000
  C   C30       1.0  0.09239  0.62085  0.34325  1.0000
  C   C31       1.0  0.75088  0.28895  0.60383  1.0000
  C   C32       1.0  0.25088  0.71105  0.39617  1.0000
  N   N1        1.0  0.39785  0.77487  0.77371  1.0000
  N   N2        1.0  0.89786  0.22512  0.22629  1.0000
  N   N3        1.0  0.78197  0.65159  0.81895  1.0000
  N   N4        1.0  0.28197  0.34841  0.18105  1.0000
  N   N5        1.0  0.42643  0.86210  0.85773  1.0000
  N   N6        1.0  0.92644  0.13789  0.14227  1.0000
  N   N7        1.0  0.66119  0.47833  0.73915  1.0000
  N   N8        1.0  0.16120  0.52167  0.26085  1.0000
  N   N9        1.0  0.74711  0.58191  0.72868  1.0000
  N   N10       1.0  0.24711  0.41809  0.27132  1.0000
  N   N11       1.0  0.25348  0.70149  0.87926  1.0000
  N   N12       1.0  0.75349  0.29851  0.12074  1.0000
  N   N13       1.0  0.29450  0.67744  0.78401  1.0000
  N   N14       1.0  0.79450  0.32256  0.21599  1.0000
  N   N15       1.0  0.71626  0.73460  0.19720  1.0000
  N   N16       1.0  0.21625  0.26540  0.80280  1.0000
  N   N17       1.0  0.63992  0.47612  0.83308  1.0000
  N   N18       1.0  0.13992  0.52388  0.16692  1.0000
  N   N19       1.0  0.33340  0.98868  0.23403  1.0000
  N   N20       1.0  0.83340  0.01132  0.76596  1.0000
  O   O1        1.0  0.21597  0.90651  0.65571  1.0000
  O   O2        1.0  0.71597  0.09349  0.34429  1.0000
  O   O3        1.0  0.50424  0.93922  0.59361  1.0000
  O   O4        1.0  0.00424  0.06078  0.40639  1.0000
  O   O5        1.0  0.90985  0.33590  0.59233  1.0000
  O   O6        1.0  0.40986  0.66410  0.40767  1.0000
  O   O7        1.0  0.70174  0.17466  0.57595  1.0000
  O   O8        1.0  0.20175  0.82534  0.42405  1.0000
  O   O9        1.0  0.83576  0.66950  0.54199  1.0000
  O   O10       1.0  0.33575  0.33050  0.45802  1.0000
  O   O11       1.0  0.16257  0.16157  0.60327  1.0000
  O   O12       1.0  0.66257  0.83844  0.39673  1.0000
