data_image0
_chemical_formula_structural       H12W8C8N12O24
_chemical_formula_sum              "H12 W8 C8 N12 O24"
_cell_length_a       3.8332
_cell_length_b       13.6246
_cell_length_c       14.1506
_cell_angle_alpha    90.0001
_cell_angle_beta     89.9999
_cell_angle_gamma    90

_space_group_name_H-M_alt    "P 1"
_space_group_IT_number       1

loop_
  _space_group_symop_operation_xyz
  'x, y, z'

loop_
  _atom_site_type_symbol
  _atom_site_label
  _atom_site_symmetry_multiplicity
  _atom_site_fract_x
  _atom_site_fract_y
  _atom_site_fract_z
  _atom_site_occupancy
  H   H1        1.0  0.34013  0.59541  0.68131  1.0000
  H   H2        1.0  0.84012  0.40459  0.81869  1.0000
  H   H3        1.0  0.65988  0.90459  0.18131  1.0000
  H   H4        1.0  0.15987  0.09541  0.31869  1.0000
  H   H5        1.0  0.47307  0.75125  0.78015  1.0000
  H   H6        1.0  0.97306  0.24875  0.71985  1.0000
  H   H7        1.0  0.52694  0.74875  0.28015  1.0000
  H   H8        1.0  0.02694  0.25125  0.21985  1.0000
  H   H9        1.0  0.36025  0.90684  0.67944  1.0000
  H   H10       1.0  0.86025  0.09316  0.82056  1.0000
  H   H11       1.0  0.63975  0.59316  0.17944  1.0000
  H   H12       1.0  0.13975  0.40684  0.32056  1.0000
  W   W1        1.0  0.20393  0.61395  0.42369  1.0000
  W   W2        1.0  0.70393  0.38605  0.07631  1.0000
  W   W3        1.0  0.79607  0.88605  0.92369  1.0000
  W   W4        1.0  0.29607  0.11395  0.57631  1.0000
  W   W5        1.0  0.20643  0.88567  0.42190  1.0000
  W   W6        1.0  0.70643  0.11433  0.07810  1.0000
  W   W7        1.0  0.79357  0.61433  0.92190  1.0000
  W   W8        1.0  0.29357  0.38567  0.57810  1.0000
  C   C1        1.0  0.32441  0.67088  0.65654  1.0000
  C   C2        1.0  0.82440  0.32912  0.84345  1.0000
  C   C3        1.0  0.67560  0.82913  0.15654  1.0000
  C   C4        1.0  0.17559  0.17087  0.34346  1.0000
  C   C5        1.0  0.33479  0.83126  0.65547  1.0000
  C   C6        1.0  0.83480  0.16875  0.84452  1.0000
  C   C7        1.0  0.66521  0.66874  0.15548  1.0000
  C   C8        1.0  0.16520  0.33126  0.34452  1.0000
  N   N1        1.0  0.24643  0.70036  0.57008  1.0000
  N   N2        1.0  0.74643  0.29964  0.92992  1.0000
  N   N3        1.0  0.75358  0.79964  0.07008  1.0000
  N   N4        1.0  0.25357  0.20036  0.42992  1.0000
  N   N5        1.0  0.38113  0.75117  0.71124  1.0000
  N   N6        1.0  0.88113  0.24883  0.78876  1.0000
  N   N7        1.0  0.61887  0.74883  0.21124  1.0000
  N   N8        1.0  0.11886  0.25117  0.28876  1.0000
  N   N9        1.0  0.25255  0.80139  0.56943  1.0000
  N   N10       1.0  0.75255  0.19861  0.93057  1.0000
  N   N11       1.0  0.74745  0.69861  0.06943  1.0000
  N   N12       1.0  0.24745  0.30139  0.43057  1.0000
  O   O1        1.0  0.25261  0.74932  0.38312  1.0000
  O   O2        1.0  0.75261  0.25068  0.11688  1.0000
  O   O3        1.0  0.74739  0.75068  0.88312  1.0000
  O   O4        1.0  0.24738  0.24932  0.61688  1.0000
  O   O5        1.0  0.24906  0.50018  0.50161  1.0000
  O   O6        1.0  0.74907  0.49981  0.99838  1.0000
  O   O7        1.0  0.75093  0.99982  0.00162  1.0000
  O   O8        1.0  0.25093  0.00019  0.49839  1.0000
  O   O9        1.0  0.22735  0.56264  0.31145  1.0000
  O   O10       1.0  0.72735  0.43736  0.18855  1.0000
  O   O11       1.0  0.77265  0.93736  0.81145  1.0000
  O   O12       1.0  0.27265  0.06264  0.68855  1.0000
  O   O13       1.0  0.23048  0.93554  0.30911  1.0000
  O   O14       1.0  0.73048  0.06446  0.19089  1.0000
  O   O15       1.0  0.76953  0.56447  0.80911  1.0000
  O   O16       1.0  0.26952  0.43554  0.69089  1.0000
  O   O17       1.0  0.73440  0.87625  0.43818  1.0000
  O   O18       1.0  0.23441  0.12375  0.06182  1.0000
  O   O19       1.0  0.26560  0.62374  0.93818  1.0000
  O   O20       1.0  0.76559  0.37626  0.56182  1.0000
  O   O21       1.0  0.73214  0.62264  0.44040  1.0000
  O   O22       1.0  0.23215  0.37736  0.05960  1.0000
  O   O23       1.0  0.26786  0.87736  0.94040  1.0000
  O   O24       1.0  0.76785  0.12264  0.55960  1.0000
