data_image0
_chemical_formula_structural       CdH42C36N18Cl2O8
_chemical_formula_sum              "Cd1 H42 C36 N18 Cl2 O8"
_cell_length_a       8.67393
_cell_length_b       10.1904
_cell_length_c       13.1799
_cell_angle_alpha    107.033
_cell_angle_beta     94.3566
_cell_angle_gamma    112.598

_space_group_name_H-M_alt    "P 1"
_space_group_IT_number       1

loop_
  _space_group_symop_operation_xyz
  'x, y, z'

loop_
  _atom_site_type_symbol
  _atom_site_label
  _atom_site_symmetry_multiplicity
  _atom_site_fract_x
  _atom_site_fract_y
  _atom_site_fract_z
  _atom_site_occupancy
  Cd  Cd1       1.0  0.00000  0.00000  0.50000  1.0000
  H   H1        1.0  0.22291  0.32720  0.47935  1.0000
  H   H2        1.0  0.77710  0.67280  0.52065  1.0000
  H   H3        1.0  0.17669  0.51601  0.40777  1.0000
  H   H4        1.0  0.82331  0.48400  0.59223  1.0000
  H   H5        1.0  0.71158  0.02708  0.35149  1.0000
  H   H6        1.0  0.28842  0.97292  0.64851  1.0000
  H   H7        1.0  0.48981  0.01268  0.13972  1.0000
  H   H8        1.0  0.51020  0.98732  0.86028  1.0000
  H   H9        1.0  0.50153  0.99349  0.26959  1.0000
  H   H10       1.0  0.49847  0.00652  0.73042  1.0000
  H   H11       1.0  0.30227  0.09577  0.31904  1.0000
  H   H12       1.0  0.69773  0.90423  0.68096  1.0000
  H   H13       1.0  0.21722  0.95821  0.18544  1.0000
  H   H14       1.0  0.78279  0.04179  0.81456  1.0000
  H   H15       1.0  0.42161  0.41031  0.20456  1.0000
  H   H16       1.0  0.57838  0.58969  0.79544  1.0000
  H   H17       1.0  0.44161  0.37844  0.32923  1.0000
  H   H18       1.0  0.55838  0.62156  0.67077  1.0000
  H   H19       1.0  0.71582  0.43847  0.27457  1.0000
  H   H20       1.0  0.28418  0.56154  0.72543  1.0000
  H   H21       1.0  0.61871  0.29973  0.14256  1.0000
  H   H22       1.0  0.38128  0.70027  0.85744  1.0000
  H   H23       1.0  0.98482  0.95365  0.16904  1.0000
  H   H24       1.0  0.01518  0.04635  0.83096  1.0000
  H   H25       1.0  0.70881  0.12427  0.01946  1.0000
  H   H26       1.0  0.29118  0.87572  0.98053  1.0000
  H   H27       1.0  0.98032  0.35592  0.04472  1.0000
  H   H28       1.0  0.01967  0.64407  0.95528  1.0000
  H   H29       1.0  0.19409  0.80361  0.38367  1.0000
  H   H30       1.0  0.80591  0.19640  0.61633  1.0000
  H   H31       1.0  0.14953  0.59339  0.20935  1.0000
  H   H32       1.0  0.85047  0.40661  0.79065  1.0000
  H   H33       1.0  0.73641  0.80648  0.26841  1.0000
  H   H34       1.0  0.26358  0.19351  0.73160  1.0000
  H   H35       1.0  0.56531  0.73932  0.14346  1.0000
  H   H36       1.0  0.43469  0.26068  0.85654  1.0000
  H   H37       1.0  0.59534  0.71924  0.00932  1.0000
  H   H38       1.0  0.40465  0.28076  0.99068  1.0000
  H   H39       1.0  0.68291  0.50395  0.91330  1.0000
  H   H40       1.0  0.31709  0.49605  0.08670  1.0000
  H   H41       1.0  0.71241  0.39730  0.99259  1.0000
  H   H42       1.0  0.28759  0.60270  0.00741  1.0000
  C   C1        1.0  0.09912  0.30266  0.43375  1.0000
  C   C2        1.0  0.90089  0.69734  0.56625  1.0000
  C   C3        1.0  0.07165  0.40582  0.39399  1.0000
  C   C4        1.0  0.92835  0.59419  0.60601  1.0000
  C   C5        1.0  0.78819  0.24286  0.32218  1.0000
  C   C6        1.0  0.21182  0.75715  0.67782  1.0000
  C   C7        1.0  0.81501  0.13547  0.36136  1.0000
  C   C8        1.0  0.18500  0.86454  0.63864  1.0000
  C   C9        1.0  0.48900  0.06610  0.22575  1.0000
  C   C10       1.0  0.51101  0.93391  0.77426  1.0000
  C   C11       1.0  0.31632  0.07147  0.23386  1.0000
  C   C12       1.0  0.68369  0.92853  0.76614  1.0000
  C   C13       1.0  0.44066  0.33373  0.24212  1.0000
  C   C14       1.0  0.55933  0.66627  0.75788  1.0000
  C   C15       1.0  0.61038  0.32783  0.22897  1.0000
  C   C16       1.0  0.38961  0.67217  0.77104  1.0000
  C   C17       1.0  0.14095  0.16959  0.14997  1.0000
  C   C18       1.0  0.85905  0.83040  0.85003  1.0000
  C   C19       1.0  0.98577  0.04217  0.13836  1.0000
  C   C20       1.0  0.01423  0.95783  0.86164  1.0000
  C   C21       1.0  0.83274  0.13685  0.05696  1.0000
  C   C22       1.0  0.16726  0.86315  0.94304  1.0000
  C   C23       1.0  0.98268  0.26419  0.07089  1.0000
  C   C24       1.0  0.01731  0.73580  0.92911  1.0000
  C   C25       1.0  0.08295  0.75720  0.31822  1.0000
  C   C26       1.0  0.91705  0.24280  0.68177  1.0000
  C   C27       1.0  0.05660  0.64148  0.22158  1.0000
  C   C28       1.0  0.94340  0.35852  0.77842  1.0000
  C   C29       1.0  0.80323  0.64091  0.15475  1.0000
  C   C30       1.0  0.19677  0.35909  0.84525  1.0000
  C   C31       1.0  0.82908  0.75955  0.25321  1.0000
  C   C32       1.0  0.17092  0.24044  0.74680  1.0000
  C   C33       1.0  0.55203  0.65646  0.06488  1.0000
  C   C34       1.0  0.44797  0.34354  0.93512  1.0000
  C   C35       1.0  0.63563  0.45517  0.97545  1.0000
  C   C36       1.0  0.36437  0.54483  0.02455  1.0000
  N   N1        1.0  0.96735  0.16718  0.41686  1.0000
  N   N2        1.0  0.03265  0.83282  0.58313  1.0000
  N   N3        1.0  0.91980  0.37812  0.33922  1.0000
  N   N4        1.0  0.08021  0.62189  0.66078  1.0000
  N   N5        1.0  0.63118  0.21605  0.26986  1.0000
  N   N6        1.0  0.36882  0.78395  0.73015  1.0000
  N   N7        1.0  0.29815  0.18346  0.19228  1.0000
  N   N8        1.0  0.70185  0.81654  0.80772  1.0000
  N   N9        1.0  0.13515  0.28202  0.11763  1.0000
  N   N10       1.0  0.86484  0.71798  0.88237  1.0000
  N   N11       1.0  0.83492  0.02651  0.09257  1.0000
  N   N12       1.0  0.16508  0.97348  0.90743  1.0000
  N   N13       1.0  0.96608  0.81443  0.33242  1.0000
  N   N14       1.0  0.03392  0.18556  0.66758  1.0000
  N   N15       1.0  0.92087  0.58409  0.14032  1.0000
  N   N16       1.0  0.07913  0.41591  0.85968  1.0000
  N   N17       1.0  0.65927  0.57795  0.07512  1.0000
  N   N18       1.0  0.34073  0.42204  0.92488  1.0000
  Cl  Cl1       1.0  0.47273  0.21844  0.56487  1.0000
  Cl  Cl2       1.0  0.52727  0.78156  0.43513  1.0000
  O   O1        1.0  0.30508  0.09134  0.50355  1.0000
  O   O2        1.0  0.69492  0.90867  0.49645  1.0000
  O   O3        1.0  0.51003  0.21061  0.67270  1.0000
  O   O4        1.0  0.48997  0.78939  0.32730  1.0000
  O   O5        1.0  0.60185  0.20166  0.50562  1.0000
  O   O6        1.0  0.39814  0.79833  0.49437  1.0000
  O   O7        1.0  0.46447  0.36124  0.57512  1.0000
  O   O8        1.0  0.53554  0.63877  0.42488  1.0000
