data_image0
_chemical_formula_structural       Cd2H16C22N6O8
_chemical_formula_sum              "Cd2 H16 C22 N6 O8"
_cell_length_a       7.58968
_cell_length_b       8.55017
_cell_length_c       9.91369
_cell_angle_alpha    82.9557
_cell_angle_beta     67.0666
_cell_angle_gamma    82.8365

_space_group_name_H-M_alt    "P 1"
_space_group_IT_number       1

loop_
  _space_group_symop_operation_xyz
  'x, y, z'

loop_
  _atom_site_type_symbol
  _atom_site_label
  _atom_site_symmetry_multiplicity
  _atom_site_fract_x
  _atom_site_fract_y
  _atom_site_fract_z
  _atom_site_occupancy
  Cd  Cd1       1.0  0.24042  0.58543  0.03487  1.0000
  Cd  Cd2       1.0  0.75959  0.41457  0.96514  1.0000
  H   H1        1.0  0.75563  0.94309  0.67125  1.0000
  H   H2        1.0  0.24437  0.05691  0.32875  1.0000
  H   H3        1.0  0.91662  0.77860  0.68819  1.0000
  H   H4        1.0  0.08338  0.22140  0.31181  1.0000
  H   H5        1.0  0.15024  0.21531  0.54087  1.0000
  H   H6        1.0  0.84976  0.78469  0.45912  1.0000
  H   H7        1.0  0.90155  0.21221  0.57531  1.0000
  H   H8        1.0  0.09845  0.78779  0.42468  1.0000
  H   H9        1.0  0.44616  0.15136  0.79049  1.0000
  H   H10       1.0  0.55384  0.84865  0.20951  1.0000
  H   H11       1.0  0.42646  0.90212  0.96233  1.0000
  H   H12       1.0  0.57354  0.09788  0.03767  1.0000
  H   H13       1.0  0.99775  0.76247  0.85406  1.0000
  H   H14       1.0  0.00225  0.23753  0.14595  1.0000
  H   H15       1.0  0.16981  0.52010  0.50558  1.0000
  H   H16       1.0  0.83019  0.47990  0.49442  1.0000
  C   C1        1.0  0.90518  0.89078  0.62455  1.0000
  C   C2        1.0  0.09482  0.10922  0.37544  1.0000
  C   C3        1.0  0.04327  0.14509  0.53429  1.0000
  C   C4        1.0  0.95673  0.85491  0.46571  1.0000
  C   C5        1.0  0.12720  0.97913  0.72511  1.0000
  C   C6        1.0  0.87280  0.02087  0.27489  1.0000
  C   C7        1.0  0.35030  0.06188  0.79986  1.0000
  C   C8        1.0  0.64970  0.93813  0.20013  1.0000
  C   C9        1.0  0.33854  0.92779  0.89668  1.0000
  C   C10       1.0  0.66146  0.07221  0.10331  1.0000
  C   C11       1.0  0.10288  0.84748  0.83233  1.0000
  C   C12       1.0  0.89711  0.15252  0.16767  1.0000
  C   C13       1.0  0.46964  0.53023  0.36719  1.0000
  C   C14       1.0  0.53036  0.46976  0.63281  1.0000
  C   C15       1.0  0.65700  0.51808  0.36542  1.0000
  C   C16       1.0  0.34300  0.48191  0.63458  1.0000
  C   C17       1.0  0.31597  0.51225  0.50175  1.0000
  C   C18       1.0  0.68403  0.48774  0.49825  1.0000
  C   C19       1.0  0.41942  0.55854  0.23326  1.0000
  C   C20       1.0  0.58058  0.44146  0.76674  1.0000
  C   C21       1.0  0.82945  0.54089  0.22651  1.0000
  C   C22       1.0  0.17055  0.45910  0.77349  1.0000
  N   N1        1.0  0.03451  0.00005  0.63044  1.0000
  N   N2        1.0  0.96549  0.99995  0.36956  1.0000
  N   N3        1.0  0.24767  0.08808  0.71525  1.0000
  N   N4        1.0  0.75233  0.91191  0.28475  1.0000
  N   N5        1.0  0.21113  0.82340  0.91240  1.0000
  N   N6        1.0  0.78887  0.17660  0.08761  1.0000
  O   O1        1.0  0.34348  0.69287  0.20695  1.0000
  O   O2        1.0  0.65652  0.30712  0.79305  1.0000
  O   O3        1.0  0.43806  0.43985  0.15873  1.0000
  O   O4        1.0  0.56194  0.56015  0.84127  1.0000
  O   O5        1.0  0.99274  0.51207  0.23750  1.0000
  O   O6        1.0  0.00726  0.48793  0.76250  1.0000
  O   O7        1.0  0.80674  0.58813  0.10674  1.0000
  O   O8        1.0  0.19326  0.41187  0.89326  1.0000
