data_image0
_chemical_formula_structural       NiH42C36N20O6
_chemical_formula_sum              "Ni1 H42 C36 N20 O6"
_cell_length_a       8.47742
_cell_length_b       9.2185
_cell_length_c       13.1621
_cell_angle_alpha    96.5937
_cell_angle_beta     104.42
_cell_angle_gamma    106.997

_space_group_name_H-M_alt    "P 1"
_space_group_IT_number       1

loop_
  _space_group_symop_operation_xyz
  'x, y, z'

loop_
  _atom_site_type_symbol
  _atom_site_label
  _atom_site_symmetry_multiplicity
  _atom_site_fract_x
  _atom_site_fract_y
  _atom_site_fract_z
  _atom_site_occupancy
  Ni  Ni1       1.0  0.50000  0.50000  0.50000  1.0000
  H   H1        1.0  0.33372  0.52118  0.82630  1.0000
  H   H2        1.0  0.66626  0.47881  0.17371  1.0000
  H   H3        1.0  0.48725  0.68157  0.92694  1.0000
  H   H4        1.0  0.51274  0.31842  0.07306  1.0000
  H   H5        1.0  0.76236  0.43765  0.01183  1.0000
  H   H6        1.0  0.23762  0.56234  0.98818  1.0000
  H   H7        1.0  0.75422  0.62642  0.04645  1.0000
  H   H8        1.0  0.24577  0.37357  0.95355  1.0000
  H   H9        1.0  0.93257  0.35950  0.76609  1.0000
  H   H10       1.0  0.06746  0.64054  0.23392  1.0000
  H   H11       1.0  0.79217  0.40118  0.58622  1.0000
  H   H12       1.0  0.20785  0.59887  0.41379  1.0000
  H   H13       1.0  0.41647  0.50691  0.70269  1.0000
  H   H14       1.0  0.58352  0.49306  0.29731  1.0000
  H   H15       1.0  0.83659  0.32623  0.30906  1.0000
  H   H16       1.0  0.16341  0.67377  0.69094  1.0000
  H   H17       1.0  0.74175  0.22058  0.17478  1.0000
  H   H18       1.0  0.25825  0.77942  0.82522  1.0000
  H   H19       1.0  0.04683  0.27066  0.22462  1.0000
  H   H20       1.0  0.95317  0.72934  0.77538  1.0000
  H   H21       1.0  0.05125  0.20717  0.34757  1.0000
  H   H22       1.0  0.94876  0.79283  0.65243  1.0000
  H   H23       1.0  0.89149  0.90666  0.32619  1.0000
  H   H24       1.0  0.10851  0.09334  0.67381  1.0000
  H   H25       1.0  0.80720  0.79676  0.19276  1.0000
  H   H26       1.0  0.19279  0.20324  0.80723  1.0000
  H   H27       1.0  0.58688  0.92097  0.14746  1.0000
  H   H28       1.0  0.41312  0.07903  0.85254  1.0000
  H   H29       1.0  0.57779  0.85188  0.26724  1.0000
  H   H30       1.0  0.42221  0.14813  0.73276  1.0000
  H   H31       1.0  0.23588  0.92223  0.40729  1.0000
  H   H32       1.0  0.76411  0.07777  0.59270  1.0000
  H   H33       1.0  0.25718  0.19217  0.48453  1.0000
  H   H34       1.0  0.74282  0.80782  0.51546  1.0000
  H   H35       1.0  0.69545  0.37182  0.39081  1.0000
  H   H36       1.0  0.30455  0.62818  0.60920  1.0000
  H   H37       1.0  0.07136  0.69849  0.00099  1.0000
  H   H38       1.0  0.92863  0.30151  0.99900  1.0000
  H   H39       1.0  0.34109  0.90316  0.99302  1.0000
  H   H40       1.0  0.65891  0.09683  0.00698  1.0000
  H   H41       1.0  0.25109  0.22845  0.19475  1.0000
  H   H42       1.0  0.74890  0.77155  0.80524  1.0000
  C   C1        1.0  0.42626  0.55408  0.90661  1.0000
  C   C2        1.0  0.57372  0.44591  0.09339  1.0000
  C   C3        1.0  0.67457  0.50285  0.01672  1.0000
  C   C4        1.0  0.32542  0.49714  0.98329  1.0000
  C   C5        1.0  0.61972  0.46185  0.82281  1.0000
  C   C6        1.0  0.38028  0.53816  0.17720  1.0000
  C   C7        1.0  0.81929  0.39632  0.75412  1.0000
  C   C8        1.0  0.18074  0.60372  0.24589  1.0000
  C   C9        1.0  0.74106  0.41603  0.65289  1.0000
  C   C10       1.0  0.25897  0.58401  0.34713  1.0000
  C   C11       1.0  0.53518  0.47929  0.71929  1.0000
  C   C12       1.0  0.46482  0.52071  0.28071  1.0000
  C   C13       1.0  0.80504  0.21361  0.25745  1.0000
  C   C14       1.0  0.19497  0.78639  0.74255  1.0000
  C   C15       1.0  0.97568  0.18531  0.26288  1.0000
  C   C16       1.0  0.02433  0.81470  0.73712  1.0000
  C   C17       1.0  0.82935  0.90860  0.24223  1.0000
  C   C18       1.0  0.17064  0.09140  0.75777  1.0000
  C   C19       1.0  0.65817  0.93564  0.23260  1.0000
  C   C20       1.0  0.34182  0.06436  0.76739  1.0000
  C   C21       1.0  0.57454  0.11691  0.34183  1.0000
  C   C22       1.0  0.42546  0.88309  0.65817  1.0000
  C   C23       1.0  0.33843  0.02186  0.40080  1.0000
  C   C24       1.0  0.66157  0.97814  0.59920  1.0000
  C   C25       1.0  0.34818  0.17020  0.44483  1.0000
  C   C26       1.0  0.65182  0.82980  0.55517  1.0000
  C   C27       1.0  0.59002  0.26934  0.38899  1.0000
  C   C28       1.0  0.40998  0.73066  0.61101  1.0000
  C   C29       1.0  0.05423  0.99675  0.15328  1.0000
  C   C30       1.0  0.94577  0.00325  0.84672  1.0000
  C   C31       1.0  0.11123  0.81828  0.04379  1.0000
  C   C32       1.0  0.88876  0.18172  0.95621  1.0000
  C   C33       1.0  0.25925  0.93028  0.03925  1.0000
  C   C34       1.0  0.74074  0.06972  0.96075  1.0000
  C   C35       1.0  0.20767  0.11003  0.14948  1.0000
  C   C36       1.0  0.79233  0.88997  0.85051  1.0000
  N   N1        1.0  0.56001  0.48303  0.90877  1.0000
  N   N2        1.0  0.43998  0.51696  0.09123  1.0000
  N   N3        1.0  0.76460  0.42289  0.83864  1.0000
  N   N4        1.0  0.23541  0.57713  0.16137  1.0000
  N   N5        1.0  0.59962  0.46016  0.63748  1.0000
  N   N6        1.0  0.40039  0.53984  0.36253  1.0000
  N   N7        1.0  0.68635  0.09091  0.28937  1.0000
  N   N8        1.0  0.31366  0.90909  0.71063  1.0000
  N   N9        1.0  0.94674  0.02980  0.20768  1.0000
  N   N10       1.0  0.05325  0.97020  0.79232  1.0000
  N   N11       1.0  0.44747  0.99370  0.34988  1.0000
  N   N12       1.0  0.55254  0.00630  0.65012  1.0000
  N   N13       1.0  0.47644  0.29312  0.43770  1.0000
  N   N14       1.0  0.52356  0.70688  0.56230  1.0000
  N   N15       1.0  0.01048  0.84928  0.10056  1.0000
  N   N16       1.0  0.98951  0.15072  0.89944  1.0000
  N   N17       1.0  0.30778  0.07663  0.09369  1.0000
  N   N18       1.0  0.69222  0.92337  0.90631  1.0000
  N   N19       1.0  0.91564  0.65824  0.43065  1.0000
  N   N20       1.0  0.08437  0.34174  0.56934  1.0000
  O   O1        1.0  0.83851  0.59620  0.49444  1.0000
  O   O2        1.0  0.16149  0.40381  0.50557  1.0000
  O   O3        1.0  0.87157  0.58756  0.33372  1.0000
  O   O4        1.0  0.12840  0.41240  0.66628  1.0000
  O   O5        1.0  0.03301  0.78857  0.46371  1.0000
  O   O6        1.0  0.96703  0.21139  0.53627  1.0000
