data_image0
_chemical_formula_structural       Ba2H20C24N4O16
_chemical_formula_sum              "Ba2 H20 C24 N4 O16"
_cell_length_a       7.44861
_cell_length_b       10.6011
_cell_length_c       10.8997
_cell_angle_alpha    119.091
_cell_angle_beta     109.987
_cell_angle_gamma    89.9867

_space_group_name_H-M_alt    "P 1"
_space_group_IT_number       1

loop_
  _space_group_symop_operation_xyz
  'x, y, z'

loop_
  _atom_site_type_symbol
  _atom_site_label
  _atom_site_symmetry_multiplicity
  _atom_site_fract_x
  _atom_site_fract_y
  _atom_site_fract_z
  _atom_site_occupancy
  Ba  Ba1       1.0  0.32974  0.62112  0.50004  1.0000
  Ba  Ba2       1.0  0.82975  0.37882  0.49993  1.0000
  H   H1        1.0  0.41475  0.17940  0.08399  1.0000
  H   H2        1.0  0.33084  0.82083  0.91635  1.0000
  H   H3        1.0  0.91454  0.40442  0.08374  1.0000
  H   H4        1.0  0.83092  0.59549  0.91620  1.0000
  H   H5        1.0  0.14305  0.00541  0.82797  1.0000
  H   H6        1.0  0.31495  0.99457  0.17229  1.0000
  H   H7        1.0  0.64271  0.32251  0.82781  1.0000
  H   H8        1.0  0.81482  0.67737  0.17207  1.0000
  H   H9        1.0  0.93350  0.11227  0.68059  1.0000
  H   H10       1.0  0.25252  0.88753  0.31941  1.0000
  H   H11       1.0  0.43315  0.06834  0.68062  1.0000
  H   H12       1.0  0.75251  0.93159  0.31928  1.0000
  H   H13       1.0  0.61609  0.75281  0.41033  1.0000
  H   H14       1.0  0.20597  0.24721  0.58971  1.0000
  H   H15       1.0  0.11626  0.15762  0.41036  1.0000
  H   H16       1.0  0.70572  0.84252  0.58967  1.0000
  H   H17       1.0  0.84665  0.64611  0.40871  1.0000
  H   H18       1.0  0.43806  0.35412  0.59136  1.0000
  H   H19       1.0  0.34666  0.26288  0.40879  1.0000
  H   H20       1.0  0.93801  0.73741  0.59130  1.0000
  C   C1        1.0  0.23775  0.42165  0.97687  1.0000
  C   C2        1.0  0.26083  0.57828  0.02304  1.0000
  C   C3        1.0  0.73770  0.05520  0.97689  1.0000
  C   C4        1.0  0.76083  0.94471  0.02304  1.0000
  C   C5        1.0  0.35739  0.36890  0.06417  1.0000
  C   C6        1.0  0.29326  0.63113  0.93587  1.0000
  C   C7        1.0  0.85724  0.19524  0.06412  1.0000
  C   C8        1.0  0.79328  0.80470  0.93584  1.0000
  C   C9        1.0  0.32307  0.21883  0.01328  1.0000
  C   C10       1.0  0.30972  0.78122  0.98687  1.0000
  C   C11       1.0  0.82287  0.29431  0.01309  1.0000
  C   C12       1.0  0.80972  0.70557  0.98679  1.0000
  C   C13       1.0  0.17394  0.12313  0.87256  1.0000
  C   C14       1.0  0.30123  0.87683  0.12761  1.0000
  C   C15       1.0  0.67370  0.24936  0.87239  1.0000
  C   C16       1.0  0.80114  0.75048  0.12746  1.0000
  C   C17       1.0  0.05632  0.17821  0.78894  1.0000
  C   C18       1.0  0.26701  0.82165  0.21105  1.0000
  C   C19       1.0  0.55604  0.11072  0.78891  1.0000
  C   C20       1.0  0.76702  0.88915  0.21095  1.0000
  C   C21       1.0  0.51791  0.47327  0.21783  1.0000
  C   C22       1.0  0.30021  0.52681  0.78223  1.0000
  C   C23       1.0  0.01783  0.24467  0.21778  1.0000
  C   C24       1.0  0.80034  0.75541  0.78225  1.0000
  N   N1        1.0  0.08384  0.32574  0.84232  1.0000
  N   N2        1.0  0.24131  0.67411  0.15757  1.0000
  N   N3        1.0  0.58377  0.01658  0.84233  1.0000
  N   N4        1.0  0.74138  0.98331  0.15756  1.0000
  O   O1        1.0  0.61984  0.58217  0.23707  1.0000
  O   O2        1.0  0.38295  0.41789  0.76299  1.0000
  O   O3        1.0  0.11988  0.15508  0.23717  1.0000
  O   O4        1.0  0.88294  0.84513  0.76302  1.0000
  O   O5        1.0  0.53587  0.44271  0.32025  1.0000
  O   O6        1.0  0.21569  0.55736  0.67981  1.0000
  O   O7        1.0  0.03570  0.37769  0.32005  1.0000
  O   O8        1.0  0.71610  0.62242  0.67985  1.0000
  O   O9        1.0  0.96069  0.37630  0.76685  1.0000
  O   O10       1.0  0.19359  0.62343  0.23290  1.0000
  O   O11       1.0  0.46077  0.89053  0.76690  1.0000
  O   O12       1.0  0.69373  0.10933  0.23298  1.0000
  O   O13       1.0  0.59153  0.82600  0.49998  1.0000
  O   O14       1.0  0.09189  0.17392  0.50003  1.0000
  O   O15       1.0  0.96897  0.68011  0.49999  1.0000
  O   O16       1.0  0.46889  0.32043  0.50005  1.0000
