data_image0
_chemical_formula_structural       Zn2H32C42N4O8
_chemical_formula_sum              "Zn2 H32 C42 N4 O8"
_cell_length_a       7.63198
_cell_length_b       10.2331
_cell_length_c       12.8546
_cell_angle_alpha    110.06
_cell_angle_beta     93.4495
_cell_angle_gamma    104.659

_space_group_name_H-M_alt    "P 1"
_space_group_IT_number       1

loop_
  _space_group_symop_operation_xyz
  'x, y, z'

loop_
  _atom_site_type_symbol
  _atom_site_label
  _atom_site_symmetry_multiplicity
  _atom_site_fract_x
  _atom_site_fract_y
  _atom_site_fract_z
  _atom_site_occupancy
  Zn  Zn1       1.0  0.83809  0.48860  0.11069  1.0000
  Zn  Zn2       1.0  0.16191  0.51140  0.88931  1.0000
  H   H1        1.0  0.05959  0.49363  0.31810  1.0000
  H   H2        1.0  0.94041  0.50637  0.68190  1.0000
  H   H3        1.0  0.14305  0.01286  0.39934  1.0000
  H   H4        1.0  0.85695  0.98713  0.60066  1.0000
  H   H5        1.0  0.95142  0.81706  0.22428  1.0000
  H   H6        1.0  0.04859  0.18294  0.77572  1.0000
  H   H7        1.0  0.34148  0.08602  0.56880  1.0000
  H   H8        1.0  0.65852  0.91397  0.43120  1.0000
  H   H9        1.0  0.36742  0.85133  0.66528  1.0000
  H   H10       1.0  0.63258  0.14867  0.33472  1.0000
  H   H11       1.0  0.76634  0.15505  0.00806  1.0000
  H   H12       1.0  0.23366  0.84495  0.99194  1.0000
  H   H13       1.0  0.58616  0.94463  0.83596  1.0000
  H   H14       1.0  0.41384  0.05538  0.16404  1.0000
  H   H15       1.0  0.58768  0.44573  0.90182  1.0000
  H   H16       1.0  0.41232  0.55427  0.09818  1.0000
  H   H17       1.0  0.41046  0.25559  0.72881  1.0000
  H   H18       1.0  0.58954  0.74441  0.27119  1.0000
  H   H19       1.0  0.25097  0.67327  0.49862  1.0000
  H   H20       1.0  0.74903  0.32673  0.50138  1.0000
  H   H21       1.0  0.96132  0.19927  0.37963  1.0000
  H   H22       1.0  0.03868  0.80073  0.62037  1.0000
  H   H23       1.0  0.25901  0.32900  0.51143  1.0000
  H   H24       1.0  0.74099  0.67100  0.48857  1.0000
  H   H25       1.0  0.54447  0.40057  0.43420  1.0000
  H   H26       1.0  0.45553  0.59943  0.56580  1.0000
  H   H27       1.0  0.94972  0.15063  0.17821  1.0000
  H   H28       1.0  0.05028  0.84937  0.82179  1.0000
  H   H29       1.0  0.12747  0.11701  0.01704  1.0000
  H   H30       1.0  0.87253  0.88299  0.98296  1.0000
  H   H31       1.0  0.35425  0.22821  0.03597  1.0000
  H   H32       1.0  0.64575  0.77179  0.96403  1.0000
  C   C1        1.0  0.08160  0.61006  0.34043  1.0000
  C   C2        1.0  0.91840  0.38994  0.65957  1.0000
  C   C3        1.0  0.12750  0.89902  0.38550  1.0000
  C   C4        1.0  0.87250  0.10098  0.61450  1.0000
  C   C5        1.0  0.21411  0.86087  0.46570  1.0000
  C   C6        1.0  0.78589  0.13912  0.53430  1.0000
  C   C7        1.0  0.02115  0.79125  0.28788  1.0000
  C   C8        1.0  0.97885  0.20875  0.71212  1.0000
  C   C9        1.0  0.31980  0.97624  0.56889  1.0000
  C   C10       1.0  0.68020  0.02376  0.43111  1.0000
  C   C11       1.0  0.38689  0.95945  0.66179  1.0000
  C   C12       1.0  0.61311  0.04055  0.33821  1.0000
  C   C13       1.0  0.68691  0.17109  0.94243  1.0000
  C   C14       1.0  0.31308  0.82891  0.05757  1.0000
  C   C15       1.0  0.48716  0.08069  0.76383  1.0000
  C   C16       1.0  0.51284  0.91931  0.23617  1.0000
  C   C17       1.0  0.58626  0.05501  0.84723  1.0000
  C   C18       1.0  0.41373  0.94499  0.15277  1.0000
  C   C19       1.0  0.59059  0.33461  0.88370  1.0000
  C   C20       1.0  0.40941  0.66539  0.11630  1.0000
  C   C21       1.0  0.48946  0.22530  0.78541  1.0000
  C   C22       1.0  0.51054  0.77470  0.21459  1.0000
  C   C23       1.0  0.18862  0.71135  0.44056  1.0000
  C   C24       1.0  0.81138  0.28865  0.55944  1.0000
  C   C25       1.0  0.23918  0.24989  0.18997  1.0000
  C   C26       1.0  0.76082  0.75011  0.81003  1.0000
  C   C27       1.0  0.40722  0.32090  0.26395  1.0000
  C   C28       1.0  0.59278  0.67910  0.73605  1.0000
  C   C29       1.0  0.08727  0.23279  0.34819  1.0000
  C   C30       1.0  0.91273  0.76720  0.65181  1.0000
  C   C31       1.0  0.25379  0.30496  0.42153  1.0000
  C   C32       1.0  0.74621  0.69504  0.57847  1.0000
  C   C33       1.0  0.41297  0.34596  0.37853  1.0000
  C   C34       1.0  0.58702  0.65404  0.62147  1.0000
  C   C35       1.0  0.08141  0.20455  0.23389  1.0000
  C   C36       1.0  0.91859  0.79545  0.76611  1.0000
  C   C37       1.0  0.58584  0.36690  0.22405  1.0000
  C   C38       1.0  0.41416  0.63310  0.77595  1.0000
  C   C39       1.0  0.14546  0.33466  0.03718  1.0000
  C   C40       1.0  0.85454  0.66534  0.96282  1.0000
  C   C41       1.0  0.22338  0.22510  0.06702  1.0000
  C   C42       1.0  0.77662  0.77490  0.93298  1.0000
  N   N1        1.0  0.99816  0.64883  0.26493  1.0000
  N   N2        1.0  0.00184  0.35117  0.73507  1.0000
  N   N3        1.0  0.69143  0.30978  0.96052  1.0000
  N   N4        1.0  0.30857  0.69022  0.03947  1.0000
  O   O1        1.0  0.59779  0.46113  0.17716  1.0000
  O   O2        1.0  0.40221  0.53887  0.82284  1.0000
  O   O3        1.0  0.71067  0.31205  0.23841  1.0000
  O   O4        1.0  0.28933  0.68795  0.76159  1.0000
  O   O5        1.0  0.18227  0.35151  0.94647  1.0000
  O   O6        1.0  0.81773  0.64849  0.05354  1.0000
  O   O7        1.0  0.05091  0.39750  0.10339  1.0000
  O   O8        1.0  0.94909  0.60250  0.89661  1.0000
