data_image0
_chemical_formula_structural       Cd2H32C48S2N20
_chemical_formula_sum              "Cd2 H32 C48 S2 N20"
_cell_length_a       9.6678
_cell_length_b       12.1087
_cell_length_c       12.5498
_cell_angle_alpha    116.058
_cell_angle_beta     94.9039
_cell_angle_gamma    106.399

_space_group_name_H-M_alt    "P 1"
_space_group_IT_number       1

loop_
  _space_group_symop_operation_xyz
  'x, y, z'

loop_
  _atom_site_type_symbol
  _atom_site_label
  _atom_site_symmetry_multiplicity
  _atom_site_fract_x
  _atom_site_fract_y
  _atom_site_fract_z
  _atom_site_occupancy
  Cd  Cd1       1.0  0.22794  0.23255  0.57059  1.0000
  Cd  Cd2       1.0  0.77206  0.76745  0.42941  1.0000
  H   H1        1.0  0.63628  0.04261  0.66885  1.0000
  H   H2        1.0  0.36372  0.95739  0.33115  1.0000
  H   H3        1.0  0.47892  0.10320  0.55291  1.0000
  H   H4        1.0  0.52109  0.89680  0.44709  1.0000
  H   H5        1.0  0.34396  0.31587  0.85931  1.0000
  H   H6        1.0  0.65604  0.68413  0.14068  1.0000
  H   H7        1.0  0.49417  0.26538  0.98857  1.0000
  H   H8        1.0  0.50582  0.73461  0.01144  1.0000
  H   H9        1.0  0.84244  0.39280  0.01860  1.0000
  H   H10       1.0  0.15755  0.60719  0.98139  1.0000
  H   H11       1.0  0.86032  0.61689  0.17167  1.0000
  H   H12       1.0  0.13968  0.38311  0.82832  1.0000
  H   H13       1.0  0.66061  0.48041  0.39118  1.0000
  H   H14       1.0  0.33939  0.51959  0.60882  1.0000
  H   H15       1.0  0.64689  0.25267  0.25544  1.0000
  H   H16       1.0  0.35311  0.74733  0.74456  1.0000
  H   H17       1.0  0.04193  0.28153  0.18709  1.0000
  H   H18       1.0  0.95807  0.71847  0.81291  1.0000
  H   H19       1.0  0.19931  0.34373  0.38741  1.0000
  H   H20       1.0  0.80069  0.65627  0.61259  1.0000
  H   H21       1.0  0.86015  0.09305  0.44538  1.0000
  H   H22       1.0  0.13984  0.90695  0.55462  1.0000
  H   H23       1.0  0.69850  0.00960  0.24244  1.0000
  H   H24       1.0  0.30150  0.99041  0.75756  1.0000
  H   H25       1.0  0.97919  0.96177  0.11936  1.0000
  H   H26       1.0  0.02081  0.03824  0.88064  1.0000
  H   H27       1.0  0.02380  0.76614  0.10490  1.0000
  H   H28       1.0  0.97620  0.23386  0.89510  1.0000
  H   H29       1.0  0.66332  0.51275  0.80717  1.0000
  H   H30       1.0  0.33668  0.48725  0.19283  1.0000
  H   H31       1.0  0.60184  0.69809  0.80857  1.0000
  H   H32       1.0  0.39816  0.30191  0.19143  1.0000
  C   C1        1.0  0.65577  0.10249  0.90919  1.0000
  C   C2        1.0  0.34423  0.89751  0.09080  1.0000
  C   C3        1.0  0.72279  0.16569  0.03393  1.0000
  C   C4        1.0  0.27721  0.83431  0.96607  1.0000
  C   C5        1.0  0.77520  0.08446  0.06890  1.0000
  C   C6        1.0  0.22480  0.91554  0.93110  1.0000
  C   C7        1.0  0.74738  0.95994  0.97037  1.0000
  C   C8        1.0  0.25262  0.04006  0.02963  1.0000
  C   C9        1.0  0.57788  0.14698  0.83999  1.0000
  C   C10       1.0  0.42212  0.85302  0.16001  1.0000
  C   C11       1.0  0.57245  0.10271  0.71519  1.0000
  C   C12       1.0  0.42755  0.89729  0.28481  1.0000
  C   C13       1.0  0.48532  0.13706  0.64983  1.0000
  C   C14       1.0  0.51469  0.86294  0.35017  1.0000
  C   C15       1.0  0.41211  0.25726  0.82065  1.0000
  C   C16       1.0  0.58789  0.74274  0.17935  1.0000
  C   C17       1.0  0.49702  0.22883  0.89306  1.0000
  C   C18       1.0  0.50297  0.77118  0.10694  1.0000
  C   C19       1.0  0.73924  0.30144  0.12178  1.0000
  C   C20       1.0  0.26076  0.69856  0.87822  1.0000
  C   C21       1.0  0.80121  0.40692  0.09996  1.0000
  C   C22       1.0  0.19879  0.59308  0.90004  1.0000
  C   C23       1.0  0.81039  0.53225  0.18446  1.0000
  C   C24       1.0  0.18961  0.46775  0.81554  1.0000
  C   C25       1.0  0.70233  0.45659  0.30871  1.0000
  C   C26       1.0  0.29768  0.54341  0.69129  1.0000
  C   C27       1.0  0.69263  0.32887  0.23068  1.0000
  C   C28       1.0  0.30737  0.67113  0.76933  1.0000
  C   C29       1.0  0.99947  0.23523  0.24055  1.0000
  C   C30       1.0  0.00053  0.76477  0.75945  1.0000
  C   C31       1.0  0.08589  0.27256  0.35325  1.0000
  C   C32       1.0  0.91411  0.72744  0.64676  1.0000
  C   C33       1.0  0.89949  0.13025  0.38459  1.0000
  C   C34       1.0  0.10051  0.86975  0.61541  1.0000
  C   C35       1.0  0.80831  0.08389  0.27074  1.0000
  C   C36       1.0  0.19169  0.91611  0.72926  1.0000
  C   C37       1.0  0.85993  0.13406  0.19466  1.0000
  C   C38       1.0  0.14007  0.86594  0.80534  1.0000
  C   C39       1.0  0.78348  0.84875  0.96619  1.0000
  C   C40       1.0  0.21652  0.15125  0.03381  1.0000
  C   C41       1.0  0.90447  0.86471  0.04908  1.0000
  C   C42       1.0  0.09553  0.13530  0.95092  1.0000
  C   C43       1.0  0.92997  0.75364  0.04024  1.0000
  C   C44       1.0  0.07003  0.24637  0.95976  1.0000
  C   C45       1.0  0.73114  0.61387  0.87607  1.0000
  C   C46       1.0  0.26887  0.38614  0.12394  1.0000
  C   C47       1.0  0.69688  0.71839  0.87668  1.0000
  C   C48       1.0  0.30312  0.28161  0.12333  1.0000
  S   S1        1.0  0.65925  0.94510  0.83641  1.0000
  S   S2        1.0  0.34075  0.05489  0.16359  1.0000
  N   N1        1.0  0.40398  0.21127  0.70033  1.0000
  N   N2        1.0  0.59602  0.78873  0.29967  1.0000
  N   N3        1.0  0.75942  0.55668  0.28587  1.0000
  N   N4        1.0  0.24058  0.44332  0.71412  1.0000
  N   N5        1.0  0.03828  0.21944  0.42387  1.0000
  N   N6        1.0  0.96172  0.78056  0.57613  1.0000
  N   N7        1.0  0.84571  0.62918  0.95674  1.0000
  N   N8        1.0  0.15430  0.37082  0.04326  1.0000
  N   N9        1.0  0.40995  0.32405  0.49565  1.0000
  N   N10       1.0  0.59005  0.67595  0.50434  1.0000
  N   N11       1.0  0.50185  0.27581  0.46334  1.0000
  N   N12       1.0  0.49815  0.72418  0.53665  1.0000
  N   N13       1.0  0.59301  0.23049  0.43051  1.0000
  N   N14       1.0  0.40699  0.76950  0.56948  1.0000
  N   N15       1.0  0.05210  0.15254  0.66873  1.0000
  N   N16       1.0  0.94790  0.84747  0.33127  1.0000
  N   N17       1.0  0.93275  0.06922  0.62297  1.0000
  N   N18       1.0  0.06725  0.93078  0.37703  1.0000
  N   N19       1.0  0.81171  0.98727  0.58015  1.0000
  N   N20       1.0  0.18830  0.01273  0.41985  1.0000
