data_image0
_chemical_formula_structural       Cu4H12C14S2I4N4
_chemical_formula_sum              "Cu4 H12 C14 S2 I4 N4"
_cell_length_a       6.10863
_cell_length_b       10.9319
_cell_length_c       11.3986
_cell_angle_alpha    106.416
_cell_angle_beta     105.629
_cell_angle_gamma    89.9324

_space_group_name_H-M_alt    "P 1"
_space_group_IT_number       1

loop_
  _space_group_symop_operation_xyz
  'x, y, z'

loop_
  _atom_site_type_symbol
  _atom_site_label
  _atom_site_symmetry_multiplicity
  _atom_site_fract_x
  _atom_site_fract_y
  _atom_site_fract_z
  _atom_site_occupancy
  Cu  Cu1       1.0  0.97243  0.89872  0.39470  1.0000
  Cu  Cu2       1.0  0.57824  0.10121  0.60519  1.0000
  Cu  Cu3       1.0  0.02757  0.10128  0.60530  1.0000
  Cu  Cu4       1.0  0.42176  0.89878  0.39481  1.0000
  H   H1        1.0  0.82192  0.86363  0.64263  1.0000
  H   H2        1.0  0.17809  0.13637  0.35737  1.0000
  H   H3        1.0  0.70252  0.49631  0.40493  1.0000
  H   H4        1.0  0.29748  0.50369  0.59507  1.0000
  H   H5        1.0  0.79944  0.35736  0.59825  1.0000
  H   H6        1.0  0.20057  0.64264  0.40176  1.0000
  H   H7        1.0  0.91681  0.40359  0.83260  1.0000
  H   H8        1.0  0.08318  0.59642  0.16741  1.0000
  H   H9        1.0  0.98865  0.62842  0.97545  1.0000
  H   H10       1.0  0.01135  0.37158  0.02456  1.0000
  H   H11       1.0  0.94421  0.81272  0.88602  1.0000
  H   H12       1.0  0.05579  0.18728  0.11398  1.0000
  C   C1        1.0  0.74417  0.69468  0.48794  1.0000
  C   C2        1.0  0.25584  0.30532  0.51206  1.0000
  C   C3        1.0  0.80589  0.55992  0.61085  1.0000
  C   C4        1.0  0.19411  0.44008  0.38915  1.0000
  C   C5        1.0  0.83026  0.45583  0.65970  1.0000
  C   C6        1.0  0.16974  0.54417  0.34029  1.0000
  C   C7        1.0  0.89663  0.48347  0.79217  1.0000
  C   C8        1.0  0.10337  0.51653  0.20783  1.0000
  C   C9        1.0  0.93700  0.61000  0.87240  1.0000
  C   C10       1.0  0.06300  0.39000  0.12760  1.0000
  C   C11       1.0  0.91294  0.71461  0.82384  1.0000
  C   C12       1.0  0.08706  0.28539  0.17616  1.0000
  C   C13       1.0  0.84650  0.68719  0.69163  1.0000
  C   C14       1.0  0.15351  0.31281  0.30837  1.0000
  S   S1        1.0  0.67783  0.74600  0.35588  1.0000
  S   S2        1.0  0.32217  0.25400  0.64412  1.0000
  I   I1        1.0  0.09568  0.89482  0.19259  1.0000
  I   I2        1.0  0.90432  0.10518  0.80741  1.0000
  I   I3        1.0  0.29885  0.89542  0.59702  1.0000
  I   I4        1.0  0.70115  0.10458  0.40298  1.0000
  N   N1        1.0  0.74367  0.56934  0.48703  1.0000
  N   N2        1.0  0.25633  0.43066  0.51297  1.0000
  N   N3        1.0  0.80669  0.76543  0.61230  1.0000
  N   N4        1.0  0.19331  0.23457  0.38770  1.0000
