data_image0
_chemical_formula_structural       Cu12H8C12N36
_chemical_formula_sum              "Cu12 H8 C12 N36"
_cell_length_a       8.61103
_cell_length_b       8.61095
_cell_length_c       12.3297
_cell_angle_alpha    77.3647
_cell_angle_beta     77.3649
_cell_angle_gamma    79.9623

_space_group_name_H-M_alt    "P 1"
_space_group_IT_number       1

loop_
  _space_group_symop_operation_xyz
  'x, y, z'

loop_
  _atom_site_type_symbol
  _atom_site_label
  _atom_site_symmetry_multiplicity
  _atom_site_fract_x
  _atom_site_fract_y
  _atom_site_fract_z
  _atom_site_occupancy
  Cu  Cu1       1.0  0.36553  0.36554  0.01893  1.0000
  Cu  Cu2       1.0  0.63446  0.63446  0.98107  1.0000
  Cu  Cu3       1.0  0.75459  0.75459  0.13669  1.0000
  Cu  Cu4       1.0  0.24541  0.24541  0.86331  1.0000
  Cu  Cu5       1.0  0.94605  0.94605  0.86608  1.0000
  Cu  Cu6       1.0  0.05395  0.05394  0.13392  1.0000
  Cu  Cu7       1.0  0.37710  0.37710  0.33310  1.0000
  Cu  Cu8       1.0  0.62290  0.62291  0.66690  1.0000
  Cu  Cu9       1.0  0.90253  0.90253  0.54472  1.0000
  Cu  Cu10      1.0  0.09748  0.09747  0.45528  1.0000
  Cu  Cu11      1.0  0.72177  0.72177  0.35957  1.0000
  Cu  Cu12      1.0  0.27823  0.27823  0.64042  1.0000
  H   H1        1.0  0.10043  0.69242  0.33955  1.0000
  H   H2        1.0  0.30761  0.89957  0.66044  1.0000
  H   H3        1.0  0.89956  0.30759  0.66044  1.0000
  H   H4        1.0  0.69241  0.10044  0.33955  1.0000
  H   H5        1.0  0.66589  0.25363  0.84484  1.0000
  H   H6        1.0  0.74637  0.33410  0.15516  1.0000
  H   H7        1.0  0.33411  0.74636  0.15516  1.0000
  H   H8        1.0  0.25363  0.66589  0.84484  1.0000
  C   C1        1.0  0.05488  0.57860  0.35436  1.0000
  C   C2        1.0  0.42140  0.94513  0.64563  1.0000
  C   C3        1.0  0.94512  0.42141  0.64563  1.0000
  C   C4        1.0  0.57860  0.05488  0.35437  1.0000
  C   C5        1.0  0.61262  0.61262  0.21847  1.0000
  C   C6        1.0  0.38738  0.38739  0.78153  1.0000
  C   C7        1.0  0.65532  0.17669  0.92758  1.0000
  C   C8        1.0  0.82331  0.34466  0.07241  1.0000
  C   C9        1.0  0.34467  0.82331  0.07242  1.0000
  C   C10       1.0  0.17670  0.65533  0.92758  1.0000
  C   C11       1.0  0.03762  0.03761  0.61388  1.0000
  C   C12       1.0  0.96240  0.96241  0.38612  1.0000
  N   N1        1.0  0.53790  0.20041  0.01673  1.0000
  N   N2        1.0  0.79959  0.46209  0.98327  1.0000
  N   N3        1.0  0.46210  0.79959  0.98327  1.0000
  N   N4        1.0  0.20040  0.53790  0.01673  1.0000
  N   N5        1.0  0.56302  0.07732  0.10300  1.0000
  N   N6        1.0  0.92268  0.43698  0.89700  1.0000
  N   N7        1.0  0.43698  0.92267  0.89700  1.0000
  N   N8        1.0  0.07732  0.56302  0.10300  1.0000
  N   N9        1.0  0.69256  0.98388  0.06622  1.0000
  N   N10       1.0  0.01611  0.30744  0.93378  1.0000
  N   N11       1.0  0.30744  0.01611  0.93378  1.0000
  N   N12       1.0  0.98388  0.69256  0.06622  1.0000
  N   N13       1.0  0.75365  0.04361  0.95622  1.0000
  N   N14       1.0  0.95638  0.24633  0.04379  1.0000
  N   N15       1.0  0.24633  0.95638  0.04379  1.0000
  N   N16       1.0  0.04361  0.75366  0.95622  1.0000
  N   N17       1.0  0.01495  0.01494  0.71409  1.0000
  N   N18       1.0  0.98505  0.98505  0.28593  1.0000
  N   N19       1.0  0.52065  0.52065  0.26419  1.0000
  N   N20       1.0  0.47935  0.47935  0.73581  1.0000
  N   N21       1.0  0.14338  0.43482  0.36448  1.0000
  N   N22       1.0  0.56519  0.85662  0.63552  1.0000
  N   N23       1.0  0.85661  0.56518  0.63552  1.0000
  N   N24       1.0  0.43482  0.14339  0.36448  1.0000
  N   N25       1.0  0.89943  0.56178  0.36707  1.0000
  N   N26       1.0  0.43823  0.10059  0.63292  1.0000
  N   N27       1.0  0.10057  0.43822  0.63292  1.0000
  N   N28       1.0  0.56178  0.89943  0.36707  1.0000
  N   N29       1.0  0.89049  0.40242  0.38554  1.0000
  N   N30       1.0  0.59759  0.10952  0.61445  1.0000
  N   N31       1.0  0.10951  0.59758  0.61446  1.0000
  N   N32       1.0  0.40243  0.89049  0.38554  1.0000
  N   N33       1.0  0.03671  0.32745  0.38467  1.0000
  N   N34       1.0  0.67256  0.96330  0.61533  1.0000
  N   N35       1.0  0.96329  0.67255  0.61533  1.0000
  N   N36       1.0  0.32745  0.03671  0.38467  1.0000
