data_image0
_chemical_formula_structural       CuH29C32N5O6
_chemical_formula_sum              "Cu1 H29 C32 N5 O6"
_cell_length_a       7.28787
_cell_length_b       9.18668
_cell_length_c       12.6634
_cell_angle_alpha    70.4868
_cell_angle_beta     71.8939
_cell_angle_gamma    73.1983

_space_group_name_H-M_alt    "P 1"
_space_group_IT_number       1

loop_
  _space_group_symop_operation_xyz
  'x, y, z'

loop_
  _atom_site_type_symbol
  _atom_site_label
  _atom_site_symmetry_multiplicity
  _atom_site_fract_x
  _atom_site_fract_y
  _atom_site_fract_z
  _atom_site_occupancy
  Cu  Cu1       1.0  0.59169  0.91689  0.09862  1.0000
  H   H1        1.0  0.29564  0.41808  0.75134  1.0000
  H   H2        1.0  0.26474  0.39129  0.57323  1.0000
  H   H3        1.0  0.54906  0.39601  0.40171  1.0000
  H   H4        1.0  0.87365  0.42047  0.41419  1.0000
  H   H5        1.0  0.90828  0.44279  0.59831  1.0000
  H   H6        1.0  0.62323  0.49970  0.98938  1.0000
  H   H7        1.0  0.23293  0.58228  0.03158  1.0000
  H   H8        1.0  0.23615  0.38335  0.11199  1.0000
  H   H9        1.0  0.20485  0.52898  0.24691  1.0000
  H   H10       1.0  0.45737  0.42876  0.22316  1.0000
  H   H11       1.0  0.28767  0.14553  0.22101  1.0000
  H   H12       1.0  0.17654  0.17354  0.42356  1.0000
  H   H13       1.0  0.56593  0.72450  0.52149  1.0000
  H   H14       1.0  0.66399  0.71895  0.31780  1.0000
  H   H15       1.0  0.46096  0.73599  0.68657  1.0000
  H   H16       1.0  0.34560  0.77330  0.88470  1.0000
  H   H17       1.0  0.11096  0.02420  0.91530  1.0000
  H   H18       1.0  0.01288  0.23097  0.74497  1.0000
  H   H19       1.0  0.52662  0.12346  0.87657  1.0000
  H   H20       1.0  0.63234  0.12038  0.67220  1.0000
  H   H21       1.0  0.97757  0.65166  0.77632  1.0000
  H   H22       1.0  0.87155  0.01982  0.11853  1.0000
  H   H23       1.0  0.03978  0.86320  0.10527  1.0000
  H   H24       1.0  0.85873  0.67637  0.97985  1.0000
  H   H25       1.0  0.70130  0.09755  0.51429  1.0000
  H   H26       1.0  0.82114  0.07086  0.31332  1.0000
  H   H27       1.0  0.07414  0.83074  0.27643  1.0000
  H   H28       1.0  0.19263  0.62722  0.44274  1.0000
  H   H29       1.0  0.35780  0.43593  0.88416  1.0000
  C   C1        1.0  0.42542  0.41921  0.67916  1.0000
  C   C2        1.0  0.40564  0.40519  0.57711  1.0000
  C   C3        1.0  0.56604  0.40585  0.48151  1.0000
  C   C4        1.0  0.74770  0.41976  0.48852  1.0000
  C   C5        1.0  0.76828  0.43215  0.59076  1.0000
  C   C6        1.0  0.60789  0.43143  0.68743  1.0000
  C   C7        1.0  0.64691  0.43594  0.79587  1.0000
  C   C8        1.0  0.51904  0.42706  0.00042  1.0000
  C   C9        1.0  0.61348  0.25243  0.05310  1.0000
  C   C10       1.0  0.32030  0.47768  0.08095  1.0000
  C   C11       1.0  0.34631  0.51985  0.18205  1.0000
  C   C12       1.0  0.40383  0.68071  0.14084  1.0000
  C   C13       1.0  0.34711  0.05689  0.29073  1.0000
  C   C14       1.0  0.28596  0.07175  0.40253  1.0000
  C   C15       1.0  0.36224  0.95247  0.49053  1.0000
  C   C16       1.0  0.49887  0.82217  0.45904  1.0000
  C   C17       1.0  0.55531  0.81695  0.34502  1.0000
  C   C18       1.0  0.29828  0.96636  0.61039  1.0000
  C   C19       1.0  0.36098  0.84444  0.70182  1.0000
  C   C20       1.0  0.29546  0.86427  0.81268  1.0000
  C   C21       1.0  0.16703  0.00408  0.82993  1.0000
  C   C22       1.0  0.11201  0.11942  0.73422  1.0000
  C   C23       1.0  0.62804  0.02195  0.85027  1.0000
  C   C24       1.0  0.68908  0.01823  0.73599  1.0000
  C   C25       1.0  0.81816  0.88456  0.70572  1.0000
  C   C26       1.0  0.88070  0.75909  0.79548  1.0000
  C   C27       1.0  0.81395  0.77179  0.90804  1.0000
  C   C28       1.0  0.88428  0.87426  0.58495  1.0000
  C   C29       1.0  0.81118  0.99463  0.49597  1.0000
  C   C30       1.0  0.87799  0.98031  0.38371  1.0000
  C   C31       1.0  0.01774  0.84652  0.36290  1.0000
  C   C32       1.0  0.08159  0.73266  0.45634  1.0000
  N   N1        1.0  0.48984  0.44791  0.88732  1.0000
  N   N2        1.0  0.48147  0.93253  0.26149  1.0000
  N   N3        1.0  0.68921  0.90125  0.93560  1.0000
  N   N4        1.0  0.01750  0.74384  0.56494  1.0000
  N   N5        1.0  0.17626  0.10290  0.62677  1.0000
  O   O1        1.0  0.81652  0.42850  0.80209  1.0000
  O   O2        1.0  0.53388  0.15322  0.03997  1.0000
  O   O3        1.0  0.74710  0.22236  0.10442  1.0000
  O   O4        1.0  0.56786  0.68610  0.15637  1.0000
  O   O5        1.0  0.29120  0.80014  0.09278  1.0000
  O   O6        1.0  0.89565  0.90558  0.12470  1.0000
