data_image0
_chemical_formula_structural       Mn4H16C12N16O12
_chemical_formula_sum              "Mn4 H16 C12 N16 O12"
_cell_length_a       8.05307
_cell_length_b       9.49268
_cell_length_c       9.7847
_cell_angle_alpha    90.0037
_cell_angle_beta     89.9952
_cell_angle_gamma    114.871

_space_group_name_H-M_alt    "P 1"
_space_group_IT_number       1

loop_
  _space_group_symop_operation_xyz
  'x, y, z'

loop_
  _atom_site_type_symbol
  _atom_site_label
  _atom_site_symmetry_multiplicity
  _atom_site_fract_x
  _atom_site_fract_y
  _atom_site_fract_z
  _atom_site_occupancy
  Mn  Mn1       1.0  0.77463  0.82064  0.58024  1.0000
  Mn  Mn2       1.0  0.22535  0.67934  0.08021  1.0000
  Mn  Mn3       1.0  0.22536  0.17935  0.41976  1.0000
  Mn  Mn4       1.0  0.77465  0.32066  0.91978  1.0000
  H   H1        1.0  0.33594  0.98162  0.86553  1.0000
  H   H2        1.0  0.66403  0.51838  0.36554  1.0000
  H   H3        1.0  0.66405  0.01838  0.13446  1.0000
  H   H4        1.0  0.33597  0.48162  0.63446  1.0000
  H   H5        1.0  0.21962  0.02490  0.73834  1.0000
  H   H6        1.0  0.78038  0.47509  0.23836  1.0000
  H   H7        1.0  0.78038  0.97510  0.26166  1.0000
  H   H8        1.0  0.21962  0.52490  0.76165  1.0000
  H   H9        1.0  0.50144  0.75477  0.37339  1.0000
  H   H10       1.0  0.49857  0.74522  0.87337  1.0000
  H   H11       1.0  0.49856  0.24524  0.62661  1.0000
  H   H12       1.0  0.50143  0.25476  0.12662  1.0000
  H   H13       1.0  0.45419  0.83018  0.50478  1.0000
  H   H14       1.0  0.54582  0.66984  0.00477  1.0000
  H   H15       1.0  0.54581  0.16982  0.49522  1.0000
  H   H16       1.0  0.45418  0.33016  0.99522  1.0000
  C   C1        1.0  0.07888  0.81476  0.82299  1.0000
  C   C2        1.0  0.92111  0.68525  0.32299  1.0000
  C   C3        1.0  0.92111  0.18525  0.17701  1.0000
  C   C4        1.0  0.07889  0.31474  0.67701  1.0000
  C   C5        1.0  0.83384  0.61495  0.78041  1.0000
  C   C6        1.0  0.16615  0.88506  0.28040  1.0000
  C   C7        1.0  0.16616  0.38506  0.21959  1.0000
  C   C8        1.0  0.83385  0.11494  0.71959  1.0000
  C   C9        1.0  0.66149  0.51067  0.71525  1.0000
  C   C10       1.0  0.33851  0.98931  0.21523  1.0000
  C   C11       1.0  0.33851  0.48933  0.28476  1.0000
  C   C12       1.0  0.66148  0.01069  0.78477  1.0000
  N   N1        1.0  0.91634  0.57090  0.87794  1.0000
  N   N2        1.0  0.08365  0.92911  0.37794  1.0000
  N   N3        1.0  0.08366  0.42911  0.12206  1.0000
  N   N4        1.0  0.91634  0.07089  0.62206  1.0000
  N   N5        1.0  0.07634  0.69859  0.90648  1.0000
  N   N6        1.0  0.92365  0.80142  0.40649  1.0000
  N   N7        1.0  0.92366  0.30142  0.09352  1.0000
  N   N8        1.0  0.07635  0.19857  0.59352  1.0000
  N   N9        1.0  0.92778  0.76513  0.74224  1.0000
  N   N10       1.0  0.07220  0.73487  0.24222  1.0000
  N   N11       1.0  0.07222  0.23488  0.25777  1.0000
  N   N12       1.0  0.92781  0.26512  0.75779  1.0000
  N   N13       1.0  0.21100  0.96206  0.82420  1.0000
  N   N14       1.0  0.78898  0.53793  0.32422  1.0000
  N   N15       1.0  0.78900  0.03795  0.17579  1.0000
  N   N16       1.0  0.21102  0.46206  0.67579  1.0000
  O   O1        1.0  0.59766  0.57008  0.62444  1.0000
  O   O2        1.0  0.40235  0.92990  0.12442  1.0000
  O   O3        1.0  0.40235  0.42994  0.37556  1.0000
  O   O4        1.0  0.59764  0.07008  0.87557  1.0000
  O   O5        1.0  0.59000  0.36816  0.75321  1.0000
  O   O6        1.0  0.41002  0.13183  0.25320  1.0000
  O   O7        1.0  0.41001  0.63184  0.24679  1.0000
  O   O8        1.0  0.58998  0.86817  0.74679  1.0000
  O   O9        1.0  0.55562  0.83438  0.44816  1.0000
  O   O10       1.0  0.44439  0.66561  0.94814  1.0000
  O   O11       1.0  0.44438  0.16563  0.55184  1.0000
  O   O12       1.0  0.55561  0.33438  0.05185  1.0000
