data_image0
_chemical_formula_structural       Cd4H32C24N32O20
_chemical_formula_sum              "Cd4 H32 C24 N32 O20"
_cell_length_a       8.96666
_cell_length_b       9.12192
_cell_length_c       13.9454
_cell_angle_alpha    108.38
_cell_angle_beta     90
_cell_angle_gamma    90

_space_group_name_H-M_alt    "P 1"
_space_group_IT_number       1

loop_
  _space_group_symop_operation_xyz
  'x, y, z'

loop_
  _atom_site_type_symbol
  _atom_site_label
  _atom_site_symmetry_multiplicity
  _atom_site_fract_x
  _atom_site_fract_y
  _atom_site_fract_z
  _atom_site_occupancy
  Cd  Cd1       1.0  0.96249  0.26988  0.80670  1.0000
  Cd  Cd2       1.0  0.46249  0.23012  0.69330  1.0000
  Cd  Cd3       1.0  0.03751  0.73012  0.19330  1.0000
  Cd  Cd4       1.0  0.53751  0.76988  0.30670  1.0000
  H   H1        1.0  0.15079  0.10336  0.12047  1.0000
  H   H2        1.0  0.65079  0.39664  0.37953  1.0000
  H   H3        1.0  0.84921  0.89664  0.87953  1.0000
  H   H4        1.0  0.34920  0.60336  0.62047  1.0000
  H   H5        1.0  0.34356  0.27045  0.93628  1.0000
  H   H6        1.0  0.84356  0.22955  0.56372  1.0000
  H   H7        1.0  0.65644  0.72955  0.06372  1.0000
  H   H8        1.0  0.15644  0.77045  0.43628  1.0000
  H   H9        1.0  0.37428  0.17954  0.02796  1.0000
  H   H10       1.0  0.87428  0.32046  0.47204  1.0000
  H   H11       1.0  0.62572  0.82046  0.97204  1.0000
  H   H12       1.0  0.12572  0.67954  0.52796  1.0000
  H   H13       1.0  0.85223  0.71375  0.62997  1.0000
  H   H14       1.0  0.35223  0.78625  0.87003  1.0000
  H   H15       1.0  0.14778  0.28625  0.37003  1.0000
  H   H16       1.0  0.64777  0.21375  0.12997  1.0000
  H   H17       1.0  0.64326  0.50915  0.78767  1.0000
  H   H18       1.0  0.14326  0.99085  0.71233  1.0000
  H   H19       1.0  0.35674  0.49085  0.21233  1.0000
  H   H20       1.0  0.85674  0.00915  0.28767  1.0000
  H   H21       1.0  0.62004  0.62000  0.70507  1.0000
  H   H22       1.0  0.12004  0.88000  0.79493  1.0000
  H   H23       1.0  0.37996  0.38000  0.29493  1.0000
  H   H24       1.0  0.87996  0.12000  0.20507  1.0000
  H   H25       1.0  0.94057  0.00078  0.60749  1.0000
  H   H26       1.0  0.44057  0.49922  0.89251  1.0000
  H   H27       1.0  0.05943  0.99922  0.39251  1.0000
  H   H28       1.0  0.55943  0.50078  0.10749  1.0000
  H   H29       1.0  0.09460  0.09439  0.59986  1.0000
  H   H30       1.0  0.59460  0.40561  0.90014  1.0000
  H   H31       1.0  0.90540  0.90561  0.40014  1.0000
  H   H32       1.0  0.40540  0.59439  0.09986  1.0000
  C   C1        1.0  0.92418  0.27123  0.02447  1.0000
  C   C2        1.0  0.42418  0.22877  0.47553  1.0000
  C   C3        1.0  0.07582  0.72877  0.97553  1.0000
  C   C4        1.0  0.57582  0.77123  0.52447  1.0000
  C   C5        1.0  0.15802  0.21958  0.00556  1.0000
  C   C6        1.0  0.65802  0.28042  0.49444  1.0000
  C   C7        1.0  0.84198  0.78042  0.99444  1.0000
  C   C8        1.0  0.34198  0.71958  0.50556  1.0000
  C   C9        1.0  0.77728  0.33753  0.01037  1.0000
  C   C10       1.0  0.27728  0.16247  0.48963  1.0000
  C   C11       1.0  0.22272  0.66247  0.98963  1.0000
  C   C12       1.0  0.72272  0.83753  0.51037  1.0000
  C   C13       1.0  0.06724  0.50628  0.70451  1.0000
  C   C14       1.0  0.56724  0.99373  0.79549  1.0000
  C   C15       1.0  0.93276  0.49373  0.29549  1.0000
  C   C16       1.0  0.43276  0.00627  0.20451  1.0000
  C   C17       1.0  0.83252  0.55430  0.71821  1.0000
  C   C18       1.0  0.33252  0.94570  0.78179  1.0000
  C   C19       1.0  0.16748  0.44570  0.28179  1.0000
  C   C20       1.0  0.66748  0.05430  0.21821  1.0000
  C   C21       1.0  0.21019  0.43277  0.71611  1.0000
  C   C22       1.0  0.71019  0.06723  0.78389  1.0000
  C   C23       1.0  0.78981  0.56722  0.28389  1.0000
  C   C24       1.0  0.28981  0.93277  0.21611  1.0000
  N   N1        1.0  0.10179  0.17183  0.08142  1.0000
  N   N2        1.0  0.60179  0.32817  0.41858  1.0000
  N   N3        1.0  0.89821  0.82817  0.91858  1.0000
  N   N4        1.0  0.39821  0.67183  0.58142  1.0000
  N   N5        1.0  0.95354  0.20469  0.09421  1.0000
  N   N6        1.0  0.45354  0.29531  0.40579  1.0000
  N   N7        1.0  0.04646  0.79531  0.90579  1.0000
  N   N8        1.0  0.54646  0.70469  0.59421  1.0000
  N   N9        1.0  0.04529  0.27990  0.96604  1.0000
  N   N10       1.0  0.54529  0.22010  0.53396  1.0000
  N   N11       1.0  0.95471  0.72010  0.03396  1.0000
  N   N12       1.0  0.45471  0.77990  0.46604  1.0000
  N   N13       1.0  0.30287  0.20792  0.97951  1.0000
  N   N14       1.0  0.80287  0.29208  0.52049  1.0000
  N   N15       1.0  0.69713  0.79208  0.02049  1.0000
  N   N16       1.0  0.19713  0.70792  0.47951  1.0000
  N   N17       1.0  0.89874  0.63554  0.66317  1.0000
  N   N18       1.0  0.39873  0.86447  0.83683  1.0000
  N   N19       1.0  0.10127  0.36447  0.33683  1.0000
  N   N20       1.0  0.60127  0.13553  0.16317  1.0000
  N   N21       1.0  0.04743  0.60355  0.65218  1.0000
  N   N22       1.0  0.54743  0.89645  0.84782  1.0000
  N   N23       1.0  0.95258  0.39644  0.34781  1.0000
  N   N24       1.0  0.45258  0.10355  0.15218  1.0000
  N   N25       1.0  0.93891  0.47236  0.74650  1.0000
  N   N26       1.0  0.43891  0.02765  0.75350  1.0000
  N   N27       1.0  0.06109  0.52764  0.25350  1.0000
  N   N28       1.0  0.56109  0.97235  0.24650  1.0000
  N   N29       1.0  0.68614  0.55610  0.73647  1.0000
  N   N30       1.0  0.18614  0.94390  0.76353  1.0000
  N   N31       1.0  0.31386  0.44390  0.26353  1.0000
  N   N32       1.0  0.81386  0.05610  0.23647  1.0000
  O   O1        1.0  0.67198  0.34070  0.07212  1.0000
  O   O2        1.0  0.17198  0.15930  0.42788  1.0000
  O   O3        1.0  0.32802  0.65930  0.92789  1.0000
  O   O4        1.0  0.82802  0.84070  0.57212  1.0000
  O   O5        1.0  0.76741  0.39018  0.93626  1.0000
  O   O6        1.0  0.26741  0.10982  0.56374  1.0000
  O   O7        1.0  0.23259  0.60982  0.06374  1.0000
  O   O8        1.0  0.73259  0.89018  0.43626  1.0000
  O   O9        1.0  0.20681  0.33249  0.76259  1.0000
  O   O10       1.0  0.70681  0.16751  0.73741  1.0000
  O   O11       1.0  0.79319  0.66751  0.23741  1.0000
  O   O12       1.0  0.29319  0.83249  0.26259  1.0000
  O   O13       1.0  0.32890  0.46505  0.67705  1.0000
  O   O14       1.0  0.82890  0.03494  0.82295  1.0000
  O   O15       1.0  0.67110  0.53495  0.32295  1.0000
  O   O16       1.0  0.17110  0.96505  0.17705  1.0000
  O   O17       1.0  0.99762  0.09872  0.63687  1.0000
  O   O18       1.0  0.49762  0.40129  0.86313  1.0000
  O   O19       1.0  0.00238  0.90129  0.36313  1.0000
  O   O20       1.0  0.50238  0.59872  0.13687  1.0000
