data_image0
_chemical_formula_structural       Cu10H40C32N12O36
_chemical_formula_sum              "Cu10 H40 C32 N12 O36"
_cell_length_a       10.6448
_cell_length_b       12.0187
_cell_length_c       11.9789
_cell_angle_alpha    90.0104
_cell_angle_beta     104.469
_cell_angle_gamma    90.042

_space_group_name_H-M_alt    "P 1"
_space_group_IT_number       1

loop_
  _space_group_symop_operation_xyz
  'x, y, z'

loop_
  _atom_site_type_symbol
  _atom_site_label
  _atom_site_symmetry_multiplicity
  _atom_site_fract_x
  _atom_site_fract_y
  _atom_site_fract_z
  _atom_site_occupancy
  Cu  Cu1       1.0  0.50002  0.50013  0.50000  1.0000
  Cu  Cu2       1.0  1.00000  0.00012  0.00003  1.0000
  Cu  Cu3       1.0  0.70710  0.69237  0.11531  1.0000
  Cu  Cu4       1.0  0.79308  0.19245  0.38461  1.0000
  Cu  Cu5       1.0  0.29308  0.30757  0.88445  1.0000
  Cu  Cu6       1.0  0.20675  0.80751  0.61553  1.0000
  Cu  Cu7       1.0  0.87891  0.83653  0.51903  1.0000
  Cu  Cu8       1.0  0.62104  0.33659  0.98115  1.0000
  Cu  Cu9       1.0  0.12096  0.16350  0.48094  1.0000
  Cu  Cu10      1.0  0.37912  0.66343  0.01896  1.0000
  H   H1        1.0  0.79408  0.59162  0.60007  1.0000
  H   H2        1.0  0.70581  0.09166  0.89968  1.0000
  H   H3        1.0  0.20611  0.40822  0.40000  1.0000
  H   H4        1.0  0.29390  0.90818  0.10019  1.0000
  H   H5        1.0  0.91500  0.64992  0.67989  1.0000
  H   H6        1.0  0.58475  0.14977  0.82009  1.0000
  H   H7        1.0  0.08480  0.35026  0.32040  1.0000
  H   H8        1.0  0.41532  0.85040  0.17965  1.0000
  H   H9        1.0  0.38616  0.25146  0.42191  1.0000
  H   H10       1.0  0.11398  0.75169  0.07824  1.0000
  H   H11       1.0  0.61380  0.74845  0.57789  1.0000
  H   H12       1.0  0.88607  0.24824  0.92194  1.0000
  H   H13       1.0  0.51794  0.29919  0.40626  1.0000
  H   H14       1.0  0.98213  0.79925  0.09377  1.0000
  H   H15       1.0  0.48192  0.70090  0.59353  1.0000
  H   H16       1.0  0.01797  0.20085  0.90636  1.0000
  H   H17       1.0  0.67558  0.45711  0.75487  1.0000
  H   H18       1.0  0.82506  0.95700  0.74560  1.0000
  H   H19       1.0  0.32451  0.54298  0.24533  1.0000
  H   H20       1.0  0.17494  0.04309  0.25437  1.0000
  H   H21       1.0  0.27642  0.40288  0.61897  1.0000
  H   H22       1.0  0.22424  0.90291  0.88112  1.0000
  H   H23       1.0  0.72384  0.59694  0.38066  1.0000
  H   H24       1.0  0.77557  0.09693  0.11924  1.0000
  H   H25       1.0  0.96612  0.60444  0.06184  1.0000
  H   H26       1.0  0.53423  0.10454  0.43845  1.0000
  H   H27       1.0  0.03398  0.39556  0.93813  1.0000
  H   H28       1.0  0.46567  0.89552  0.56165  1.0000
  H   H29       1.0  0.09729  0.79446  0.34417  1.0000
  H   H30       1.0  0.40317  0.29445  0.15611  1.0000
  H   H31       1.0  0.90307  0.20537  0.65595  1.0000
  H   H32       1.0  0.59639  0.70536  0.84375  1.0000
  H   H33       1.0  0.04972  0.57378  0.45707  1.0000
  H   H34       1.0  0.45011  0.07400  0.04256  1.0000
  H   H35       1.0  0.95050  0.42646  0.54366  1.0000
  H   H36       1.0  0.54964  0.92625  0.95655  1.0000
  H   H37       1.0  0.08653  0.58510  0.32167  1.0000
  H   H38       1.0  0.41380  0.08513  0.17824  1.0000
  H   H39       1.0  0.91329  0.41453  0.67881  1.0000
  H   H40       1.0  0.58636  0.91444  0.82121  1.0000
  C   C1        1.0  0.90359  0.73798  0.32144  1.0000
  C   C2        1.0  0.59679  0.23790  0.17859  1.0000
  C   C3        1.0  0.09651  0.26204  0.67844  1.0000
  C   C4        1.0  0.40307  0.76213  0.82155  1.0000
  C   C5        1.0  0.24463  0.62067  0.46670  1.0000
  C   C6        1.0  0.25537  0.12077  0.03350  1.0000
  C   C7        1.0  0.75536  0.37952  0.53332  1.0000
  C   C8        1.0  0.74459  0.87937  0.96642  1.0000
  C   C9        1.0  0.57534  0.43397  0.74554  1.0000
  C   C10       1.0  0.92522  0.93386  0.75478  1.0000
  C   C11       1.0  0.42472  0.56615  0.25454  1.0000
  C   C12       1.0  0.07480  0.06625  0.24524  1.0000
  C   C13       1.0  0.37208  0.40711  0.67702  1.0000
  C   C14       1.0  0.12845  0.90715  0.82326  1.0000
  C   C15       1.0  0.62805  0.59291  0.32279  1.0000
  C   C16       1.0  0.87151  0.09285  0.17694  1.0000
  C   C17       1.0  0.82164  0.47394  0.00543  1.0000
  C   C18       1.0  0.67830  0.97388  0.49457  1.0000
  C   C19       1.0  0.17862  0.52593  0.99450  1.0000
  C   C20       1.0  0.32146  0.02599  0.50551  1.0000
  C   C21       1.0  0.95231  0.52380  0.01886  1.0000
  C   C22       1.0  0.54776  0.02381  0.48119  1.0000
  C   C23       1.0  0.04790  0.47623  0.98108  1.0000
  C   C24       1.0  0.45206  0.97623  0.51891  1.0000
  C   C25       1.0  0.04427  0.74167  0.39311  1.0000
  C   C26       1.0  0.45608  0.24174  0.10703  1.0000
  C   C27       1.0  0.95579  0.25832  0.60696  1.0000
  C   C28       1.0  0.54383  0.75821  0.89291  1.0000
  C   C29       1.0  0.10163  0.62470  0.40646  1.0000
  C   C30       1.0  0.39844  0.12478  0.09346  1.0000
  C   C31       1.0  0.89837  0.37526  0.59383  1.0000
  C   C32       1.0  0.60156  0.87511  0.90617  1.0000
  N   N1        1.0  0.40094  0.37042  0.78523  1.0000
  N   N2        1.0  0.09931  0.87060  0.71491  1.0000
  N   N3        1.0  0.59906  0.62956  0.21457  1.0000
  N   N4        1.0  0.90076  0.12934  0.28533  1.0000
  N   N5        1.0  0.47902  0.44722  0.64864  1.0000
  N   N6        1.0  0.02165  0.94709  0.85176  1.0000
  N   N7        1.0  0.52116  0.55289  0.35135  1.0000
  N   N8        1.0  0.97829  0.05302  0.14832  1.0000
  N   N9        1.0  0.53015  0.38766  0.82837  1.0000
  N   N10       1.0  0.97016  0.88772  0.67180  1.0000
  N   N11       1.0  0.46980  0.61239  0.17161  1.0000
  N   N12       1.0  0.02994  0.11230  0.32830  1.0000
  O   O1        1.0  0.86717  0.64207  0.59984  1.0000
  O   O2        1.0  0.63273  0.14196  0.90010  1.0000
  O   O3        1.0  0.13305  0.35780  0.40038  1.0000
  O   O4        1.0  0.36696  0.85789  0.09971  1.0000
  O   O5        1.0  0.80001  0.37312  0.96646  1.0000
  O   O6        1.0  0.69973  0.87306  0.53349  1.0000
  O   O7        1.0  0.20032  0.62671  0.03359  1.0000
  O   O8        1.0  0.30000  0.12673  0.46642  1.0000
  O   O9        1.0  0.87810  0.68222  0.22890  1.0000
  O   O10       1.0  0.62235  0.18192  0.27093  1.0000
  O   O11       1.0  0.12217  0.31788  0.77093  1.0000
  O   O12       1.0  0.37740  0.81813  0.72922  1.0000
  O   O13       1.0  0.81838  0.79113  0.35877  1.0000
  O   O14       1.0  0.68204  0.29114  0.14123  1.0000
  O   O15       1.0  0.18159  0.20874  0.64109  1.0000
  O   O16       1.0  0.31797  0.70872  0.85893  1.0000
  O   O17       1.0  0.30624  0.53539  0.44484  1.0000
  O   O18       1.0  0.19374  0.03551  0.05558  1.0000
  O   O19       1.0  0.69394  0.46498  0.55503  1.0000
  O   O20       1.0  0.80607  0.96483  0.94456  1.0000
  O   O21       1.0  0.29851  0.69788  0.53495  1.0000
  O   O22       1.0  0.20152  0.19791  0.96529  1.0000
  O   O23       1.0  0.70127  0.30239  0.46505  1.0000
  O   O24       1.0  0.79863  0.80228  0.03459  1.0000
  O   O25       1.0  0.04542  0.79005  0.50071  1.0000
  O   O26       1.0  0.45480  0.29034  0.99950  1.0000
  O   O27       1.0  0.95435  0.21001  0.49927  1.0000
  O   O28       1.0  0.54539  0.70971  0.00050  1.0000
  O   O29       1.0  0.73383  0.53101  0.03108  1.0000
  O   O30       1.0  0.76621  0.03098  0.46898  1.0000
  O   O31       1.0  0.26633  0.46885  0.96874  1.0000
  O   O32       1.0  0.23359  0.96895  0.53124  1.0000
  O   O33       1.0  0.42469  0.31551  0.39126  1.0000
  O   O34       1.0  0.07540  0.81567  0.10885  1.0000
  O   O35       1.0  0.57511  0.68437  0.60834  1.0000
  O   O36       1.0  0.92478  0.18420  0.89154  1.0000
