data_image0
_chemical_formula_structural       Zn5P4H26C20N4O24
_chemical_formula_sum              "Zn5 P4 H26 C20 N4 O24"
_cell_length_a       5.23967
_cell_length_b       11.4124
_cell_length_c       13.944
_cell_angle_alpha    91.6322
_cell_angle_beta     100.74
_cell_angle_gamma    95.9992

_space_group_name_H-M_alt    "P 1"
_space_group_IT_number       1

loop_
  _space_group_symop_operation_xyz
  'x, y, z'

loop_
  _atom_site_type_symbol
  _atom_site_label
  _atom_site_symmetry_multiplicity
  _atom_site_fract_x
  _atom_site_fract_y
  _atom_site_fract_z
  _atom_site_occupancy
  Zn  Zn1       1.0  0.55609  0.34870  0.30678  1.0000
  Zn  Zn2       1.0  0.44391  0.65130  0.69323  1.0000
  Zn  Zn3       1.0  0.71488  0.05308  0.37809  1.0000
  Zn  Zn4       1.0  0.28512  0.94693  0.62191  1.0000
  Zn  Zn5       1.0  0.00000  0.00000  0.00000  1.0000
  P   P1        1.0  0.30967  0.15945  0.46899  1.0000
  P   P2        1.0  0.69033  0.84055  0.53101  1.0000
  P   P3        1.0  0.56127  0.01120  0.14475  1.0000
  P   P4        1.0  0.43873  0.98881  0.85526  1.0000
  H   H1        1.0  0.83796  0.26508  0.51200  1.0000
  H   H2        1.0  0.16205  0.73493  0.48801  1.0000
  H   H3        1.0  0.92150  0.24398  0.21077  1.0000
  H   H4        1.0  0.07851  0.75602  0.78924  1.0000
  H   H5        1.0  0.25604  0.91434  0.29477  1.0000
  H   H6        1.0  0.74397  0.08566  0.70522  1.0000
  H   H7        1.0  0.00835  0.83968  0.34093  1.0000
  H   H8        1.0  0.99167  0.16031  0.65907  1.0000
  H   H9        1.0  0.95546  0.91208  0.23044  1.0000
  H   H10       1.0  0.04454  0.08792  0.76956  1.0000
  H   H11       1.0  0.37669  0.34971  0.55756  1.0000
  H   H12       1.0  0.62331  0.65030  0.44244  1.0000
  H   H13       1.0  0.63203  0.19705  0.06919  1.0000
  H   H14       1.0  0.36797  0.80295  0.93081  1.0000
  H   H15       1.0  0.24418  0.45626  0.12798  1.0000
  H   H16       1.0  0.75582  0.54373  0.87203  1.0000
  H   H17       1.0  0.29040  0.63646  0.03038  1.0000
  H   H18       1.0  0.70959  0.36353  0.96962  1.0000
  H   H19       1.0  0.70027  0.77769  0.07500  1.0000
  H   H20       1.0  0.29972  0.22230  0.92499  1.0000
  H   H21       1.0  0.97384  0.54670  0.30192  1.0000
  H   H22       1.0  0.02616  0.45330  0.69808  1.0000
  H   H23       1.0  0.26561  0.70936  0.27046  1.0000
  H   H24       1.0  0.73439  0.29064  0.72953  1.0000
  H   H25       1.0  0.19733  0.78551  0.15991  1.0000
  H   H26       1.0  0.80266  0.21449  0.84008  1.0000
  C   C1        1.0  0.20788  0.30119  0.50799  1.0000
  C   C2        1.0  0.79212  0.69882  0.49201  1.0000
  C   C3        1.0  0.12436  0.37914  0.42288  1.0000
  C   C4        1.0  0.87564  0.62086  0.57713  1.0000
  C   C5        1.0  0.56173  0.17455  0.13668  1.0000
  C   C6        1.0  0.43827  0.82545  0.86332  1.0000
  C   C7        1.0  0.28787  0.20910  0.13155  1.0000
  C   C8        1.0  0.71214  0.79090  0.86845  1.0000
  C   C9        1.0  0.41961  0.51933  0.14350  1.0000
  C   C10       1.0  0.58039  0.48066  0.85651  1.0000
  C   C11       1.0  0.44731  0.61908  0.08972  1.0000
  C   C12       1.0  0.55268  0.38091  0.91028  1.0000
  C   C13       1.0  0.67392  0.69785  0.11463  1.0000
  C   C14       1.0  0.32607  0.30214  0.88537  1.0000
  C   C15       1.0  0.86914  0.67320  0.19207  1.0000
  C   C16       1.0  0.13085  0.32679  0.80793  1.0000
  C   C17       1.0  0.82737  0.57040  0.24143  1.0000
  C   C18       1.0  0.17263  0.42959  0.75857  1.0000
  C   C19       1.0  0.11833  0.75405  0.22319  1.0000
  C   C20       1.0  0.88167  0.24595  0.77680  1.0000
  N   N1        1.0  0.60695  0.49541  0.21836  1.0000
  N   N2        1.0  0.39305  0.50459  0.78164  1.0000
  N   N3        1.0  0.07735  0.86197  0.27816  1.0000
  N   N4        1.0  0.92266  0.13802  0.72184  1.0000
  O   O1        1.0  0.55091  0.19174  0.41981  1.0000
  O   O2        1.0  0.44910  0.80827  0.58019  1.0000
  O   O3        1.0  0.08691  0.09226  0.39474  1.0000
  O   O4        1.0  0.91309  0.90774  0.60526  1.0000
  O   O5        1.0  0.38890  0.09639  0.56328  1.0000
  O   O6        1.0  0.61110  0.90361  0.43672  1.0000
  O   O7        1.0  0.00332  0.27326  0.56099  1.0000
  O   O8        1.0  0.99669  0.72674  0.43901  1.0000
  O   O9        1.0  0.29209  0.42146  0.37461  1.0000
  O   O10       1.0  0.70791  0.57854  0.62539  1.0000
  O   O11       1.0  0.88629  0.39827  0.40715  1.0000
  O   O12       1.0  0.11371  0.60173  0.59285  1.0000
  O   O13       1.0  0.53007  0.98813  0.25107  1.0000
  O   O14       1.0  0.46994  0.01187  0.74893  1.0000
  O   O15       1.0  0.33392  0.94574  0.07240  1.0000
  O   O16       1.0  0.66608  0.05427  0.92760  1.0000
  O   O17       1.0  0.83093  0.98182  0.13007  1.0000
  O   O18       1.0  0.16907  0.01818  0.86993  1.0000
  O   O19       1.0  0.73513  0.23093  0.22133  1.0000
  O   O20       1.0  0.26487  0.76907  0.77867  1.0000
  O   O21       1.0  0.23878  0.26509  0.20639  1.0000
  O   O22       1.0  0.76122  0.73491  0.79361  1.0000
  O   O23       1.0  0.11746  0.18108  0.05579  1.0000
  O   O24       1.0  0.88254  0.81893  0.94422  1.0000
