data_image0
_chemical_formula_structural       Ba2P2H6C4O12
_chemical_formula_sum              "Ba2 P2 H6 C4 O12"
_cell_length_a       4.75707
_cell_length_b       7.41528
_cell_length_c       8.45614
_cell_angle_alpha    83.4599
_cell_angle_beta     86.4071
_cell_angle_gamma    78.8426

_space_group_name_H-M_alt    "P 1"
_space_group_IT_number       1

loop_
  _space_group_symop_operation_xyz
  'x, y, z'

loop_
  _atom_site_type_symbol
  _atom_site_label
  _atom_site_symmetry_multiplicity
  _atom_site_fract_x
  _atom_site_fract_y
  _atom_site_fract_z
  _atom_site_occupancy
  Ba  Ba1       1.0  0.50519  0.63626  0.72929  1.0000
  Ba  Ba2       1.0  0.49481  0.36374  0.27071  1.0000
  P   P1        1.0  0.01232  0.26865  0.88263  1.0000
  P   P2        1.0  0.98769  0.73135  0.11737  1.0000
  H   H1        1.0  0.93078  0.99860  0.77284  1.0000
  H   H2        1.0  0.06922  0.00140  0.22716  1.0000
  H   H3        1.0  0.44895  0.19425  0.97484  1.0000
  H   H4        1.0  0.55106  0.80575  0.02516  1.0000
  H   H5        1.0  0.45457  0.11663  0.65624  1.0000
  H   H6        1.0  0.54543  0.88336  0.34376  1.0000
  C   C1        1.0  0.05297  0.10644  0.72718  1.0000
  C   C2        1.0  0.94703  0.89356  0.27282  1.0000
  C   C3        1.0  0.91402  0.21108  0.57686  1.0000
  C   C4        1.0  0.08596  0.78892  0.42315  1.0000
  O   O1        1.0  0.71675  0.28183  0.96650  1.0000
  O   O2        1.0  0.28325  0.71817  0.03350  1.0000
  O   O3        1.0  0.06901  0.45269  0.80231  1.0000
  O   O4        1.0  0.93100  0.54731  0.19769  1.0000
  O   O5        1.0  0.24472  0.17553  0.00922  1.0000
  O   O6        1.0  0.75528  0.82446  0.99078  1.0000
  O   O7        1.0  0.34255  0.02010  0.70103  1.0000
  O   O8        1.0  0.65745  0.97991  0.29897  1.0000
  O   O9        1.0  0.05863  0.22368  0.44822  1.0000
  O   O10       1.0  0.94136  0.77633  0.55177  1.0000
  O   O11       1.0  0.64584  0.28526  0.59325  1.0000
  O   O12       1.0  0.35414  0.71474  0.40675  1.0000
