data_image0
_chemical_formula_structural       Ba2P2H6C4O12
_chemical_formula_sum              "Ba2 P2 H6 C4 O12"
_cell_length_a       4.76242
_cell_length_b       7.42779
_cell_length_c       8.44641
_cell_angle_alpha    83.1407
_cell_angle_beta     86.3771
_cell_angle_gamma    78.7245

_space_group_name_H-M_alt    "P 1"
_space_group_IT_number       1

loop_
  _space_group_symop_operation_xyz
  'x, y, z'

loop_
  _atom_site_type_symbol
  _atom_site_label
  _atom_site_symmetry_multiplicity
  _atom_site_fract_x
  _atom_site_fract_y
  _atom_site_fract_z
  _atom_site_occupancy
  Ba  Ba1       1.0  0.49353  0.36433  0.27184  1.0000
  Ba  Ba2       1.0  0.50647  0.63567  0.72816  1.0000
  P   P1        1.0  0.98423  0.73071  0.11663  1.0000
  P   P2        1.0  0.01577  0.26929  0.88337  1.0000
  H   H1        1.0  0.54769  0.80467  0.02339  1.0000
  H   H2        1.0  0.45231  0.19533  0.97661  1.0000
  H   H3        1.0  0.54164  0.88507  0.34159  1.0000
  H   H4        1.0  0.45836  0.11494  0.65841  1.0000
  H   H5        1.0  0.06628  0.00093  0.22423  1.0000
  H   H6        1.0  0.93372  0.99907  0.77577  1.0000
  C   C1        1.0  0.94357  0.89374  0.27070  1.0000
  C   C2        1.0  0.05643  0.10626  0.72930  1.0000
  C   C3        1.0  0.08289  0.78989  0.42196  1.0000
  C   C4        1.0  0.91711  0.21011  0.57804  1.0000
  O   O1        1.0  0.75194  0.82238  0.98899  1.0000
  O   O2        1.0  0.24806  0.17762  0.01101  1.0000
  O   O3        1.0  0.92862  0.54713  0.19915  1.0000
  O   O4        1.0  0.07137  0.45287  0.80085  1.0000
  O   O5        1.0  0.27931  0.71755  0.03250  1.0000
  O   O6        1.0  0.72069  0.28245  0.96750  1.0000
  O   O7        1.0  0.65436  0.98099  0.29652  1.0000
  O   O8        1.0  0.34564  0.01901  0.70348  1.0000
  O   O9        1.0  0.35104  0.71559  0.40598  1.0000
  O   O10       1.0  0.64896  0.28441  0.59402  1.0000
  O   O11       1.0  0.93856  0.77831  0.55098  1.0000
  O   O12       1.0  0.06144  0.22169  0.44902  1.0000
