data_image0
_chemical_formula_structural       H24Pb2C40O8
_chemical_formula_sum              "H24 Pb2 C40 O8"
_cell_length_a       5.31074
_cell_length_b       7.67515
_cell_length_c       18.4662
_cell_angle_alpha    97.7891
_cell_angle_beta     98.3376
_cell_angle_gamma    89.9939

_space_group_name_H-M_alt    "P 1"
_space_group_IT_number       1

loop_
  _space_group_symop_operation_xyz
  'x, y, z'

loop_
  _atom_site_type_symbol
  _atom_site_label
  _atom_site_symmetry_multiplicity
  _atom_site_fract_x
  _atom_site_fract_y
  _atom_site_fract_z
  _atom_site_occupancy
  H   H1        1.0  0.02844  0.47865  0.68291  1.0000
  H   H2        1.0  0.84482  0.02129  0.31686  1.0000
  H   H3        1.0  0.97154  0.52131  0.31710  1.0000
  H   H4        1.0  0.15515  0.97870  0.68313  1.0000
  H   H5        1.0  0.75278  0.75025  0.72715  1.0000
  H   H6        1.0  0.52546  0.75003  0.27312  1.0000
  H   H7        1.0  0.24720  0.24972  0.27282  1.0000
  H   H8        1.0  0.47457  0.25000  0.72689  1.0000
  H   H9        1.0  0.79062  0.70974  0.85732  1.0000
  H   H10       1.0  0.43342  0.79063  0.14297  1.0000
  H   H11       1.0  0.20941  0.29028  0.14266  1.0000
  H   H12       1.0  0.56667  0.20943  0.85704  1.0000
  H   H13       1.0  0.10725  0.39159  0.91713  1.0000
  H   H14       1.0  0.68970  0.10847  0.08257  1.0000
  H   H15       1.0  0.89278  0.60845  0.08288  1.0000
  H   H16       1.0  0.31038  0.89157  0.91744  1.0000
  H   H17       1.0  0.83473  0.66671  0.95726  1.0000
  H   H18       1.0  0.37747  0.83335  0.04304  1.0000
  H   H19       1.0  0.16530  0.33333  0.04274  1.0000
  H   H20       1.0  0.62262  0.16670  0.95697  1.0000
  H   H21       1.0  0.06210  0.43418  0.81270  1.0000
  H   H22       1.0  0.74888  0.06588  0.18707  1.0000
  H   H23       1.0  0.93793  0.56582  0.18732  1.0000
  H   H24       1.0  0.25115  0.93413  0.81292  1.0000
  Pb  Pb1       1.0  0.17902  0.25000  0.50007  1.0000
  Pb  Pb2       1.0  0.82089  0.74997  0.49992  1.0000
  C   C1        1.0  0.43177  0.56671  0.84669  1.0000
  C   C2        1.0  0.08477  0.93343  0.15333  1.0000
  C   C3        1.0  0.56826  0.43331  0.15332  1.0000
  C   C4        1.0  0.91528  0.06658  0.84667  1.0000
  C   C5        1.0  0.46499  0.53422  0.92466  1.0000
  C   C6        1.0  0.04012  0.96582  0.07535  1.0000
  C   C7        1.0  0.53505  0.46582  0.07534  1.0000
  C   C8        1.0  0.95995  0.03419  0.92465  1.0000
  C   C9        1.0  0.38500  0.63369  0.61581  1.0000
  C   C10       1.0  0.26827  0.86580  0.38417  1.0000
  C   C11       1.0  0.61491  0.36625  0.38418  1.0000
  C   C12       1.0  0.73162  0.13417  0.61583  1.0000
  C   C13       1.0  0.19584  0.52882  0.72147  1.0000
  C   C14       1.0  0.97378  0.97121  0.27840  1.0000
  C   C15       1.0  0.80415  0.47115  0.27853  1.0000
  C   C16       1.0  0.02621  0.02879  0.72159  1.0000
  C   C17       1.0  0.60184  0.68157  0.74646  1.0000
  C   C18       1.0  0.35518  0.81873  0.25370  1.0000
  C   C19       1.0  0.39815  0.31841  0.25352  1.0000
  C   C20       1.0  0.64485  0.18130  0.74631  1.0000
  C   C21       1.0  0.62157  0.65791  0.82017  1.0000
  C   C22       1.0  0.30133  0.84239  0.17999  1.0000
  C   C23       1.0  0.37845  0.34209  0.17982  1.0000
  C   C24       1.0  0.69872  0.15765  0.82002  1.0000
  C   C25       1.0  0.28156  0.44056  0.95262  1.0000
  C   C26       1.0  0.82869  0.05947  0.04723  1.0000
  C   C27       1.0  0.71848  0.55947  0.04739  1.0000
  C   C28       1.0  0.17138  0.94056  0.95278  1.0000
  C   C29       1.0  0.68456  0.59274  0.97455  1.0000
  C   C30       1.0  0.20995  0.90726  0.02561  1.0000
  C   C31       1.0  0.31548  0.40729  0.02546  1.0000
  C   C32       1.0  0.79012  0.09277  0.97439  1.0000
  C   C33       1.0  0.21605  0.50501  0.79554  1.0000
  C   C34       1.0  0.92006  0.99508  0.20433  1.0000
  C   C35       1.0  0.78397  0.49499  0.20447  1.0000
  C   C36       1.0  0.07996  0.00493  0.79567  1.0000
  C   C37       1.0  0.39083  0.61515  0.69569  1.0000
  C   C38       1.0  0.19461  0.88488  0.30432  1.0000
  C   C39       1.0  0.60914  0.38481  0.30430  1.0000
  C   C40       1.0  0.80537  0.11511  0.69568  1.0000
  O   O1        1.0  0.19618  0.56470  0.56897  1.0000
  O   O2        1.0  0.12681  0.93526  0.43093  1.0000
  O   O3        1.0  0.80371  0.43522  0.43103  1.0000
  O   O4        1.0  0.87304  0.06471  0.56905  1.0000
  O   O5        1.0  0.56868  0.71812  0.59896  1.0000
  O   O6        1.0  0.46796  0.78030  0.40107  1.0000
  O   O7        1.0  0.43119  0.28182  0.40102  1.0000
  O   O8        1.0  0.53190  0.21963  0.59894  1.0000
