data_image0
_chemical_formula_structural       Cu6H44C52S4N4O36
_chemical_formula_sum              "Cu6 H44 C52 S4 N4 O36"
_cell_length_a       11.0061
_cell_length_b       11.7033
_cell_length_c       12.1679
_cell_angle_alpha    89.9965
_cell_angle_beta     108.884
_cell_angle_gamma    89.9968

_space_group_name_H-M_alt    "P 1"
_space_group_IT_number       1

loop_
  _space_group_symop_operation_xyz
  'x, y, z'

loop_
  _atom_site_type_symbol
  _atom_site_label
  _atom_site_symmetry_multiplicity
  _atom_site_fract_x
  _atom_site_fract_y
  _atom_site_fract_z
  _atom_site_occupancy
  Cu  Cu1       1.0  0.68241  0.86343  0.49751  1.0000
  Cu  Cu2       1.0  0.31758  0.36352  0.00249  1.0000
  Cu  Cu3       1.0  0.31757  0.13650  0.50248  1.0000
  Cu  Cu4       1.0  0.68242  0.63652  0.99749  1.0000
  Cu  Cu5       1.0  0.49999  0.00002  0.00000  1.0000
  Cu  Cu6       1.0  0.50001  0.49994  0.50001  1.0000
  H   H1        1.0  0.62419  0.72575  0.32411  1.0000
  H   H2        1.0  0.37576  0.22573  0.17582  1.0000
  H   H3        1.0  0.37583  0.27422  0.67583  1.0000
  H   H4        1.0  0.62418  0.77421  0.82410  1.0000
  H   H5        1.0  0.76647  0.75868  0.33620  1.0000
  H   H6        1.0  0.23353  0.25875  0.16378  1.0000
  H   H7        1.0  0.23357  0.24123  0.66373  1.0000
  H   H8        1.0  0.76648  0.74132  0.83618  1.0000
  H   H9        1.0  0.59811  0.90873  0.66076  1.0000
  H   H10       1.0  0.40198  0.40861  0.83928  1.0000
  H   H11       1.0  0.40197  0.09142  0.33940  1.0000
  H   H12       1.0  0.59809  0.59141  0.16073  1.0000
  H   H13       1.0  0.60233  0.02723  0.60045  1.0000
  H   H14       1.0  0.39773  0.52713  0.89955  1.0000
  H   H15       1.0  0.39770  0.97287  0.39967  1.0000
  H   H16       1.0  0.60234  0.47290  0.10047  1.0000
  H   H17       1.0  0.01349  0.69298  0.86700  1.0000
  H   H18       1.0  0.98656  0.19309  0.63296  1.0000
  H   H19       1.0  0.98652  0.30693  0.13300  1.0000
  H   H20       1.0  0.01344  0.80700  0.36696  1.0000
  H   H21       1.0  0.10562  0.91206  0.62099  1.0000
  H   H22       1.0  0.89428  0.41198  0.87904  1.0000
  H   H23       1.0  0.89428  0.08799  0.37905  1.0000
  H   H24       1.0  0.10568  0.58793  0.12100  1.0000
  H   H25       1.0  0.24574  0.65894  0.96776  1.0000
  H   H26       1.0  0.75434  0.15902  0.53218  1.0000
  H   H27       1.0  0.75428  0.34097  0.03217  1.0000
  H   H28       1.0  0.24566  0.84109  0.46773  1.0000
  H   H29       1.0  0.26479  0.09667  0.85747  1.0000
  H   H30       1.0  0.73525  0.59672  0.64257  1.0000
  H   H31       1.0  0.73519  0.90334  0.14255  1.0000
  H   H32       1.0  0.26489  0.40321  0.35757  1.0000
  H   H33       1.0  0.36620  0.89895  0.15605  1.0000
  H   H34       1.0  0.63386  0.39893  0.34405  1.0000
  H   H35       1.0  0.63380  0.10106  0.84396  1.0000
  H   H36       1.0  0.36622  0.60106  0.65606  1.0000
  H   H37       1.0  0.14427  0.90034  0.16258  1.0000
  H   H38       1.0  0.85575  0.40037  0.33745  1.0000
  H   H39       1.0  0.85572  0.09964  0.83743  1.0000
  H   H40       1.0  0.14428  0.59972  0.66253  1.0000
  H   H41       1.0  0.03730  0.09776  0.84395  1.0000
  H   H42       1.0  0.96273  0.59781  0.65605  1.0000
  H   H43       1.0  0.96268  0.90223  0.15606  1.0000
  H   H44       1.0  0.03739  0.40223  0.34397  1.0000
  C   C1        1.0  0.90192  0.81501  0.67641  1.0000
  C   C2        1.0  0.09809  0.31498  0.82361  1.0000
  C   C3        1.0  0.09804  0.18502  0.32369  1.0000
  C   C4        1.0  0.90192  0.68500  0.17636  1.0000
  C   C5        1.0  0.04421  0.80445  0.73783  1.0000
  C   C6        1.0  0.95578  0.30446  0.76220  1.0000
  C   C7        1.0  0.95576  0.19555  0.26222  1.0000
  C   C8        1.0  0.04421  0.69555  0.23780  1.0000
  C   C9        1.0  0.08510  0.73433  0.83617  1.0000
  C   C10       1.0  0.91494  0.23439  0.66382  1.0000
  C   C11       1.0  0.91489  0.26561  0.16383  1.0000
  C   C12       1.0  0.08506  0.76566  0.33613  1.0000
  C   C13       1.0  0.13593  0.85790  0.69789  1.0000
  C   C14       1.0  0.86402  0.35785  0.80213  1.0000
  C   C15       1.0  0.86400  0.14213  0.30213  1.0000
  C   C16       1.0  0.13596  0.64210  0.19789  1.0000
  C   C17       1.0  0.21506  0.71590  0.89300  1.0000
  C   C18       1.0  0.78499  0.21593  0.60696  1.0000
  C   C19       1.0  0.78493  0.28404  0.10696  1.0000
  C   C20       1.0  0.21501  0.78413  0.39297  1.0000
  C   C21       1.0  0.26671  0.84272  0.75760  1.0000
  C   C22       1.0  0.73325  0.34264  0.74240  1.0000
  C   C23       1.0  0.73323  0.15731  0.24240  1.0000
  C   C24       1.0  0.26672  0.65731  0.25759  1.0000
  C   C25       1.0  0.30745  0.77086  0.85547  1.0000
  C   C26       1.0  0.69258  0.27083  0.64450  1.0000
  C   C27       1.0  0.69252  0.22913  0.14450  1.0000
  C   C28       1.0  0.30741  0.72920  0.35543  1.0000
  C   C29       1.0  0.44567  0.75097  0.92554  1.0000
  C   C30       1.0  0.55444  0.25085  0.57442  1.0000
  C   C31       1.0  0.55432  0.24905  0.07445  1.0000
  C   C32       1.0  0.44561  0.74909  0.42549  1.0000
  C   C33       1.0  0.23311  0.05204  0.92160  1.0000
  C   C34       1.0  0.76692  0.55208  0.57844  1.0000
  C   C35       1.0  0.76687  0.94796  0.07841  1.0000
  C   C36       1.0  0.23320  0.44787  0.42167  1.0000
  C   C37       1.0  0.28956  0.94266  0.08953  1.0000
  C   C38       1.0  0.71049  0.44267  0.41054  1.0000
  C   C39       1.0  0.71043  0.05734  0.91048  1.0000
  C   C40       1.0  0.28961  0.55731  0.58954  1.0000
  C   C41       1.0  0.16415  0.94373  0.09122  1.0000
  C   C42       1.0  0.83589  0.44376  0.40882  1.0000
  C   C43       1.0  0.83585  0.05626  0.90879  1.0000
  C   C44       1.0  0.16418  0.55629  0.59120  1.0000
  C   C45       1.0  0.10563  0.05343  0.91614  1.0000
  C   C46       1.0  0.89440  0.55346  0.58387  1.0000
  C   C47       1.0  0.89435  0.94657  0.08387  1.0000
  C   C48       1.0  0.10571  0.44656  0.41617  1.0000
  C   C49       1.0  0.06772  0.99913  0.00211  1.0000
  C   C50       1.0  0.93231  0.49917  0.49789  1.0000
  C   C51       1.0  0.93227  0.00086  0.99789  1.0000
  C   C52       1.0  0.06777  0.50089  0.50211  1.0000
  S   S1        1.0  0.38097  0.92186  0.71206  1.0000
  S   S2        1.0  0.61891  0.42176  0.78786  1.0000
  S   S3        1.0  0.61895  0.07818  0.28793  1.0000
  S   S4        1.0  0.38103  0.57817  0.21209  1.0000
  N   N1        1.0  0.32321  0.99607  0.00575  1.0000
  N   N2        1.0  0.67682  0.49609  0.49431  1.0000
  N   N3        1.0  0.67678  0.00394  0.99426  1.0000
  N   N4        1.0  0.32329  0.50386  0.50580  1.0000
  O   O1        1.0  0.70586  0.75150  0.38108  1.0000
  O   O2        1.0  0.29408  0.25150  0.11887  1.0000
  O   O3        1.0  0.29415  0.24852  0.61887  1.0000
  O   O4        1.0  0.70586  0.74844  0.88106  1.0000
  O   O5        1.0  0.65150  0.95507  0.62542  1.0000
  O   O6        1.0  0.34853  0.45500  0.87452  1.0000
  O   O7        1.0  0.34855  0.04502  0.37465  1.0000
  O   O8        1.0  0.65155  0.54502  0.12550  1.0000
  O   O9        1.0  0.86824  0.86598  0.57687  1.0000
  O   O10       1.0  0.13174  0.36607  0.92310  1.0000
  O   O11       1.0  0.13169  0.13391  0.42316  1.0000
  O   O12       1.0  0.86828  0.63400  0.07683  1.0000
  O   O13       1.0  0.82529  0.77067  0.72136  1.0000
  O   O14       1.0  0.17470  0.27052  0.77872  1.0000
  O   O15       1.0  0.17467  0.22950  0.27881  1.0000
  O   O16       1.0  0.82527  0.72934  0.22129  1.0000
  O   O17       1.0  0.49042  0.65029  0.91988  1.0000
  O   O18       1.0  0.50954  0.15028  0.58021  1.0000
  O   O19       1.0  0.50956  0.34972  0.08015  1.0000
  O   O20       1.0  0.49041  0.84977  0.41983  1.0000
  O   O21       1.0  0.51362  0.82711  0.98983  1.0000
  O   O22       1.0  0.48648  0.32690  0.50996  1.0000
  O   O23       1.0  0.48635  0.17293  0.01013  1.0000
  O   O24       1.0  0.51359  0.67300  0.48986  1.0000
  O   O25       1.0  0.42359  0.01702  0.79382  1.0000
  O   O26       1.0  0.57634  0.51693  0.70606  1.0000
  O   O27       1.0  0.57636  0.98301  0.20616  1.0000
  O   O28       1.0  0.42370  0.48305  0.29392  1.0000
  O   O29       1.0  0.48561  0.84006  0.71649  1.0000
  O   O30       1.0  0.51427  0.33997  0.78336  1.0000
  O   O31       1.0  0.51429  0.15997  0.28347  1.0000
  O   O32       1.0  0.48561  0.66000  0.21647  1.0000
  O   O33       1.0  0.31250  0.96064  0.59356  1.0000
  O   O34       1.0  0.68724  0.46058  0.90637  1.0000
  O   O35       1.0  0.68739  0.03938  0.40643  1.0000
  O   O36       1.0  0.31259  0.53930  0.09362  1.0000
