data_image0
_chemical_formula_structural       Ag2H30C32N16O6
_chemical_formula_sum              "Ag2 H30 C32 N16 O6"
_cell_length_a       9.61208
_cell_length_b       9.92975
_cell_length_c       11.3268
_cell_angle_alpha    103.792
_cell_angle_beta     98.602
_cell_angle_gamma    116.234

_space_group_name_H-M_alt    "P 1"
_space_group_IT_number       1

loop_
  _space_group_symop_operation_xyz
  'x, y, z'

loop_
  _atom_site_type_symbol
  _atom_site_label
  _atom_site_symmetry_multiplicity
  _atom_site_fract_x
  _atom_site_fract_y
  _atom_site_fract_z
  _atom_site_occupancy
  Ag  Ag1       1.0  0.88019  0.62442  0.72703  1.0000
  Ag  Ag2       1.0  0.11982  0.37558  0.27296  1.0000
  H   H1        1.0  0.61315  0.65422  0.54019  1.0000
  H   H2        1.0  0.38685  0.34578  0.45980  1.0000
  H   H3        1.0  0.47802  0.77515  0.43198  1.0000
  H   H4        1.0  0.52198  0.22485  0.56802  1.0000
  H   H5        1.0  0.62830  0.05713  0.44702  1.0000
  H   H6        1.0  0.37170  0.94287  0.55298  1.0000
  H   H7        1.0  0.92097  0.23340  0.56916  1.0000
  H   H8        1.0  0.07903  0.76660  0.43085  1.0000
  H   H9        1.0  0.21983  0.31421  0.67674  1.0000
  H   H10       1.0  0.78016  0.68579  0.32326  1.0000
  H   H11       1.0  0.33235  0.24603  0.75800  1.0000
  H   H12       1.0  0.66765  0.75397  0.24200  1.0000
  H   H13       1.0  0.22077  0.28596  0.94226  1.0000
  H   H14       1.0  0.77923  0.71404  0.05774  1.0000
  H   H15       1.0  0.33051  0.46784  0.90971  1.0000
  H   H16       1.0  0.66949  0.53216  0.09029  1.0000
  H   H17       1.0  0.61324  0.34847  0.83598  1.0000
  H   H18       1.0  0.38676  0.65153  0.16401  1.0000
  H   H19       1.0  0.50504  0.12144  0.91886  1.0000
  H   H20       1.0  0.49496  0.87856  0.08114  1.0000
  H   H21       1.0  0.66915  0.99562  0.97166  1.0000
  H   H22       1.0  0.33085  0.00438  0.02834  1.0000
  H   H23       1.0  0.94909  0.10002  0.95636  1.0000
  H   H24       1.0  0.05091  0.89997  0.04364  1.0000
  H   H25       1.0  0.55525  0.14576  0.25823  1.0000
  H   H26       1.0  0.44476  0.85424  0.74177  1.0000
  H   H27       1.0  0.75832  0.17995  0.28187  1.0000
  H   H28       1.0  0.24168  0.82004  0.71812  1.0000
  H   H29       1.0  0.69512  0.28940  0.20367  1.0000
  H   H30       1.0  0.30488  0.71060  0.79633  1.0000
  C   C1        1.0  0.84391  0.87699  0.61398  1.0000
  C   C2        1.0  0.15609  0.12301  0.38602  1.0000
  C   C3        1.0  0.67884  0.77853  0.54621  1.0000
  C   C4        1.0  0.32116  0.22147  0.45379  1.0000
  C   C5        1.0  0.60543  0.84779  0.48736  1.0000
  C   C6        1.0  0.39457  0.15221  0.51264  1.0000
  C   C7        1.0  0.69238  0.00979  0.49590  1.0000
  C   C8        1.0  0.30762  0.99022  0.50410  1.0000
  C   C9        1.0  0.85540  0.10904  0.56337  1.0000
  C   C10       1.0  0.14460  0.89097  0.43663  1.0000
  C   C11       1.0  0.92979  0.03868  0.62244  1.0000
  C   C12       1.0  0.07021  0.96131  0.37756  1.0000
  C   C13       1.0  0.22180  0.25450  0.74631  1.0000
  C   C14       1.0  0.77820  0.74550  0.25369  1.0000
  C   C15       1.0  0.22193  0.34859  0.87441  1.0000
  C   C16       1.0  0.77807  0.65141  0.12559  1.0000
  C   C17       1.0  0.84212  0.35062  0.85096  1.0000
  C   C18       1.0  0.15787  0.64938  0.14904  1.0000
  C   C19       1.0  0.68414  0.29368  0.86174  1.0000
  C   C20       1.0  0.31586  0.70632  0.13826  1.0000
  C   C21       1.0  0.62595  0.16704  0.90678  1.0000
  C   C22       1.0  0.37405  0.83296  0.09322  1.0000
  C   C23       1.0  0.72048  0.09758  0.93951  1.0000
  C   C24       1.0  0.27951  0.90241  0.06048  1.0000
  C   C25       1.0  0.87735  0.15364  0.93049  1.0000
  C   C26       1.0  0.12265  0.84636  0.06951  1.0000
  C   C27       1.0  0.93644  0.28246  0.88594  1.0000
  C   C28       1.0  0.06356  0.71754  0.11406  1.0000
  C   C29       1.0  0.68275  0.23664  0.27901  1.0000
  C   C30       1.0  0.31726  0.76336  0.72099  1.0000
  C   C31       1.0  0.73182  0.36068  0.39902  1.0000
  C   C32       1.0  0.26818  0.63931  0.60098  1.0000
  N   N1        1.0  0.95119  0.84613  0.68148  1.0000
  N   N2        1.0  0.04881  0.15388  0.31852  1.0000
  N   N3        1.0  0.09355  0.97581  0.73048  1.0000
  N   N4        1.0  0.90645  0.02419  0.26952  1.0000
  N   N5        1.0  0.08378  0.09316  0.69549  1.0000
  N   N6        1.0  0.91622  0.90685  0.30451  1.0000
  N   N7        1.0  0.93475  0.47098  0.80919  1.0000
  N   N8        1.0  0.06525  0.52902  0.19081  1.0000
  N   N9        1.0  0.07653  0.48026  0.81640  1.0000
  N   N10       1.0  0.92347  0.51974  0.18360  1.0000
  N   N11       1.0  0.08023  0.36872  0.86297  1.0000
  N   N12       1.0  0.91977  0.63128  0.13703  1.0000
  N   N13       1.0  0.62130  0.66319  0.84710  1.0000
  N   N14       1.0  0.37870  0.33681  0.15290  1.0000
  N   N15       1.0  0.76817  0.45991  0.49563  1.0000
  N   N16       1.0  0.23184  0.54009  0.50437  1.0000
  O   O1        1.0  0.77173  0.76726  0.88249  1.0000
  O   O2        1.0  0.22827  0.23274  0.11751  1.0000
  O   O3        1.0  0.56539  0.53826  0.75011  1.0000
  O   O4        1.0  0.43461  0.46175  0.24989  1.0000
  O   O5        1.0  0.53022  0.68440  0.91033  1.0000
  O   O6        1.0  0.46978  0.31560  0.08967  1.0000
