data_image0
_chemical_formula_structural       Cu2H24C28N12Cl4
_chemical_formula_sum              "Cu2 H24 C28 N12 Cl4"
_cell_length_a       7.60694
_cell_length_b       9.50977
_cell_length_c       10.9303
_cell_angle_alpha    79.0346
_cell_angle_beta     86.7534
_cell_angle_gamma    79.9212

_space_group_name_H-M_alt    "P 1"
_space_group_IT_number       1

loop_
  _space_group_symop_operation_xyz
  'x, y, z'

loop_
  _atom_site_type_symbol
  _atom_site_label
  _atom_site_symmetry_multiplicity
  _atom_site_fract_x
  _atom_site_fract_y
  _atom_site_fract_z
  _atom_site_occupancy
  Cu  Cu1       1.0  0.19622  0.25733  0.22388  1.0000
  Cu  Cu2       1.0  0.80376  0.74267  0.77613  1.0000
  H   H1        1.0  0.87294  0.08011  0.34425  1.0000
  H   H2        1.0  0.12710  0.91991  0.65571  1.0000
  H   H3        1.0  0.71267  0.86867  0.38725  1.0000
  H   H4        1.0  0.28734  0.13135  0.61273  1.0000
  H   H5        1.0  0.78488  0.66865  0.26520  1.0000
  H   H6        1.0  0.21511  0.33135  0.73482  1.0000
  H   H7        1.0  0.01680  0.67180  0.09734  1.0000
  H   H8        1.0  0.98317  0.32818  0.90268  1.0000
  H   H9        1.0  0.39892  0.89203  0.90385  1.0000
  H   H10       1.0  0.60106  0.10794  0.09612  1.0000
  H   H11       1.0  0.25722  0.75792  0.93891  1.0000
  H   H12       1.0  0.74281  0.24204  0.06107  1.0000
  H   H13       1.0  0.57621  0.65658  0.99997  1.0000
  H   H14       1.0  0.42384  0.34346  0.00003  1.0000
  H   H15       1.0  0.56574  0.78510  0.10088  1.0000
  H   H16       1.0  0.43425  0.21496  0.89911  1.0000
  H   H17       1.0  0.44838  0.83445  0.31333  1.0000
  H   H18       1.0  0.55162  0.16557  0.68670  1.0000
  H   H19       1.0  0.34447  0.78774  0.53271  1.0000
  H   H20       1.0  0.65552  0.21226  0.46731  1.0000
  H   H21       1.0  0.20082  0.57572  0.61970  1.0000
  H   H22       1.0  0.79918  0.42428  0.38028  1.0000
  H   H23       1.0  0.16829  0.39071  0.48952  1.0000
  H   H24       1.0  0.83175  0.60928  0.51045  1.0000
  C   C1        1.0  0.03956  0.99166  0.19912  1.0000
  C   C2        1.0  0.96044  0.00833  0.80085  1.0000
  C   C3        1.0  0.90453  0.99192  0.29198  1.0000
  C   C4        1.0  0.09547  0.00810  0.70801  1.0000
  C   C5        1.0  0.81578  0.87377  0.31389  1.0000
  C   C6        1.0  0.18422  0.12623  0.68610  1.0000
  C   C7        1.0  0.85680  0.76030  0.24413  1.0000
  C   C8        1.0  0.14319  0.23970  0.75587  1.0000
  C   C9        1.0  0.98769  0.75966  0.15044  1.0000
  C   C10       1.0  0.01229  0.24031  0.84956  1.0000
  C   C11       1.0  0.08041  0.87736  0.13080  1.0000
  C   C12       1.0  0.91960  0.12263  0.86917  1.0000
  C   C13       1.0  0.33938  0.82084  0.97965  1.0000
  C   C14       1.0  0.66065  0.17915  0.02032  1.0000
  C   C15       1.0  0.48751  0.72127  0.05867  1.0000
  C   C16       1.0  0.51249  0.27875  0.94131  1.0000
  C   C17       1.0  0.37556  0.63197  0.27989  1.0000
  C   C18       1.0  0.62449  0.36804  0.72010  1.0000
  C   C19       1.0  0.39295  0.73649  0.35089  1.0000
  C   C20       1.0  0.60708  0.26352  0.64913  1.0000
  C   C21       1.0  0.32974  0.71088  0.47319  1.0000
  C   C22       1.0  0.67027  0.28912  0.52682  1.0000
  C   C23       1.0  0.25011  0.58756  0.52320  1.0000
  C   C24       1.0  0.74990  0.41244  0.47682  1.0000
  C   C25       1.0  0.23110  0.48491  0.45246  1.0000
  C   C26       1.0  0.76893  0.51508  0.54754  1.0000
  C   C27       1.0  0.29534  0.50910  0.32882  1.0000
  C   C28       1.0  0.70472  0.49090  0.67118  1.0000
  N   N1        1.0  0.15906  0.08479  0.15877  1.0000
  N   N2        1.0  0.84095  0.91520  0.84116  1.0000
  N   N3        1.0  0.26966  0.03536  0.07442  1.0000
  N   N4        1.0  0.73031  0.96466  0.92554  1.0000
  N   N5        1.0  0.22299  0.91144  0.05486  1.0000
  N   N6        1.0  0.77699  0.08854  0.94509  1.0000
  N   N7        1.0  0.29286  0.43463  0.23288  1.0000
  N   N8        1.0  0.70721  0.56540  0.76710  1.0000
  N   N9        1.0  0.36450  0.50131  0.13146  1.0000
  N   N10       1.0  0.63553  0.49870  0.86854  1.0000
  N   N11       1.0  0.41669  0.61988  0.15802  1.0000
  N   N12       1.0  0.58337  0.38014  0.84197  1.0000
  Cl  Cl1       1.0  0.92419  0.38340  0.16374  1.0000
  Cl  Cl2       1.0  0.07572  0.61654  0.83641  1.0000
  Cl  Cl3       1.0  0.39851  0.11769  0.35764  1.0000
  Cl  Cl4       1.0  0.60118  0.88229  0.64253  1.0000
