data_image0
_chemical_formula_structural       Hg3H14C20N4Cl6
_chemical_formula_sum              "Hg3 H14 C20 N4 Cl6"
_cell_length_a       7.59366
_cell_length_b       8.29387
_cell_length_c       10.5147
_cell_angle_alpha    97.1995
_cell_angle_beta     97.1657
_cell_angle_gamma    99.9999

_space_group_name_H-M_alt    "P 1"
_space_group_IT_number       1

loop_
  _space_group_symop_operation_xyz
  'x, y, z'

loop_
  _atom_site_type_symbol
  _atom_site_label
  _atom_site_symmetry_multiplicity
  _atom_site_fract_x
  _atom_site_fract_y
  _atom_site_fract_z
  _atom_site_occupancy
  Hg  Hg1       1.0  0.50000  0.00000  0.00000  1.0000
  Hg  Hg2       1.0  0.86461  0.77561  0.87520  1.0000
  Hg  Hg3       1.0  0.13539  0.22439  0.12480  1.0000
  H   H1        1.0  0.72329  0.81853  0.62292  1.0000
  H   H2        1.0  0.27671  0.18147  0.37708  1.0000
  H   H3        1.0  0.61290  0.85641  0.39739  1.0000
  H   H4        1.0  0.38709  0.14359  0.60261  1.0000
  H   H5        1.0  0.58895  0.63020  0.21412  1.0000
  H   H6        1.0  0.41105  0.36980  0.78588  1.0000
  H   H7        1.0  0.67290  0.36285  0.25264  1.0000
  H   H8        1.0  0.32710  0.63715  0.74736  1.0000
  H   H9        1.0  0.79395  0.18767  0.40845  1.0000
  H   H10       1.0  0.20605  0.81232  0.59156  1.0000
  H   H11       1.0  0.90946  0.16217  0.63893  1.0000
  H   H12       1.0  0.09054  0.83783  0.36107  1.0000
  H   H13       1.0  0.97883  0.27389  0.86364  1.0000
  H   H14       1.0  0.02117  0.72611  0.13637  1.0000
  C   C1        1.0  0.76693  0.56968  0.56587  1.0000
  C   C2        1.0  0.23307  0.43032  0.43413  1.0000
  C   C3        1.0  0.71503  0.72058  0.54145  1.0000
  C   C4        1.0  0.28497  0.27942  0.45855  1.0000
  C   C5        1.0  0.65364  0.74104  0.41674  1.0000
  C   C6        1.0  0.34636  0.25896  0.58326  1.0000
  C   C7        1.0  0.63903  0.61186  0.31189  1.0000
  C   C8        1.0  0.36097  0.38814  0.68811  1.0000
  C   C9        1.0  0.68669  0.46322  0.33294  1.0000
  C   C10       1.0  0.31331  0.53678  0.66706  1.0000
  C   C11       1.0  0.75193  0.43810  0.45963  1.0000
  C   C12       1.0  0.24808  0.56190  0.54037  1.0000
  C   C13       1.0  0.80370  0.28891  0.48767  1.0000
  C   C14       1.0  0.19630  0.71109  0.51233  1.0000
  C   C15       1.0  0.86682  0.27431  0.61350  1.0000
  C   C16       1.0  0.13318  0.72569  0.38651  1.0000
  C   C17       1.0  0.87970  0.41038  0.71283  1.0000
  C   C18       1.0  0.12030  0.58963  0.28717  1.0000
  C   C19       1.0  0.94799  0.39424  0.84591  1.0000
  C   C20       1.0  0.05201  0.60576  0.15409  1.0000
  N   N1        1.0  0.83074  0.55192  0.68876  1.0000
  N   N2        1.0  0.16927  0.44808  0.31124  1.0000
  N   N3        1.0  0.97099  0.51669  0.93958  1.0000
  N   N4        1.0  0.02901  0.48331  0.06042  1.0000
  Cl  Cl1       1.0  0.10944  0.97147  0.82671  1.0000
  Cl  Cl2       1.0  0.89056  0.02853  0.17329  1.0000
  Cl  Cl3       1.0  0.59425  0.67718  0.96364  1.0000
  Cl  Cl4       1.0  0.40575  0.32282  0.03636  1.0000
  Cl  Cl5       1.0  0.61370  0.05127  0.80472  1.0000
  Cl  Cl6       1.0  0.38630  0.94873  0.19528  1.0000
