data_image0
_chemical_formula_structural       NiH26C32N10O6
_chemical_formula_sum              "Ni1 H26 C32 N10 O6"
_cell_length_a       8.34142
_cell_length_b       9.28427
_cell_length_c       10.6148
_cell_angle_alpha    89.9399
_cell_angle_beta     108.077
_cell_angle_gamma    103.949

_space_group_name_H-M_alt    "P 1"
_space_group_IT_number       1

loop_
  _space_group_symop_operation_xyz
  'x, y, z'

loop_
  _atom_site_type_symbol
  _atom_site_label
  _atom_site_symmetry_multiplicity
  _atom_site_fract_x
  _atom_site_fract_y
  _atom_site_fract_z
  _atom_site_occupancy
  Ni  Ni1       1.0  0.50000  1.00000  0.00000  1.0000
  H   H1        1.0  0.46267  0.63910  0.18780  1.0000
  H   H2        1.0  0.53733  0.36090  0.81220  1.0000
  H   H3        1.0  0.22775  0.57133  0.69863  1.0000
  H   H4        1.0  0.77225  0.42867  0.30137  1.0000
  H   H5        1.0  0.10221  0.47248  0.45752  1.0000
  H   H6        1.0  0.89779  0.52752  0.54248  1.0000
  H   H7        1.0  0.57597  0.72961  0.40166  1.0000
  H   H8        1.0  0.42403  0.27039  0.59834  1.0000
  H   H9        1.0  0.68189  0.81563  0.64142  1.0000
  H   H10       1.0  0.31811  0.18437  0.35858  1.0000
  H   H11       1.0  0.10562  0.30016  0.84612  1.0000
  H   H12       1.0  0.89438  0.69984  0.15388  1.0000
  H   H13       1.0  0.85800  0.10972  0.68775  1.0000
  H   H14       1.0  0.14200  0.89028  0.31225  1.0000
  H   H15       1.0  0.60312  0.98444  0.76168  1.0000
  H   H16       1.0  0.39688  0.01556  0.23832  1.0000
  H   H17       1.0  0.82183  0.22405  0.12793  1.0000
  H   H18       1.0  0.17817  0.77595  0.87207  1.0000
  H   H19       1.0  0.86976  0.73104  0.43134  1.0000
  H   H20       1.0  0.13025  0.26896  0.56866  1.0000
  H   H21       1.0  0.88824  0.18675  0.35308  1.0000
  H   H22       1.0  0.11176  0.81325  0.64693  1.0000
  H   H23       1.0  0.48901  0.25460  0.15080  1.0000
  H   H24       1.0  0.51099  0.74540  0.84920  1.0000
  H   H25       1.0  0.41702  0.26861  0.99127  1.0000
  H   H26       1.0  0.58298  0.73139  0.00873  1.0000
  C   C1        1.0  0.29975  0.60470  0.62862  1.0000
  C   C2        1.0  0.70025  0.39530  0.37138  1.0000
  C   C3        1.0  0.22988  0.55038  0.49575  1.0000
  C   C4        1.0  0.77012  0.44962  0.50425  1.0000
  C   C5        1.0  0.32856  0.59367  0.41008  1.0000
  C   C6        1.0  0.67144  0.40633  0.58992  1.0000
  C   C7        1.0  0.49276  0.69375  0.46288  1.0000
  C   C8        1.0  0.50724  0.30625  0.53712  1.0000
  C   C9        1.0  0.55187  0.74179  0.59714  1.0000
  C   C10       1.0  0.44813  0.25821  0.40286  1.0000
  C   C11       1.0  0.26383  0.52802  0.27359  1.0000
  C   C12       1.0  0.73617  0.47198  0.72641  1.0000
  C   C13       1.0  0.11949  0.38843  0.09682  1.0000
  C   C14       1.0  0.88051  0.61157  0.90318  1.0000
  C   C15       1.0  0.98345  0.27627  0.00027  1.0000
  C   C16       1.0  0.01655  0.72373  0.99972  1.0000
  C   C17       1.0  0.99293  0.24338  0.87430  1.0000
  C   C18       1.0  0.00707  0.75662  0.12570  1.0000
  C   C19       1.0  0.85603  0.13712  0.78685  1.0000
  C   C20       1.0  0.14396  0.86288  0.21315  1.0000
  C   C21       1.0  0.71452  0.06678  0.82650  1.0000
  C   C22       1.0  0.28548  0.93323  0.17350  1.0000
  C   C23       1.0  0.83636  0.20076  0.03242  1.0000
  C   C24       1.0  0.16363  0.79924  0.96758  1.0000
  C   C25       1.0  0.71720  0.90126  0.25071  1.0000
  C   C26       1.0  0.28281  0.09874  0.74929  1.0000
  C   C27       1.0  0.86314  0.95323  0.37973  1.0000
  C   C28       1.0  0.13687  0.04677  0.62027  1.0000
  C   C29       1.0  0.92769  0.84874  0.46288  1.0000
  C   C30       1.0  0.07232  0.15126  0.53712  1.0000
  C   C31       1.0  0.93715  0.10545  0.41798  1.0000
  C   C32       1.0  0.06285  0.89456  0.58203  1.0000
  N   N1        1.0  0.70559  0.09816  0.94766  1.0000
  N   N2        1.0  0.29441  0.90184  0.05234  1.0000
  N   N3        1.0  0.34724  0.55980  0.18139  1.0000
  N   N4        1.0  0.65276  0.44020  0.81861  1.0000
  N   N5        1.0  0.25821  0.47220  0.06861  1.0000
  N   N6        1.0  0.74179  0.52780  0.93139  1.0000
  N   N7        1.0  0.11779  0.41950  0.22194  1.0000
  N   N8        1.0  0.88221  0.58051  0.77806  1.0000
  N   N9        1.0  0.45880  0.69844  0.67969  1.0000
  N   N10       1.0  0.54120  0.30156  0.32031  1.0000
  O   O1        1.0  0.49436  0.22605  0.06143  1.0000
  O   O2        1.0  0.50564  0.77395  0.93857  1.0000
  O   O3        1.0  0.66088  0.00473  0.18628  1.0000
  O   O4        1.0  0.33913  0.99527  0.81372  1.0000
  O   O5        1.0  0.66234  0.76230  0.21683  1.0000
  O   O6        1.0  0.33767  0.23770  0.78317  1.0000
