data_image0
_chemical_formula_structural       Ca2H44C24N4Cl4O8
_chemical_formula_sum              "Ca2 H44 C24 N4 Cl4 O8"
_cell_length_a       8.77054
_cell_length_b       8.77053
_cell_length_c       11.4215
_cell_angle_alpha    78.8312
_cell_angle_beta     78.8313
_cell_angle_gamma    84.9617

_space_group_name_H-M_alt    "P 1"
_space_group_IT_number       1

loop_
  _space_group_symop_operation_xyz
  'x, y, z'

loop_
  _atom_site_type_symbol
  _atom_site_label
  _atom_site_symmetry_multiplicity
  _atom_site_fract_x
  _atom_site_fract_y
  _atom_site_fract_z
  _atom_site_occupancy
  Ca  Ca1       1.0  0.56290  0.43710  0.25000  1.0000
  Ca  Ca2       1.0  0.43710  0.56290  0.75000  1.0000
  H   H1        1.0  0.37538  0.61604  0.44811  1.0000
  H   H2        1.0  0.38396  0.62462  0.05189  1.0000
  H   H3        1.0  0.62462  0.38396  0.55189  1.0000
  H   H4        1.0  0.61604  0.37538  0.94811  1.0000
  H   H5        1.0  0.03916  0.80455  0.32178  1.0000
  H   H6        1.0  0.19545  0.96084  0.17822  1.0000
  H   H7        1.0  0.96084  0.19545  0.67822  1.0000
  H   H8        1.0  0.80455  0.03916  0.82178  1.0000
  H   H9        1.0  0.96006  0.95394  0.40464  1.0000
  H   H10       1.0  0.04606  0.03994  0.09536  1.0000
  H   H11       1.0  0.03994  0.04606  0.59536  1.0000
  H   H12       1.0  0.95394  0.96006  0.90464  1.0000
  H   H13       1.0  0.89513  0.60640  0.47201  1.0000
  H   H14       1.0  0.39360  0.10487  0.02799  1.0000
  H   H15       1.0  0.10487  0.39360  0.52799  1.0000
  H   H16       1.0  0.60640  0.89513  0.97201  1.0000
  H   H17       1.0  0.93052  0.72899  0.56928  1.0000
  H   H18       1.0  0.27101  0.06948  0.93072  1.0000
  H   H19       1.0  0.06948  0.27101  0.43072  1.0000
  H   H20       1.0  0.72900  0.93052  0.06928  1.0000
  H   H21       1.0  0.32557  0.83815  0.30817  1.0000
  H   H22       1.0  0.16185  0.67443  0.19182  1.0000
  H   H23       1.0  0.67443  0.16185  0.69182  1.0000
  H   H24       1.0  0.83815  0.32557  0.80818  1.0000
  H   H25       1.0  0.51704  0.80692  0.22728  1.0000
  H   H26       1.0  0.19308  0.48296  0.27272  1.0000
  H   H27       1.0  0.48296  0.19308  0.77272  1.0000
  H   H28       1.0  0.80692  0.51704  0.72728  1.0000
  H   H29       1.0  0.78232  0.99586  0.26257  1.0000
  H   H30       1.0  0.00414  0.21768  0.23743  1.0000
  H   H31       1.0  0.21768  0.00414  0.73743  1.0000
  H   H32       1.0  0.99586  0.78232  0.76257  1.0000
  H   H33       1.0  0.79711  0.79424  0.25077  1.0000
  H   H34       1.0  0.20576  0.20289  0.24923  1.0000
  H   H35       1.0  0.20289  0.20576  0.74923  1.0000
  H   H36       1.0  0.79424  0.79711  0.75077  1.0000
  H   H37       1.0  0.49458  0.01350  0.35526  1.0000
  H   H38       1.0  0.98650  0.50543  0.14474  1.0000
  H   H39       1.0  0.50542  0.98651  0.64474  1.0000
  H   H40       1.0  0.01350  0.49457  0.85526  1.0000
  H   H41       1.0  0.42872  0.87209  0.48752  1.0000
  H   H42       1.0  0.12791  0.57127  0.01248  1.0000
  H   H43       1.0  0.57128  0.12791  0.51248  1.0000
  H   H44       1.0  0.87209  0.42872  0.98752  1.0000
  C   C1        1.0  0.93439  0.84609  0.37831  1.0000
  C   C2        1.0  0.15391  0.06561  0.12169  1.0000
  C   C3        1.0  0.06561  0.15391  0.62168  1.0000
  C   C4        1.0  0.84609  0.93439  0.87832  1.0000
  C   C5        1.0  0.87682  0.72599  0.49104  1.0000
  C   C6        1.0  0.27401  0.12318  0.00896  1.0000
  C   C7        1.0  0.12318  0.27401  0.50895  1.0000
  C   C8        1.0  0.72599  0.87682  0.99105  1.0000
  C   C9        1.0  0.44486  0.79382  0.31822  1.0000
  C   C10       1.0  0.20618  0.55514  0.18178  1.0000
  C   C11       1.0  0.55514  0.20618  0.68178  1.0000
  C   C12       1.0  0.79382  0.44486  0.81822  1.0000
  C   C13       1.0  0.79453  0.87659  0.31292  1.0000
  C   C14       1.0  0.12341  0.20547  0.18708  1.0000
  C   C15       1.0  0.20547  0.12341  0.68708  1.0000
  C   C16       1.0  0.87659  0.79453  0.81292  1.0000
  C   C17       1.0  0.70335  0.76081  0.51444  1.0000
  C   C18       1.0  0.23919  0.29665  0.98556  1.0000
  C   C19       1.0  0.29665  0.23918  0.48556  1.0000
  C   C20       1.0  0.76082  0.70335  0.01444  1.0000
  C   C21       1.0  0.50278  0.88963  0.39727  1.0000
  C   C22       1.0  0.11037  0.49722  0.10273  1.0000
  C   C23       1.0  0.49722  0.11037  0.60273  1.0000
  C   C24       1.0  0.88963  0.50277  0.89727  1.0000
  N   N1        1.0  0.66191  0.84666  0.41328  1.0000
  N   N2        1.0  0.15334  0.33809  0.08671  1.0000
  N   N3        1.0  0.33809  0.15334  0.58671  1.0000
  N   N4        1.0  0.84666  0.66191  0.91329  1.0000
  Cl  Cl1       1.0  0.78153  0.36836  0.39248  1.0000
  Cl  Cl2       1.0  0.63164  0.21847  0.10752  1.0000
  Cl  Cl3       1.0  0.21847  0.63164  0.60753  1.0000
  Cl  Cl4       1.0  0.36836  0.78153  0.89247  1.0000
  O   O1        1.0  0.61176  0.71688  0.61197  1.0000
  O   O2        1.0  0.28312  0.38824  0.88803  1.0000
  O   O3        1.0  0.38824  0.28311  0.38803  1.0000
  O   O4        1.0  0.71689  0.61176  0.11197  1.0000
  O   O5        1.0  0.44752  0.63108  0.36786  1.0000
  O   O6        1.0  0.36892  0.55248  0.13214  1.0000
  O   O7        1.0  0.55248  0.36892  0.63214  1.0000
  O   O8        1.0  0.63108  0.44752  0.86786  1.0000
