data_image0
_chemical_formula_structural       Ca4H68C32N4Cl8O12
_chemical_formula_sum              "Ca4 H68 C32 N4 Cl8 O12"
_cell_length_a       9.10617
_cell_length_b       9.83335
_cell_length_c       15.6114
_cell_angle_alpha    73.112
_cell_angle_beta     89.3126
_cell_angle_gamma    75.0831

_space_group_name_H-M_alt    "P 1"
_space_group_IT_number       1

loop_
  _space_group_symop_operation_xyz
  'x, y, z'

loop_
  _atom_site_type_symbol
  _atom_site_label
  _atom_site_symmetry_multiplicity
  _atom_site_fract_x
  _atom_site_fract_y
  _atom_site_fract_z
  _atom_site_occupancy
  Ca  Ca1       1.0  0.78318  0.03536  0.04769  1.0000
  Ca  Ca2       1.0  0.21682  0.96464  0.95231  1.0000
  Ca  Ca3       1.0  0.98724  0.90244  0.34937  1.0000
  Ca  Ca4       1.0  0.01276  0.09756  0.65063  1.0000
  H   H1        1.0  0.10691  0.77287  0.20051  1.0000
  H   H2        1.0  0.89310  0.22713  0.79949  1.0000
  H   H3        1.0  0.73225  0.81749  0.27959  1.0000
  H   H4        1.0  0.26775  0.18251  0.72041  1.0000
  H   H5        1.0  0.39712  0.40991  0.87032  1.0000
  H   H6        1.0  0.60288  0.59009  0.12968  1.0000
  H   H7        1.0  0.43945  0.52782  0.92749  1.0000
  H   H8        1.0  0.56055  0.47218  0.07251  1.0000
  H   H9        1.0  0.16297  0.47596  0.08806  1.0000
  H   H10       1.0  0.83703  0.52404  0.91194  1.0000
  H   H11       1.0  0.09566  0.35309  0.04392  1.0000
  H   H12       1.0  0.90434  0.64691  0.95608  1.0000
  H   H13       1.0  0.30857  0.21998  0.20797  1.0000
  H   H14       1.0  0.69143  0.78002  0.79203  1.0000
  H   H15       1.0  0.47531  0.12433  0.16758  1.0000
  H   H16       1.0  0.52469  0.87567  0.83242  1.0000
  H   H17       1.0  0.28091  0.98130  0.21236  1.0000
  H   H18       1.0  0.71909  0.01870  0.78764  1.0000
  H   H19       1.0  0.14770  0.11372  0.12799  1.0000
  H   H20       1.0  0.85230  0.88628  0.87201  1.0000
  H   H21       1.0  0.32613  0.82794  0.67972  1.0000
  H   H22       1.0  0.67387  0.17206  0.32028  1.0000
  H   H23       1.0  0.42123  0.87980  0.57956  1.0000
  H   H24       1.0  0.57877  0.12020  0.42044  1.0000
  H   H25       1.0  0.30477  0.72970  0.51096  1.0000
  H   H26       1.0  0.69524  0.27030  0.48904  1.0000
  H   H27       1.0  0.41914  0.61930  0.61139  1.0000
  H   H28       1.0  0.58086  0.38070  0.38861  1.0000
  H   H29       1.0  0.20435  0.64580  0.75480  1.0000
  H   H30       1.0  0.79565  0.35420  0.24521  1.0000
  H   H31       1.0  0.25629  0.47078  0.73325  1.0000
  H   H32       1.0  0.74371  0.52922  0.26675  1.0000
  H   H33       1.0  0.95776  0.48818  0.61140  1.0000
  H   H34       1.0  0.04224  0.51182  0.38860  1.0000
  H   H35       1.0  0.83656  0.66502  0.60550  1.0000
  H   H36       1.0  0.16345  0.33498  0.39450  1.0000
  H   H37       1.0  0.00068  0.46899  0.76786  1.0000
  H   H38       1.0  0.99932  0.53101  0.23214  1.0000
  H   H39       1.0  0.94318  0.66486  0.74397  1.0000
  H   H40       1.0  0.05682  0.33514  0.25603  1.0000
  H   H41       1.0  0.30371  0.62372  0.36012  1.0000
  H   H42       1.0  0.69630  0.37627  0.63989  1.0000
  H   H43       1.0  0.36160  0.74985  0.26819  1.0000
  H   H44       1.0  0.63840  0.25014  0.73181  1.0000
  H   H45       1.0  0.60274  0.61413  0.37772  1.0000
  H   H46       1.0  0.39726  0.38587  0.62228  1.0000
  H   H47       1.0  0.54612  0.64250  0.48172  1.0000
  H   H48       1.0  0.45388  0.35750  0.51828  1.0000
  H   H49       1.0  0.74184  0.56750  0.46836  1.0000
  H   H50       1.0  0.25816  0.43251  0.53164  1.0000
  H   H51       1.0  0.32163  0.60112  0.16693  1.0000
  H   H52       1.0  0.67837  0.39888  0.83307  1.0000
  H   H53       1.0  0.27913  0.46752  0.26167  1.0000
  H   H54       1.0  0.72087  0.53248  0.73833  1.0000
  H   H55       1.0  0.46313  0.49963  0.25516  1.0000
  H   H56       1.0  0.53687  0.50037  0.74483  1.0000
  H   H57       1.0  0.17147  0.61632  0.93678  1.0000
  H   H58       1.0  0.82853  0.38368  0.06322  1.0000
  H   H59       1.0  0.13780  0.47363  0.89807  1.0000
  H   H60       1.0  0.86221  0.52637  0.10193  1.0000
  H   H61       1.0  0.69342  0.83373  0.45830  1.0000
  H   H62       1.0  0.30658  0.16627  0.54170  1.0000
  H   H63       1.0  0.54985  0.88233  0.37053  1.0000
  H   H64       1.0  0.45015  0.11767  0.62947  1.0000
  H   H65       1.0  0.18410  0.98946  0.50377  1.0000
  H   H66       1.0  0.81590  0.01054  0.49623  1.0000
  H   H67       1.0  0.43457  0.93363  0.09944  1.0000
  H   H68       1.0  0.56543  0.06637  0.90056  1.0000
  C   C1        1.0  0.37699  0.44485  0.93093  1.0000
  C   C2        1.0  0.62301  0.55515  0.06907  1.0000
  C   C3        1.0  0.18711  0.40802  0.04191  1.0000
  C   C4        1.0  0.81289  0.59198  0.95809  1.0000
  C   C5        1.0  0.43996  0.31175  0.01059  1.0000
  C   C6        1.0  0.56004  0.68825  0.98940  1.0000
  C   C7        1.0  0.35271  0.17654  0.15247  1.0000
  C   C8        1.0  0.64729  0.82346  0.84753  1.0000
  C   C9        1.0  0.06338  0.66340  0.56659  1.0000
  C   C10       1.0  0.93662  0.33660  0.43341  1.0000
  C   C11       1.0  0.26979  0.06308  0.14593  1.0000
  C   C12       1.0  0.73021  0.93692  0.85407  1.0000
  C   C13       1.0  0.31927  0.84622  0.60682  1.0000
  C   C14       1.0  0.68073  0.15378  0.39318  1.0000
  C   C15       1.0  0.31371  0.70675  0.58418  1.0000
  C   C16       1.0  0.68629  0.29325  0.41582  1.0000
  C   C17       1.0  0.17548  0.58122  0.71390  1.0000
  C   C18       1.0  0.82452  0.41878  0.28610  1.0000
  C   C19       1.0  0.95264  0.59351  0.62443  1.0000
  C   C20       1.0  0.04737  0.40649  0.37557  1.0000
  C   C21       1.0  0.00898  0.57338  0.72080  1.0000
  C   C22       1.0  0.99102  0.42662  0.27920  1.0000
  C   C23       1.0  0.29100  0.67119  0.28665  1.0000
  C   C24       1.0  0.70900  0.32881  0.71335  1.0000
  C   C25       1.0  0.63612  0.64710  0.43443  1.0000
  C   C26       1.0  0.36388  0.35290  0.56557  1.0000
  C   C27       1.0  0.34069  0.55271  0.24006  1.0000
  C   C28       1.0  0.65931  0.44729  0.75994  1.0000
  C   C29       1.0  0.20739  0.49766  0.94565  1.0000
  C   C30       1.0  0.79261  0.50234  0.05435  1.0000
  C   C31       1.0  0.65726  0.80132  0.40203  1.0000
  C   C32       1.0  0.34274  0.19868  0.59797  1.0000
  N   N1        1.0  0.33296  0.29698  0.07001  1.0000
  N   N2        1.0  0.66704  0.70302  0.92999  1.0000
  N   N3        1.0  0.18364  0.65481  0.61872  1.0000
  N   N4        1.0  0.81636  0.34519  0.38128  1.0000
  Cl  Cl1       1.0  0.04018  0.80326  0.06346  1.0000
  Cl  Cl2       1.0  0.95982  0.19674  0.93654  1.0000
  Cl  Cl3       1.0  0.65113  0.83118  0.15718  1.0000
  Cl  Cl4       1.0  0.34887  0.16882  0.84282  1.0000
  Cl  Cl5       1.0  0.86883  0.10947  0.19117  1.0000
  Cl  Cl6       1.0  0.13117  0.89053  0.80883  1.0000
  Cl  Cl7       1.0  0.21727  0.02190  0.37486  1.0000
  Cl  Cl8       1.0  0.78274  0.97810  0.62514  1.0000
  O   O1        1.0  0.57272  0.22851  0.02095  1.0000
  O   O2        1.0  0.42727  0.77149  0.97905  1.0000
  O   O3        1.0  0.18363  0.96134  0.57117  1.0000
  O   O4        1.0  0.81637  0.03866  0.42883  1.0000
  O   O5        1.0  0.32781  0.99295  0.07911  1.0000
  O   O6        1.0  0.67218  0.00705  0.92089  1.0000
  O   O7        1.0  0.05005  0.71642  0.48263  1.0000
  O   O8        1.0  0.94995  0.28358  0.51737  1.0000
  O   O9        1.0  0.13199  0.74984  0.26586  1.0000
  O   O10       1.0  0.86802  0.25016  0.73414  1.0000
  O   O11       1.0  0.77524  0.80947  0.33986  1.0000
  O   O12       1.0  0.22476  0.19053  0.66014  1.0000
