data_image0
_chemical_formula_structural       Mn4H24C16N28Cl4O4
_chemical_formula_sum              "Mn4 H24 C16 N28 Cl4 O4"
_cell_length_a       7.26252
_cell_length_b       7.63365
_cell_length_c       17.0392
_cell_angle_alpha    98.29
_cell_angle_beta     89.997
_cell_angle_gamma    118.42

_space_group_name_H-M_alt    "P 1"
_space_group_IT_number       1

loop_
  _space_group_symop_operation_xyz
  'x, y, z'

loop_
  _atom_site_type_symbol
  _atom_site_label
  _atom_site_symmetry_multiplicity
  _atom_site_fract_x
  _atom_site_fract_y
  _atom_site_fract_z
  _atom_site_occupancy
  Mn  Mn1       1.0  0.16950  0.99969  0.25000  1.0000
  Mn  Mn2       1.0  0.81339  0.00015  0.74997  1.0000
  Mn  Mn3       1.0  0.50041  0.49235  0.99364  1.0000
  Mn  Mn4       1.0  0.00818  0.50796  0.50622  1.0000
  H   H1        1.0  0.10625  0.99611  0.09378  1.0000
  H   H2        1.0  0.11033  0.00367  0.40622  1.0000
  H   H3        1.0  0.88607  0.98568  0.89647  1.0000
  H   H4        1.0  0.89997  0.01471  0.60346  1.0000
  H   H5        1.0  0.22828  0.24590  0.13537  1.0000
  H   H6        1.0  0.98235  0.75386  0.36471  1.0000
  H   H7        1.0  0.76269  0.74350  0.84989  1.0000
  H   H8        1.0  0.01895  0.25687  0.65007  1.0000
  H   H9        1.0  0.84922  0.37701  0.03553  1.0000
  H   H10       1.0  0.47193  0.62258  0.46452  1.0000
  H   H11       1.0  0.15149  0.61536  0.96205  1.0000
  H   H12       1.0  0.53611  0.38506  0.53791  1.0000
  H   H13       1.0  0.82113  0.05028  0.06789  1.0000
  H   H14       1.0  0.77086  0.94928  0.43216  1.0000
  H   H15       1.0  0.17700  0.94195  0.93110  1.0000
  H   H16       1.0  0.23476  0.05877  0.56905  1.0000
  H   H17       1.0  0.09341  0.27661  0.34707  1.0000
  H   H18       1.0  0.81649  0.72279  0.15294  1.0000
  H   H19       1.0  0.89394  0.74834  0.65214  1.0000
  H   H20       1.0  0.14575  0.25197  0.84771  1.0000
  H   H21       1.0  0.10630  0.35786  0.26639  1.0000
  H   H22       1.0  0.74793  0.64133  0.23355  1.0000
  H   H23       1.0  0.88152  0.67645  0.73476  1.0000
  H   H24       1.0  0.20529  0.32373  0.76506  1.0000
  C   C1        1.0  0.42118  0.13329  0.10419  1.0000
  C   C2        1.0  0.28792  0.86639  0.39580  1.0000
  C   C3        1.0  0.57147  0.85528  0.88802  1.0000
  C   C4        1.0  0.71586  0.14518  0.61206  1.0000
  C   C5        1.0  0.40265  0.81022  0.13618  1.0000
  C   C6        1.0  0.59271  0.18933  0.36378  1.0000
  C   C7        1.0  0.59450  0.17587  0.85672  1.0000
  C   C8        1.0  0.41823  0.82464  0.64343  1.0000
  C   C9        1.0  0.50537  0.00058  0.10731  1.0000
  C   C10       1.0  0.50498  0.99902  0.39265  1.0000
  C   C11       1.0  0.48853  0.98920  0.88732  1.0000
  C   C12       1.0  0.49889  0.01143  0.61288  1.0000
  C   C13       1.0  0.70078  0.09486  0.07687  1.0000
  C   C14       1.0  0.60594  0.90474  0.42314  1.0000
  C   C15       1.0  0.29632  0.89668  0.92004  1.0000
  C   C16       1.0  0.39934  0.10394  0.58009  1.0000
  N   N1        1.0  0.55372  0.29535  0.07235  1.0000
  N   N2        1.0  0.25828  0.70443  0.42772  1.0000
  N   N3        1.0  0.44276  0.69420  0.92079  1.0000
  N   N4        1.0  0.74838  0.30613  0.57921  1.0000
  N   N5        1.0  0.27663  0.77807  0.19687  1.0000
  N   N6        1.0  0.49863  0.22134  0.30311  1.0000
  N   N7        1.0  0.72723  0.19822  0.79817  1.0000
  N   N8        1.0  0.52885  0.80222  0.70187  1.0000
  N   N9        1.0  0.20823  0.58433  0.20566  1.0000
  N   N10       1.0  0.62377  0.41517  0.29436  1.0000
  N   N11       1.0  0.80705  0.39289  0.78641  1.0000
  N   N12       1.0  0.41426  0.60746  0.71352  1.0000
  N   N13       1.0  0.28820  0.50409  0.15253  1.0000
  N   N14       1.0  0.78400  0.49560  0.34749  1.0000
  N   N15       1.0  0.72701  0.48173  0.83622  1.0000
  N   N16       1.0  0.24533  0.51852  0.66368  1.0000
  N   N17       1.0  0.41021  0.63983  0.10712  1.0000
  N   N18       1.0  0.77050  0.35990  0.39287  1.0000
  N   N19       1.0  0.59387  0.35143  0.88152  1.0000
  N   N20       1.0  0.24225  0.64891  0.61851  1.0000
  N   N21       1.0  0.22989  0.10879  0.13171  1.0000
  N   N22       1.0  0.12118  0.89093  0.36831  1.0000
  N   N23       1.0  0.76154  0.88134  0.85668  1.0000
  N   N24       1.0  0.87988  0.11902  0.64330  1.0000
  N   N25       1.0  0.72351  0.26860  0.05794  1.0000
  N   N26       1.0  0.45479  0.73108  0.44214  1.0000
  N   N27       1.0  0.27532  0.72263  0.93836  1.0000
  N   N28       1.0  0.55254  0.27780  0.56164  1.0000
  Cl  Cl1       1.0  0.11557  0.27079  0.96911  1.0000
  Cl  Cl2       1.0  0.84516  0.72960  0.53083  1.0000
  Cl  Cl3       1.0  0.87935  0.71593  0.02543  1.0000
  Cl  Cl4       1.0  0.16277  0.28374  0.47462  1.0000
  O   O1        1.0  0.06975  0.23380  0.28891  1.0000
  O   O2        1.0  0.83544  0.76551  0.21110  1.0000
  O   O3        1.0  0.92352  0.79744  0.71032  1.0000
  O   O4        1.0  0.12643  0.20277  0.78954  1.0000
