data_image0
_chemical_formula_structural       Co2H28C36N24
_chemical_formula_sum              "Co2 H28 C36 N24"
_cell_length_a       7.88959
_cell_length_b       9.02639
_cell_length_c       12.7064
_cell_angle_alpha    101.215
_cell_angle_beta     89.9996
_cell_angle_gamma    90.0021

_space_group_name_H-M_alt    "P 1"
_space_group_IT_number       1

loop_
  _space_group_symop_operation_xyz
  'x, y, z'

loop_
  _atom_site_type_symbol
  _atom_site_label
  _atom_site_symmetry_multiplicity
  _atom_site_fract_x
  _atom_site_fract_y
  _atom_site_fract_z
  _atom_site_occupancy
  Co  Co1       1.0  1.00000  0.00000  1.00000  1.0000
  Co  Co2       1.0  0.50000  0.50000  0.50000  1.0000
  H   H1        1.0  0.00108  0.60920  0.81675  1.0000
  H   H2        1.0  0.50108  0.89080  0.68325  1.0000
  H   H3        1.0  0.99892  0.39080  0.18325  1.0000
  H   H4        1.0  0.49892  0.10920  0.31675  1.0000
  H   H5        1.0  0.69368  0.56948  0.77103  1.0000
  H   H6        1.0  0.19369  0.93051  0.72898  1.0000
  H   H7        1.0  0.30632  0.43052  0.22897  1.0000
  H   H8        1.0  0.80632  0.06950  0.27103  1.0000
  H   H9        1.0  0.54302  0.34377  0.80613  1.0000
  H   H10       1.0  0.04301  0.15622  0.69388  1.0000
  H   H11       1.0  0.45698  0.65624  0.19387  1.0000
  H   H12       1.0  0.95699  0.84378  0.30613  1.0000
  H   H13       1.0  0.69128  0.15036  0.88554  1.0000
  H   H14       1.0  0.19128  0.34962  0.61447  1.0000
  H   H15       1.0  0.30872  0.84964  0.11446  1.0000
  H   H16       1.0  0.80872  0.65037  0.38553  1.0000
  H   H17       1.0  0.27457  0.46336  0.90112  1.0000
  H   H18       1.0  0.77457  0.03665  0.59888  1.0000
  H   H19       1.0  0.72543  0.53664  0.09888  1.0000
  H   H20       1.0  0.22544  0.96335  0.40112  1.0000
  H   H21       1.0  0.34403  0.11072  0.00509  1.0000
  H   H22       1.0  0.84403  0.38929  0.49491  1.0000
  H   H23       1.0  0.65597  0.88928  0.99491  1.0000
  H   H24       1.0  0.15597  0.61071  0.50509  1.0000
  H   H25       1.0  0.42802  0.29340  0.02201  1.0000
  H   H26       1.0  0.92801  0.20661  0.47799  1.0000
  H   H27       1.0  0.57198  0.70660  0.97799  1.0000
  H   H28       1.0  0.07198  0.79339  0.52201  1.0000
  C   C1        1.0  0.19530  0.26084  0.95096  1.0000
  C   C2        1.0  0.69531  0.23917  0.54904  1.0000
  C   C3        1.0  0.80469  0.73916  0.04904  1.0000
  C   C4        1.0  0.30469  0.76083  0.45096  1.0000
  C   C5        1.0  0.01452  0.40144  0.87758  1.0000
  C   C6        1.0  0.51451  0.09857  0.62243  1.0000
  C   C7        1.0  0.98548  0.59857  0.12242  1.0000
  C   C8        1.0  0.48549  0.90143  0.37758  1.0000
  C   C9        1.0  0.93366  0.51020  0.83173  1.0000
  C   C10       1.0  0.43366  0.98980  0.66827  1.0000
  C   C11       1.0  0.06634  0.48981  0.16828  1.0000
  C   C12       1.0  0.56634  0.01020  0.33173  1.0000
  C   C13       1.0  0.76168  0.48804  0.80789  1.0000
  C   C14       1.0  0.26168  0.01195  0.69211  1.0000
  C   C15       1.0  0.23832  0.51197  0.19211  1.0000
  C   C16       1.0  0.73833  0.98805  0.30789  1.0000
  C   C17       1.0  0.67625  0.36030  0.82813  1.0000
  C   C18       1.0  0.17625  0.13969  0.67188  1.0000
  C   C19       1.0  0.32375  0.63970  0.17187  1.0000
  C   C20       1.0  0.82375  0.86031  0.32813  1.0000
  C   C21       1.0  0.75903  0.24973  0.87226  1.0000
  C   C22       1.0  0.25903  0.25026  0.62774  1.0000
  C   C23       1.0  0.24097  0.75027  0.12774  1.0000
  C   C24       1.0  0.74097  0.74974  0.37226  1.0000
  C   C25       1.0  0.93038  0.27146  0.89871  1.0000
  C   C26       1.0  0.43038  0.22854  0.60129  1.0000
  C   C27       1.0  0.06962  0.72854  0.10129  1.0000
  C   C28       1.0  0.56963  0.77147  0.39872  1.0000
  C   C29       1.0  0.70170  0.21238  0.11936  1.0000
  C   C30       1.0  0.20170  0.28761  0.38064  1.0000
  C   C31       1.0  0.29830  0.78762  0.88064  1.0000
  C   C32       1.0  0.79831  0.71238  0.61936  1.0000
  C   C33       1.0  0.62115  0.37616  0.27344  1.0000
  C   C34       1.0  0.12115  0.12384  0.22655  1.0000
  C   C35       1.0  0.37885  0.62384  0.72656  1.0000
  C   C36       1.0  0.87884  0.87615  0.77344  1.0000
  N   N1        1.0  0.18016  0.39027  0.91099  1.0000
  N   N2        1.0  0.68015  0.10974  0.58901  1.0000
  N   N3        1.0  0.81984  0.60974  0.08901  1.0000
  N   N4        1.0  0.31985  0.89026  0.41099  1.0000
  N   N5        1.0  0.04636  0.18664  0.94612  1.0000
  N   N6        1.0  0.54635  0.31336  0.55388  1.0000
  N   N7        1.0  0.95365  0.81336  0.05388  1.0000
  N   N8        1.0  0.45365  0.68664  0.44612  1.0000
  N   N9        1.0  0.34354  0.21516  0.98610  1.0000
  N   N10       1.0  0.84354  0.28486  0.51390  1.0000
  N   N11       1.0  0.65645  0.78485  0.01390  1.0000
  N   N12       1.0  0.15646  0.71514  0.48610  1.0000
  N   N13       1.0  0.74621  0.09942  0.06293  1.0000
  N   N14       1.0  0.24621  0.40056  0.43707  1.0000
  N   N15       1.0  0.25380  0.90058  0.93707  1.0000
  N   N16       1.0  0.75379  0.59941  0.56292  1.0000
  N   N17       1.0  0.65259  0.34455  0.17078  1.0000
  N   N18       1.0  0.15259  0.15543  0.32922  1.0000
  N   N19       1.0  0.34741  0.65545  0.82922  1.0000
  N   N20       1.0  0.84741  0.84455  0.67077  1.0000
  N   N21       1.0  0.58957  0.41918  0.36458  1.0000
  N   N22       1.0  0.08956  0.08082  0.13541  1.0000
  N   N23       1.0  0.41043  0.58082  0.63541  1.0000
  N   N24       1.0  0.91043  0.91918  0.86458  1.0000
