data_image0
_chemical_formula_structural       Cd2H28C36N24
_chemical_formula_sum              "Cd2 H28 C36 N24"
_cell_length_a       9.26942
_cell_length_b       9.56038
_cell_length_c       10.7398
_cell_angle_alpha    90.0001
_cell_angle_beta     90
_cell_angle_gamma    101.038

_space_group_name_H-M_alt    "P 1"
_space_group_IT_number       1

loop_
  _space_group_symop_operation_xyz
  'x, y, z'

loop_
  _atom_site_type_symbol
  _atom_site_label
  _atom_site_symmetry_multiplicity
  _atom_site_fract_x
  _atom_site_fract_y
  _atom_site_fract_z
  _atom_site_occupancy
  Cd  Cd1       1.0  0.00000  0.00000  0.00000  1.0000
  Cd  Cd2       1.0  0.50000  0.50000  0.50000  1.0000
  H   H1        1.0  0.44179  0.70940  0.01514  1.0000
  H   H2        1.0  0.05821  0.79060  0.51513  1.0000
  H   H3        1.0  0.55821  0.29060  0.98486  1.0000
  H   H4        1.0  0.94179  0.20940  0.48486  1.0000
  H   H5        1.0  0.05255  0.71409  0.10248  1.0000
  H   H6        1.0  0.44745  0.78591  0.60248  1.0000
  H   H7        1.0  0.94745  0.28591  0.89752  1.0000
  H   H8        1.0  0.55255  0.21409  0.39752  1.0000
  H   H9        1.0  0.19354  0.62383  0.13467  1.0000
  H   H10       1.0  0.30646  0.87617  0.63467  1.0000
  H   H11       1.0  0.80646  0.37617  0.86533  1.0000
  H   H12       1.0  0.69354  0.12383  0.36533  1.0000
  H   H13       1.0  0.65772  0.86576  0.84692  1.0000
  H   H14       1.0  0.84228  0.63424  0.34692  1.0000
  H   H15       1.0  0.34228  0.13424  0.15308  1.0000
  H   H16       1.0  0.15772  0.36576  0.65308  1.0000
  H   H17       1.0  0.47950  0.19151  0.65420  1.0000
  H   H18       1.0  0.02050  0.30849  0.15420  1.0000
  H   H19       1.0  0.52050  0.80849  0.34580  1.0000
  H   H20       1.0  0.97950  0.69151  0.84580  1.0000
  H   H21       1.0  0.68638  0.07041  0.69777  1.0000
  H   H22       1.0  0.81362  0.42959  0.19777  1.0000
  H   H23       1.0  0.31362  0.92959  0.30223  1.0000
  H   H24       1.0  0.18638  0.57041  0.80223  1.0000
  H   H25       1.0  0.23899  0.11937  0.76289  1.0000
  H   H26       1.0  0.26101  0.38063  0.26289  1.0000
  H   H27       1.0  0.76101  0.88063  0.23711  1.0000
  H   H28       1.0  0.73899  0.61937  0.73711  1.0000
  C   C1        1.0  0.24176  0.79071  0.00944  1.0000
  C   C2        1.0  0.25823  0.70929  0.50944  1.0000
  C   C3        1.0  0.75824  0.20929  0.99056  1.0000
  C   C4        1.0  0.74176  0.29071  0.49056  1.0000
  C   C5        1.0  0.31511  0.95575  0.87013  1.0000
  C   C6        1.0  0.18489  0.54425  0.37013  1.0000
  C   C7        1.0  0.68489  0.04425  0.12987  1.0000
  C   C8        1.0  0.81511  0.45575  0.62987  1.0000
  C   C9        1.0  0.56712  0.92055  0.82884  1.0000
  C   C10       1.0  0.93288  0.57945  0.32884  1.0000
  C   C11       1.0  0.43288  0.07945  0.17116  1.0000
  C   C12       1.0  0.06712  0.42055  0.67116  1.0000
  C   C13       1.0  0.43302  0.88288  0.88975  1.0000
  C   C14       1.0  0.06698  0.61712  0.38975  1.0000
  C   C15       1.0  0.56698  0.11712  0.11025  1.0000
  C   C16       1.0  0.93302  0.38288  0.61025  1.0000
  C   C17       1.0  0.46537  0.10504  0.72162  1.0000
  C   C18       1.0  0.03463  0.39496  0.22162  1.0000
  C   C19       1.0  0.53462  0.89496  0.27838  1.0000
  C   C20       1.0  0.96537  0.60504  0.77838  1.0000
  C   C21       1.0  0.58196  0.03468  0.74500  1.0000
  C   C22       1.0  0.91804  0.46532  0.24500  1.0000
  C   C23       1.0  0.41804  0.96532  0.25500  1.0000
  C   C24       1.0  0.08196  0.53468  0.75500  1.0000
  C   C25       1.0  0.33001  0.06581  0.78257  1.0000
  C   C26       1.0  0.16999  0.43419  0.28257  1.0000
  C   C27       1.0  0.66999  0.93419  0.21743  1.0000
  C   C28       1.0  0.83001  0.56581  0.71743  1.0000
  C   C29       1.0  0.91534  0.94834  0.68746  1.0000
  C   C30       1.0  0.58466  0.55166  0.18746  1.0000
  C   C31       1.0  0.08466  0.05166  0.31254  1.0000
  C   C32       1.0  0.41534  0.44834  0.81254  1.0000
  C   C33       1.0  0.75977  0.80783  0.55204  1.0000
  C   C34       1.0  0.74023  0.69217  0.05204  1.0000
  C   C35       1.0  0.24023  0.19217  0.44796  1.0000
  C   C36       1.0  0.25977  0.30783  0.94796  1.0000
  N   N1        1.0  0.19816  0.89757  0.94737  1.0000
  N   N2        1.0  0.30184  0.60244  0.44737  1.0000
  N   N3        1.0  0.80184  0.10243  0.05263  1.0000
  N   N4        1.0  0.69816  0.39756  0.55263  1.0000
  N   N5        1.0  0.38148  0.77739  0.97658  1.0000
  N   N6        1.0  0.11852  0.72261  0.47658  1.0000
  N   N7        1.0  0.61852  0.22261  0.02342  1.0000
  N   N8        1.0  0.88148  0.27739  0.52342  1.0000
  N   N9        1.0  0.15970  0.70681  0.09249  1.0000
  N   N10       1.0  0.34029  0.79319  0.59249  1.0000
  N   N11       1.0  0.84029  0.29319  0.90751  1.0000
  N   N12       1.0  0.65971  0.20681  0.40751  1.0000
  N   N13       1.0  0.95349  0.00914  0.78075  1.0000
  N   N14       1.0  0.54650  0.49086  0.28075  1.0000
  N   N15       1.0  0.04651  0.99086  0.21925  1.0000
  N   N16       1.0  0.45349  0.50914  0.71925  1.0000
  N   N17       1.0  0.88501  0.88796  0.57950  1.0000
  N   N18       1.0  0.61499  0.61204  0.07950  1.0000
  N   N19       1.0  0.11499  0.11204  0.42051  1.0000
  N   N20       1.0  0.38501  0.38796  0.92050  1.0000
  N   N21       1.0  0.65086  0.73355  0.51670  1.0000
  N   N22       1.0  0.84914  0.76645  0.01670  1.0000
  N   N23       1.0  0.34914  0.26645  0.48330  1.0000
  N   N24       1.0  0.15086  0.23355  0.98330  1.0000
