data_image0
_chemical_formula_structural       Ni2H28C36N24
_chemical_formula_sum              "Ni2 H28 C36 N24"
_cell_length_a       7.84354
_cell_length_b       9.14581
_cell_length_c       12.9773
_cell_angle_alpha    102.54
_cell_angle_beta     90.0001
_cell_angle_gamma    90.0002

_space_group_name_H-M_alt    "P 1"
_space_group_IT_number       1

loop_
  _space_group_symop_operation_xyz
  'x, y, z'

loop_
  _atom_site_type_symbol
  _atom_site_label
  _atom_site_symmetry_multiplicity
  _atom_site_fract_x
  _atom_site_fract_y
  _atom_site_fract_z
  _atom_site_occupancy
  Ni  Ni1       1.0  1.00000  0.00000  0.00000  1.0000
  Ni  Ni2       1.0  0.50000  0.50000  0.50000  1.0000
  H   H1        1.0  0.30698  0.84246  0.11283  1.0000
  H   H2        1.0  0.80698  0.65753  0.38717  1.0000
  H   H3        1.0  0.69302  0.15753  0.88717  1.0000
  H   H4        1.0  0.19302  0.34247  0.61283  1.0000
  H   H5        1.0  0.99718  0.39313  0.18460  1.0000
  H   H6        1.0  0.49717  0.10687  0.31540  1.0000
  H   H7        1.0  0.00283  0.60687  0.81539  1.0000
  H   H8        1.0  0.50283  0.89312  0.68460  1.0000
  H   H9        1.0  0.45702  0.65561  0.19186  1.0000
  H   H10       1.0  0.95702  0.84439  0.30814  1.0000
  H   H11       1.0  0.54298  0.34439  0.80814  1.0000
  H   H12       1.0  0.04298  0.15560  0.69186  1.0000
  H   H13       1.0  0.30577  0.43524  0.22892  1.0000
  H   H14       1.0  0.80577  0.06476  0.27108  1.0000
  H   H15       1.0  0.69423  0.56476  0.77107  1.0000
  H   H16       1.0  0.19423  0.93523  0.72892  1.0000
  H   H17       1.0  0.66084  0.87279  0.98782  1.0000
  H   H18       1.0  0.16083  0.62720  0.51217  1.0000
  H   H19       1.0  0.33916  0.12721  0.01217  1.0000
  H   H20       1.0  0.83916  0.37279  0.48783  1.0000
  H   H21       1.0  0.57231  0.69865  0.97714  1.0000
  H   H22       1.0  0.07230  0.80135  0.52285  1.0000
  H   H23       1.0  0.42769  0.30135  0.02285  1.0000
  H   H24       1.0  0.92769  0.19865  0.47715  1.0000
  H   H25       1.0  0.71999  0.53310  0.09815  1.0000
  H   H26       1.0  0.21999  0.96690  0.40185  1.0000
  H   H27       1.0  0.28001  0.46690  0.90185  1.0000
  H   H28       1.0  0.78001  0.03310  0.59815  1.0000
  C   C1        1.0  0.98159  0.59559  0.12377  1.0000
  C   C2        1.0  0.48159  0.90441  0.37623  1.0000
  C   C3        1.0  0.01841  0.40441  0.87623  1.0000
  C   C4        1.0  0.51842  0.09559  0.62377  1.0000
  C   C5        1.0  0.23907  0.74510  0.12682  1.0000
  C   C6        1.0  0.73907  0.75490  0.37318  1.0000
  C   C7        1.0  0.76093  0.25490  0.87317  1.0000
  C   C8        1.0  0.26093  0.24510  0.62682  1.0000
  C   C9        1.0  0.80094  0.73338  0.05209  1.0000
  C   C10       1.0  0.30094  0.76662  0.44791  1.0000
  C   C11       1.0  0.19906  0.26662  0.94791  1.0000
  C   C12       1.0  0.69905  0.23338  0.55209  1.0000
  C   C13       1.0  0.06605  0.72311  0.10248  1.0000
  C   C14       1.0  0.56605  0.77689  0.39752  1.0000
  C   C15       1.0  0.93395  0.27689  0.89752  1.0000
  C   C16       1.0  0.43395  0.22311  0.60248  1.0000
  C   C17       1.0  0.06380  0.49032  0.16902  1.0000
  C   C18       1.0  0.56380  0.00968  0.33098  1.0000
  C   C19       1.0  0.93620  0.50967  0.83098  1.0000
  C   C20       1.0  0.43620  0.99032  0.66902  1.0000
  C   C21       1.0  0.32286  0.63829  0.17078  1.0000
  C   C22       1.0  0.82286  0.86171  0.32921  1.0000
  C   C23       1.0  0.67714  0.36171  0.82921  1.0000
  C   C24       1.0  0.17714  0.13828  0.67079  1.0000
  C   C25       1.0  0.71617  0.20741  0.11507  1.0000
  C   C26       1.0  0.21617  0.29260  0.38494  1.0000
  C   C27       1.0  0.28384  0.79259  0.88494  1.0000
  C   C28       1.0  0.78383  0.70741  0.61507  1.0000
  C   C29       1.0  0.23694  0.51370  0.19216  1.0000
  C   C30       1.0  0.73694  0.98630  0.30784  1.0000
  C   C31       1.0  0.76306  0.48630  0.80783  1.0000
  C   C32       1.0  0.26305  0.01370  0.69216  1.0000
  C   C33       1.0  0.63224  0.36897  0.26660  1.0000
  C   C34       1.0  0.13223  0.13104  0.23340  1.0000
  C   C35       1.0  0.36777  0.63103  0.73340  1.0000
  C   C36       1.0  0.86776  0.86898  0.76660  1.0000
  N   N1        1.0  0.81470  0.60631  0.09117  1.0000
  N   N2        1.0  0.31470  0.89369  0.40883  1.0000
  N   N3        1.0  0.18530  0.39369  0.90883  1.0000
  N   N4        1.0  0.68530  0.10631  0.59117  1.0000
  N   N5        1.0  0.94975  0.80641  0.05720  1.0000
  N   N6        1.0  0.44975  0.69359  0.44280  1.0000
  N   N7        1.0  0.05025  0.19359  0.94280  1.0000
  N   N8        1.0  0.55025  0.30641  0.55721  1.0000
  N   N9        1.0  0.65128  0.77901  0.01748  1.0000
  N   N10       1.0  0.15128  0.72099  0.48251  1.0000
  N   N11       1.0  0.34872  0.22099  0.98252  1.0000
  N   N12       1.0  0.84872  0.27901  0.51749  1.0000
  N   N13       1.0  0.77396  0.09757  0.06211  1.0000
  N   N14       1.0  0.27396  0.40244  0.43790  1.0000
  N   N15       1.0  0.22604  0.90244  0.93790  1.0000
  N   N16       1.0  0.72604  0.59757  0.56210  1.0000
  N   N17       1.0  0.64824  0.33306  0.16407  1.0000
  N   N18       1.0  0.14824  0.16695  0.33594  1.0000
  N   N19       1.0  0.35176  0.66694  0.83594  1.0000
  N   N20       1.0  0.85176  0.83307  0.66406  1.0000
  N   N21       1.0  0.61393  0.41269  0.35799  1.0000
  N   N22       1.0  0.11392  0.08732  0.14202  1.0000
  N   N23       1.0  0.38608  0.58731  0.64202  1.0000
  N   N24       1.0  0.88607  0.91269  0.85799  1.0000
