data_image0
_chemical_formula_structural       Zn4H40C64N40
_chemical_formula_sum              "Zn4 H40 C64 N40"
_cell_length_a       7.76091
_cell_length_b       14.814
_cell_length_c       15.9096
_cell_angle_alpha    110.96
_cell_angle_beta     90.0004
_cell_angle_gamma    89.9998

_space_group_name_H-M_alt    "P 1"
_space_group_IT_number       1

loop_
  _space_group_symop_operation_xyz
  'x, y, z'

loop_
  _atom_site_type_symbol
  _atom_site_label
  _atom_site_symmetry_multiplicity
  _atom_site_fract_x
  _atom_site_fract_y
  _atom_site_fract_z
  _atom_site_occupancy
  Zn  Zn1       1.0  0.53692  0.17437  0.93671  1.0000
  Zn  Zn2       1.0  0.03692  0.32563  0.56329  1.0000
  Zn  Zn3       1.0  0.46309  0.82564  0.06329  1.0000
  Zn  Zn4       1.0  0.96307  0.67437  0.43671  1.0000
  H   H1        1.0  0.70584  0.03623  0.74820  1.0000
  H   H2        1.0  0.20584  0.46377  0.75181  1.0000
  H   H3        1.0  0.29415  0.96377  0.25181  1.0000
  H   H4        1.0  0.79415  0.53623  0.24819  1.0000
  H   H5        1.0  0.72517  0.01968  0.58693  1.0000
  H   H6        1.0  0.22516  0.48031  0.91308  1.0000
  H   H7        1.0  0.27483  0.98032  0.41308  1.0000
  H   H8        1.0  0.77482  0.51969  0.08692  1.0000
  H   H9        1.0  0.39620  0.27076  0.64978  1.0000
  H   H10       1.0  0.89619  0.22923  0.85021  1.0000
  H   H11       1.0  0.60381  0.72924  0.35022  1.0000
  H   H12       1.0  0.10380  0.77075  0.14978  1.0000
  H   H13       1.0  0.38182  0.27304  0.80697  1.0000
  H   H14       1.0  0.88182  0.22696  0.69303  1.0000
  H   H15       1.0  0.61818  0.72696  0.19303  1.0000
  H   H16       1.0  0.11818  0.77303  0.30697  1.0000
  H   H17       1.0  0.65506  0.07617  0.46635  1.0000
  H   H18       1.0  0.15504  0.42383  0.03366  1.0000
  H   H19       1.0  0.34495  0.92383  0.53366  1.0000
  H   H20       1.0  0.84495  0.57617  0.96634  1.0000
  H   H21       1.0  0.49979  0.31576  0.40821  1.0000
  H   H22       1.0  0.99977  0.18423  0.09178  1.0000
  H   H23       1.0  0.50024  0.68424  0.59179  1.0000
  H   H24       1.0  0.00025  0.81576  0.90821  1.0000
  H   H25       1.0  0.56910  0.06952  0.22003  1.0000
  H   H26       1.0  0.06909  0.43049  0.27996  1.0000
  H   H27       1.0  0.43091  0.93049  0.77997  1.0000
  H   H28       1.0  0.93092  0.56951  0.72003  1.0000
  H   H29       1.0  0.58147  0.05196  0.05810  1.0000
  H   H30       1.0  0.08146  0.44804  0.44190  1.0000
  H   H31       1.0  0.41854  0.94804  0.94190  1.0000
  H   H32       1.0  0.91853  0.55196  0.55809  1.0000
  H   H33       1.0  0.49547  0.34430  0.11879  1.0000
  H   H34       1.0  0.99545  0.15570  0.38121  1.0000
  H   H35       1.0  0.50455  0.65571  0.88122  1.0000
  H   H36       1.0  0.00455  0.84431  0.61879  1.0000
  H   H37       1.0  0.47705  0.37539  0.28212  1.0000
  H   H38       1.0  0.97703  0.12462  0.21788  1.0000
  H   H39       1.0  0.52297  0.62462  0.71788  1.0000
  H   H40       1.0  0.02298  0.87538  0.78213  1.0000
  C   C1        1.0  0.63671  0.08588  0.72366  1.0000
  C   C2        1.0  0.13671  0.41412  0.77634  1.0000
  C   C3        1.0  0.36329  0.91412  0.27634  1.0000
  C   C4        1.0  0.86328  0.58589  0.22365  1.0000
  C   C5        1.0  0.64865  0.07755  0.63383  1.0000
  C   C6        1.0  0.14864  0.42244  0.86618  1.0000
  C   C7        1.0  0.35135  0.92244  0.36618  1.0000
  C   C8        1.0  0.85134  0.57756  0.13382  1.0000
  C   C9        1.0  0.56206  0.14427  0.60472  1.0000
  C   C10       1.0  0.06204  0.35572  0.89528  1.0000
  C   C11       1.0  0.43794  0.85573  0.39528  1.0000
  C   C12       1.0  0.93794  0.64427  0.10472  1.0000
  C   C13       1.0  0.46483  0.21678  0.66866  1.0000
  C   C14       1.0  0.96481  0.28321  0.83134  1.0000
  C   C15       1.0  0.53518  0.78322  0.33134  1.0000
  C   C16       1.0  0.03517  0.71678  0.16865  1.0000
  C   C17       1.0  0.45804  0.21848  0.75626  1.0000
  C   C18       1.0  0.95804  0.28152  0.74373  1.0000
  C   C19       1.0  0.54196  0.78152  0.24374  1.0000
  C   C20       1.0  0.04196  0.71848  0.25626  1.0000
  C   C21       1.0  0.57351  0.13446  0.51044  1.0000
  C   C22       1.0  0.07349  0.36553  0.98956  1.0000
  C   C23       1.0  0.42650  0.86554  0.48956  1.0000
  C   C24       1.0  0.92649  0.63446  0.01043  1.0000
  C   C25       1.0  0.50716  0.24053  0.36107  1.0000
  C   C26       1.0  0.00713  0.25947  0.13893  1.0000
  C   C27       1.0  0.49288  0.75947  0.63894  1.0000
  C   C28       1.0  0.99287  0.74053  0.86106  1.0000
  C   C29       1.0  0.51889  0.22399  0.26514  1.0000
  C   C30       1.0  0.01887  0.27601  0.23486  1.0000
  C   C31       1.0  0.48114  0.77601  0.73486  1.0000
  C   C32       1.0  0.98114  0.72399  0.76514  1.0000
  C   C33       1.0  0.54940  0.13180  0.20007  1.0000
  C   C34       1.0  0.04940  0.36820  0.29993  1.0000
  C   C35       1.0  0.45060  0.86820  0.79992  1.0000
  C   C36       1.0  0.95061  0.63180  0.70007  1.0000
  C   C37       1.0  0.55723  0.12210  0.11021  1.0000
  C   C38       1.0  0.05722  0.37789  0.38978  1.0000
  C   C39       1.0  0.44277  0.87790  0.88979  1.0000
  C   C40       1.0  0.94278  0.62211  0.61021  1.0000
  C   C41       1.0  0.50997  0.28525  0.14378  1.0000
  C   C42       1.0  0.00997  0.21476  0.35622  1.0000
  C   C43       1.0  0.49005  0.71476  0.85622  1.0000
  C   C44       1.0  0.99004  0.78525  0.64378  1.0000
  C   C45       1.0  0.50018  0.30196  0.23547  1.0000
  C   C46       1.0  0.00017  0.19804  0.26453  1.0000
  C   C47       1.0  0.49984  0.69804  0.76453  1.0000
  C   C48       1.0  0.99984  0.80197  0.73547  1.0000
  C   C49       1.0  0.87869  0.06193  0.91666  1.0000
  C   C50       1.0  0.37869  0.43806  0.58333  1.0000
  C   C51       1.0  0.12131  0.93806  0.08333  1.0000
  C   C52       1.0  0.62129  0.56194  0.41667  1.0000
  C   C53       1.0  0.58910  0.37700  0.93686  1.0000
  C   C54       1.0  0.08907  0.12300  0.56314  1.0000
  C   C55       1.0  0.41091  0.62300  0.06313  1.0000
  C   C56       1.0  0.91090  0.87700  0.43687  1.0000
  C   C57       1.0  0.17302  0.07622  0.91827  1.0000
  C   C58       1.0  0.67302  0.42377  0.58173  1.0000
  C   C59       1.0  0.82699  0.92377  0.08173  1.0000
  C   C60       1.0  0.32697  0.57623  0.41827  1.0000
  C   C61       1.0  0.60005  0.46331  0.84249  1.0000
  C   C62       1.0  0.10005  0.03670  0.65753  1.0000
  C   C63       1.0  0.39992  0.53669  0.15751  1.0000
  C   C64       1.0  0.89994  0.96331  0.34249  1.0000
  N   N1        1.0  0.54408  0.15543  0.78459  1.0000
  N   N2        1.0  0.04408  0.34456  0.71541  1.0000
  N   N3        1.0  0.45592  0.84457  0.21541  1.0000
  N   N4        1.0  0.95592  0.65543  0.28459  1.0000
  N   N5        1.0  0.48985  0.19165  0.47963  1.0000
  N   N6        1.0  0.98983  0.30834  0.02038  1.0000
  N   N7        1.0  0.51016  0.80835  0.52038  1.0000
  N   N8        1.0  0.01017  0.69165  0.97961  1.0000
  N   N9        1.0  0.50633  0.16846  0.38869  1.0000
  N   N10       1.0  0.00630  0.33154  0.11131  1.0000
  N   N11       1.0  0.49370  0.83155  0.61131  1.0000
  N   N12       1.0  0.99370  0.66845  0.88868  1.0000
  N   N13       1.0  0.53794  0.19706  0.08180  1.0000
  N   N14       1.0  0.03792  0.30294  0.41819  1.0000
  N   N15       1.0  0.46208  0.80294  0.91820  1.0000
  N   N16       1.0  0.96207  0.69706  0.58181  1.0000
  N   N17       1.0  0.73185  0.08077  0.91357  1.0000
  N   N18       1.0  0.23185  0.41923  0.58643  1.0000
  N   N19       1.0  0.26815  0.91923  0.08643  1.0000
  N   N20       1.0  0.76814  0.58077  0.41357  1.0000
  N   N21       1.0  0.54505  0.31595  0.96404  1.0000
  N   N22       1.0  0.04502  0.18405  0.53596  1.0000
  N   N23       1.0  0.45497  0.68406  0.03596  1.0000
  N   N24       1.0  0.95497  0.81595  0.46404  1.0000
  N   N25       1.0  0.31050  0.10941  0.91863  1.0000
  N   N26       1.0  0.81050  0.39059  0.58137  1.0000
  N   N27       1.0  0.68952  0.89059  0.08137  1.0000
  N   N28       1.0  0.18950  0.60942  0.41863  1.0000
  N   N29       1.0  0.64365  0.44730  0.91549  1.0000
  N   N30       1.0  0.14362  0.05271  0.58451  1.0000
  N   N31       1.0  0.35633  0.55270  0.08450  1.0000
  N   N32       1.0  0.85633  0.94730  0.41550  1.0000
  N   N33       1.0  0.03202  0.03203  0.92104  1.0000
  N   N34       1.0  0.53201  0.46797  0.57896  1.0000
  N   N35       1.0  0.96798  0.96797  0.07896  1.0000
  N   N36       1.0  0.46797  0.53203  0.42104  1.0000
  N   N37       1.0  0.56881  0.48431  0.77936  1.0000
  N   N38       1.0  0.06881  0.01570  0.72065  1.0000
  N   N39       1.0  0.43114  0.51569  0.22063  1.0000
  N   N40       1.0  0.93117  0.98431  0.27937  1.0000
