data_image0
_chemical_formula_structural       Zn2H24C32N16
_chemical_formula_sum              "Zn2 H24 C32 N16"
_cell_length_a       7.62827
_cell_length_b       9.20455
_cell_length_c       12.505
_cell_angle_alpha    101.987
_cell_angle_beta     100.566
_cell_angle_gamma    104.211

_space_group_name_H-M_alt    "P 1"
_space_group_IT_number       1

loop_
  _space_group_symop_operation_xyz
  'x, y, z'

loop_
  _atom_site_type_symbol
  _atom_site_label
  _atom_site_symmetry_multiplicity
  _atom_site_fract_x
  _atom_site_fract_y
  _atom_site_fract_z
  _atom_site_occupancy
  Zn  Zn1       1.0  0.59547  0.91551  0.70196  1.0000
  Zn  Zn2       1.0  0.40453  0.08449  0.29805  1.0000
  H   H1        1.0  0.34113  0.82381  0.46282  1.0000
  H   H2        1.0  0.65888  0.17620  0.53718  1.0000
  H   H3        1.0  0.39370  0.35410  0.73454  1.0000
  H   H4        1.0  0.60631  0.64590  0.26546  1.0000
  H   H5        1.0  0.82874  0.87253  0.92321  1.0000
  H   H6        1.0  0.17126  0.12748  0.07679  1.0000
  H   H7        1.0  0.03067  0.47148  0.23364  1.0000
  H   H8        1.0  0.96934  0.52852  0.76635  1.0000
  H   H9        1.0  0.17453  0.66706  0.25907  1.0000
  H   H10       1.0  0.82548  0.33294  0.74093  1.0000
  H   H11       1.0  0.96669  0.62995  0.30553  1.0000
  H   H12       1.0  0.03332  0.37005  0.69447  1.0000
  H   H13       1.0  0.25305  0.32995  0.56653  1.0000
  H   H14       1.0  0.74696  0.67005  0.43346  1.0000
  H   H15       1.0  0.07264  0.33040  0.37998  1.0000
  H   H16       1.0  0.92736  0.66960  0.62002  1.0000
  H   H17       1.0  0.59889  0.39619  0.92390  1.0000
  H   H18       1.0  0.40113  0.60381  0.07610  1.0000
  H   H19       1.0  0.93665  0.79289  0.08965  1.0000
  H   H20       1.0  0.06335  0.20710  0.91035  1.0000
  H   H21       1.0  0.97073  0.60804  0.04747  1.0000
  H   H22       1.0  0.02927  0.39195  0.95253  1.0000
  H   H23       1.0  0.78731  0.62578  0.11191  1.0000
  H   H24       1.0  0.21270  0.37421  0.88808  1.0000
  C   C1        1.0  0.38978  0.57835  0.61530  1.0000
  C   C2        1.0  0.61023  0.42165  0.38470  1.0000
  C   C3        1.0  0.31542  0.71178  0.48276  1.0000
  C   C4        1.0  0.68458  0.28822  0.51725  1.0000
  C   C5        1.0  0.19087  0.57735  0.40531  1.0000
  C   C6        1.0  0.80913  0.42265  0.59469  1.0000
  C   C7        1.0  0.97878  0.02842  0.64392  1.0000
  C   C8        1.0  0.02120  0.97157  0.35607  1.0000
  C   C9        1.0  0.50375  0.59153  0.72810  1.0000
  C   C10       1.0  0.49625  0.40847  0.27191  1.0000
  C   C11       1.0  0.49230  0.46765  0.77785  1.0000
  C   C12       1.0  0.50771  0.53235  0.22215  1.0000
  C   C13       1.0  0.73545  0.75496  0.88418  1.0000
  C   C14       1.0  0.26455  0.24504  0.11582  1.0000
  C   C15       1.0  0.08587  0.58618  0.29437  1.0000
  C   C16       1.0  0.91415  0.41383  0.70563  1.0000
  C   C17       1.0  0.73501  0.63782  0.93963  1.0000
  C   C18       1.0  0.26500  0.36218  0.06037  1.0000
  C   C19       1.0  0.26934  0.43858  0.54247  1.0000
  C   C20       1.0  0.73066  0.56143  0.45752  1.0000
  C   C21       1.0  0.16867  0.43835  0.43753  1.0000
  C   C22       1.0  0.83134  0.56165  0.56247  1.0000
  C   C23       1.0  0.60756  0.49137  0.88376  1.0000
  C   C24       1.0  0.39245  0.50863  0.11625  1.0000
  C   C25       1.0  0.67845  0.13215  0.95097  1.0000
  C   C26       1.0  0.32155  0.86785  0.04903  1.0000
  C   C27       1.0  0.86388  0.66872  0.05307  1.0000
  C   C28       1.0  0.13613  0.33128  0.94693  1.0000
  C   C29       1.0  0.28863  0.06435  0.63841  1.0000
  C   C30       1.0  0.71136  0.93565  0.36159  1.0000
  C   C31       1.0  0.76101  0.18465  0.14407  1.0000
  C   C32       1.0  0.23898  0.81535  0.85594  1.0000
  N   N1        1.0  0.41015  0.71224  0.58404  1.0000
  N   N2        1.0  0.58985  0.28777  0.41596  1.0000
  N   N3        1.0  0.62369  0.73305  0.78274  1.0000
  N   N4        1.0  0.37631  0.26695  0.21727  1.0000
  N   N5        1.0  0.43503  0.04514  0.63515  1.0000
  N   N6        1.0  0.56496  0.95486  0.36485  1.0000
  N   N7        1.0  0.82358  0.97098  0.64503  1.0000
  N   N8        1.0  0.17640  0.02901  0.35497  1.0000
  N   N9        1.0  0.66562  0.07015  0.85600  1.0000
  N   N10       1.0  0.33438  0.92986  0.14400  1.0000
  N   N11       1.0  0.14041  0.10740  0.63963  1.0000
  N   N12       1.0  0.85957  0.89259  0.36035  1.0000
  N   N13       1.0  0.68858  0.21303  0.05018  1.0000
  N   N14       1.0  0.31141  0.78698  0.94983  1.0000
  N   N15       1.0  0.82387  0.17039  0.23344  1.0000
  N   N16       1.0  0.17611  0.82961  0.76656  1.0000
