data_image0
_chemical_formula_structural       ZnH60C52S2N6O12
_chemical_formula_sum              "Zn1 H60 C52 S2 N6 O12"
_cell_length_a       10.9794
_cell_length_b       12.2721
_cell_length_c       12.5836
_cell_angle_alpha    60.5895
_cell_angle_beta     80.1425
_cell_angle_gamma    65.2028

_space_group_name_H-M_alt    "P 1"
_space_group_IT_number       1

loop_
  _space_group_symop_operation_xyz
  'x, y, z'

loop_
  _atom_site_type_symbol
  _atom_site_label
  _atom_site_symmetry_multiplicity
  _atom_site_fract_x
  _atom_site_fract_y
  _atom_site_fract_z
  _atom_site_occupancy
  Zn  Zn1       1.0  0.00000  0.00000  0.00000  1.0000
  H   H1        1.0  0.54753  0.03554  0.81822  1.0000
  H   H2        1.0  0.45246  0.96446  0.18178  1.0000
  H   H3        1.0  0.66248  0.92135  0.68994  1.0000
  H   H4        1.0  0.33752  0.07865  0.31006  1.0000
  H   H5        1.0  0.58910  0.31332  0.37444  1.0000
  H   H6        1.0  0.41090  0.68668  0.62556  1.0000
  H   H7        1.0  0.47263  0.42596  0.50030  1.0000
  H   H8        1.0  0.52737  0.57404  0.49969  1.0000
  H   H9        1.0  0.80486  0.03248  0.42796  1.0000
  H   H10       1.0  0.19514  0.96752  0.57204  1.0000
  H   H11       1.0  0.64746  0.09828  0.35437  1.0000
  H   H12       1.0  0.35255  0.90172  0.64563  1.0000
  H   H13       1.0  0.70255  0.93717  0.48691  1.0000
  H   H14       1.0  0.29745  0.06283  0.51309  1.0000
  H   H15       1.0  0.57965  0.30452  0.88148  1.0000
  H   H16       1.0  0.42035  0.69548  0.11852  1.0000
  H   H17       1.0  0.46542  0.16659  0.12845  1.0000
  H   H18       1.0  0.53458  0.83342  0.87155  1.0000
  H   H19       1.0  0.59239  0.22751  0.10701  1.0000
  H   H20       1.0  0.40761  0.77249  0.89299  1.0000
  H   H21       1.0  0.31431  0.40536  0.97640  1.0000
  H   H22       1.0  0.68570  0.59464  0.02360  1.0000
  H   H23       1.0  0.43773  0.46364  0.97187  1.0000
  H   H24       1.0  0.56227  0.53636  0.02814  1.0000
  H   H25       1.0  0.16599  0.52933  0.25175  1.0000
  H   H26       1.0  0.83401  0.47066  0.74826  1.0000
  H   H27       1.0  0.22199  0.66712  0.18389  1.0000
  H   H28       1.0  0.77801  0.33287  0.81612  1.0000
  H   H29       1.0  0.32446  0.50245  0.30140  1.0000
  H   H30       1.0  0.67554  0.49754  0.69861  1.0000
  H   H31       1.0  0.82802  0.10663  0.78023  1.0000
  H   H32       1.0  0.17198  0.89336  0.21977  1.0000
  H   H33       1.0  0.80743  0.25901  0.55650  1.0000
  H   H34       1.0  0.19257  0.74099  0.44350  1.0000
  H   H35       1.0  0.17287  0.29319  0.59338  1.0000
  H   H36       1.0  0.82713  0.70682  0.40662  1.0000
  H   H37       1.0  0.17615  0.14247  0.81551  1.0000
  H   H38       1.0  0.82385  0.85754  0.18448  1.0000
  H   H39       1.0  0.88989  0.47186  0.39301  1.0000
  H   H40       1.0  0.11010  0.52814  0.60699  1.0000
  H   H41       1.0  0.06705  0.41312  0.39493  1.0000
  H   H42       1.0  0.93294  0.58688  0.60507  1.0000
  H   H43       1.0  0.90872  0.26579  0.37918  1.0000
  H   H44       1.0  0.09128  0.73421  0.62081  1.0000
  H   H45       1.0  0.08363  0.22171  0.36497  1.0000
  H   H46       1.0  0.91638  0.77829  0.63503  1.0000
  H   H47       1.0  0.86551  0.48918  0.19252  1.0000
  H   H48       1.0  0.13449  0.51082  0.80748  1.0000
  H   H49       1.0  0.04048  0.44636  0.17500  1.0000
  H   H50       1.0  0.95952  0.55364  0.82499  1.0000
  H   H51       1.0  0.77788  0.30597  0.21267  1.0000
  H   H52       1.0  0.22212  0.69403  0.78733  1.0000
  H   H53       1.0  0.80186  0.15796  0.12076  1.0000
  H   H54       1.0  0.19813  0.84205  0.87924  1.0000
  H   H55       1.0  0.16295  0.17810  0.97336  1.0000
  H   H56       1.0  0.83705  0.82190  0.02664  1.0000
  H   H57       1.0  0.15614  0.32383  0.06043  1.0000
  H   H58       1.0  0.84386  0.67617  0.93957  1.0000
  H   H59       1.0  0.41650  0.14168  0.93467  1.0000
  H   H60       1.0  0.58350  0.85833  0.06533  1.0000
  C   C1        1.0  0.55725  0.09551  0.72088  1.0000
  C   C2        1.0  0.44275  0.90449  0.27912  1.0000
  C   C3        1.0  0.62227  0.03212  0.64850  1.0000
  C   C4        1.0  0.37773  0.96788  0.35150  1.0000
  C   C5        1.0  0.63342  0.10855  0.52269  1.0000
  C   C6        1.0  0.36658  0.89145  0.47730  1.0000
  C   C7        1.0  0.58048  0.25079  0.47154  1.0000
  C   C8        1.0  0.41952  0.74921  0.52846  1.0000
  C   C9        1.0  0.51488  0.31547  0.54245  1.0000
  C   C10       1.0  0.48512  0.68453  0.45755  1.0000
  C   C11       1.0  0.50237  0.23730  0.66711  1.0000
  C   C12       1.0  0.49763  0.76269  0.33289  1.0000
  C   C13       1.0  0.70033  0.04037  0.44415  1.0000
  C   C14       1.0  0.29967  0.95963  0.55585  1.0000
  C   C15       1.0  0.54946  0.22204  0.94942  1.0000
  C   C16       1.0  0.45054  0.77796  0.05058  1.0000
  C   C17       1.0  0.67205  0.08649  0.98752  1.0000
  C   C18       1.0  0.32795  0.91351  0.01248  1.0000
  C   C19       1.0  0.50400  0.24365  0.06262  1.0000
  C   C20       1.0  0.49600  0.75635  0.93738  1.0000
  C   C21       1.0  0.39760  0.38558  0.03015  1.0000
  C   C22       1.0  0.60241  0.61442  0.96985  1.0000
  C   C23       1.0  0.33850  0.40188  0.14136  1.0000
  C   C24       1.0  0.66149  0.59811  0.85865  1.0000
  C   C25       1.0  0.25318  0.55733  0.22323  1.0000
  C   C26       1.0  0.74683  0.44266  0.77677  1.0000
  C   C27       1.0  0.90200  0.15078  0.73474  1.0000
  C   C28       1.0  0.09800  0.84921  0.26526  1.0000
  C   C29       1.0  0.89180  0.23548  0.60985  1.0000
  C   C30       1.0  0.10820  0.76452  0.39015  1.0000
  C   C31       1.0  0.98963  0.28988  0.55438  1.0000
  C   C32       1.0  0.01037  0.71012  0.44563  1.0000
  C   C33       1.0  0.09367  0.25462  0.63011  1.0000
  C   C34       1.0  0.90633  0.74539  0.36989  1.0000
  C   C35       1.0  0.09617  0.17037  0.75504  1.0000
  C   C36       1.0  0.90383  0.82964  0.24496  1.0000
  C   C37       1.0  0.98304  0.37986  0.41935  1.0000
  C   C38       1.0  0.01696  0.62015  0.58065  1.0000
  C   C39       1.0  0.98655  0.30820  0.34712  1.0000
  C   C40       1.0  0.01345  0.69180  0.65288  1.0000
  C   C41       1.0  0.96313  0.40377  0.20917  1.0000
  C   C42       1.0  0.03687  0.59623  0.79083  1.0000
  C   C43       1.0  0.96637  0.32751  0.14467  1.0000
  C   C44       1.0  0.03363  0.67250  0.85532  1.0000
  C   C45       1.0  0.86499  0.28038  0.15980  1.0000
  C   C46       1.0  0.13501  0.71963  0.84020  1.0000
  C   C47       1.0  0.87714  0.19860  0.10894  1.0000
  C   C48       1.0  0.12286  0.80140  0.89106  1.0000
  C   C49       1.0  0.07776  0.21054  0.02496  1.0000
  C   C50       1.0  0.92223  0.78946  0.97504  1.0000
  C   C51       1.0  0.07365  0.29147  0.07454  1.0000
  C   C52       1.0  0.92635  0.70853  0.92547  1.0000
  S   S1        1.0  0.39715  0.32249  0.75055  1.0000
  S   S2        1.0  0.60285  0.67751  0.24945  1.0000
  N   N1        1.0  0.43793  0.22797  0.89521  1.0000
  N   N2        1.0  0.56207  0.77202  0.10479  1.0000
  N   N3        1.0  0.00166  0.11936  0.80709  1.0000
  N   N4        1.0  0.99835  0.88064  0.19291  1.0000
  N   N5        1.0  0.98184  0.16285  0.04281  1.0000
  N   N6        1.0  0.01816  0.83715  0.95718  1.0000
  O   O1        1.0  0.78445  0.09648  0.98027  1.0000
  O   O2        1.0  0.21554  0.90352  0.01973  1.0000
  O   O3        1.0  0.65279  0.97921  0.02650  1.0000
  O   O4        1.0  0.34721  0.02079  0.97350  1.0000
  O   O5        1.0  0.41905  0.44569  0.70977  1.0000
  O   O6        1.0  0.58095  0.55431  0.29023  1.0000
  O   O7        1.0  0.26357  0.33313  0.73660  1.0000
  O   O8        1.0  0.73643  0.66687  0.26340  1.0000
  O   O9        1.0  0.30971  0.31651  0.23361  1.0000
  O   O10       1.0  0.69028  0.68349  0.76638  1.0000
  O   O11       1.0  0.31799  0.52563  0.12576  1.0000
  O   O12       1.0  0.68201  0.47437  0.87425  1.0000
