data_image0
_chemical_formula_structural       Cs2U2H30C20O22
_chemical_formula_sum              "Cs2 U2 H30 C20 O22"
_cell_length_a       8.28267
_cell_length_b       10.3804
_cell_length_c       10.6815
_cell_angle_alpha    68.1845
_cell_angle_beta     71.0253
_cell_angle_gamma    79.9916

_space_group_name_H-M_alt    "P 1"
_space_group_IT_number       1

loop_
  _space_group_symop_operation_xyz
  'x, y, z'

loop_
  _atom_site_type_symbol
  _atom_site_label
  _atom_site_symmetry_multiplicity
  _atom_site_fract_x
  _atom_site_fract_y
  _atom_site_fract_z
  _atom_site_occupancy
  Cs  Cs1       1.0  0.34617  0.53371  0.20691  1.0000
  Cs  Cs2       1.0  0.65383  0.46629  0.79309  1.0000
  U   U1        1.0  0.82079  0.34513  0.38973  1.0000
  U   U2        1.0  0.17921  0.65487  0.61027  1.0000
  H   H1        1.0  0.89742  0.14643  0.71523  1.0000
  H   H2        1.0  0.10258  0.85357  0.28477  1.0000
  H   H3        1.0  0.36124  0.80637  0.91699  1.0000
  H   H4        1.0  0.63876  0.19363  0.08301  1.0000
  H   H5        1.0  0.32119  0.73437  0.82752  1.0000
  H   H6        1.0  0.67881  0.26563  0.17248  1.0000
  H   H7        1.0  0.21854  0.28804  0.63274  1.0000
  H   H8        1.0  0.78146  0.71196  0.36726  1.0000
  H   H9        1.0  0.31383  0.17902  0.76847  1.0000
  H   H10       1.0  0.68617  0.82098  0.23154  1.0000
  H   H11       1.0  0.39658  0.99640  0.65807  1.0000
  H   H12       1.0  0.60342  0.00359  0.34193  1.0000
  H   H13       1.0  0.17519  0.02767  0.71668  1.0000
  H   H14       1.0  0.82481  0.97232  0.28332  1.0000
  H   H15       1.0  0.38955  0.14954  0.40652  1.0000
  H   H16       1.0  0.61045  0.85046  0.59348  1.0000
  H   H17       1.0  0.27449  0.99733  0.47942  1.0000
  H   H18       1.0  0.72551  0.00267  0.52058  1.0000
  H   H19       1.0  0.99924  0.70537  0.93493  1.0000
  H   H20       1.0  0.00076  0.29462  0.06507  1.0000
  H   H21       1.0  0.93415  0.79099  0.05887  1.0000
  H   H22       1.0  0.06584  0.20901  0.94113  1.0000
  H   H23       1.0  0.62359  0.79563  0.05796  1.0000
  H   H24       1.0  0.37641  0.20437  0.94203  1.0000
  H   H25       1.0  0.69800  0.71626  0.92719  1.0000
  H   H26       1.0  0.30200  0.28374  0.07281  1.0000
  H   H27       1.0  0.88172  0.92303  0.77041  1.0000
  H   H28       1.0  0.11828  0.07697  0.22959  1.0000
  H   H29       1.0  0.65919  0.95856  0.80435  1.0000
  H   H30       1.0  0.34081  0.04144  0.19565  1.0000
  C   C1        1.0  0.48983  0.26159  0.56908  1.0000
  C   C2        1.0  0.51017  0.73841  0.43092  1.0000
  C   C3        1.0  0.31822  0.20631  0.65805  1.0000
  C   C4        1.0  0.68178  0.79368  0.34195  1.0000
  C   C5        1.0  0.29148  0.07373  0.63708  1.0000
  C   C6        1.0  0.70852  0.92627  0.36292  1.0000
  C   C7        1.0  0.27890  0.09806  0.49030  1.0000
  C   C8        1.0  0.72110  0.90194  0.50970  1.0000
  C   C9        1.0  0.12088  0.18244  0.46022  1.0000
  C   C10       1.0  0.87912  0.81756  0.53979  1.0000
  C   C11       1.0  0.86474  0.58500  0.14005  1.0000
  C   C12       1.0  0.13526  0.41500  0.85994  1.0000
  C   C13       1.0  0.89055  0.72130  0.02099  1.0000
  C   C14       1.0  0.10944  0.27870  0.97901  1.0000
  C   C15       1.0  0.73317  0.78509  0.96990  1.0000
  C   C16       1.0  0.26683  0.21491  0.03010  1.0000
  C   C17       1.0  0.76362  0.92681  0.85463  1.0000
  C   C18       1.0  0.23638  0.07319  0.14537  1.0000
  C   C19       1.0  0.76611  0.04336  0.90615  1.0000
  C   C20       1.0  0.23389  0.95664  0.09385  1.0000
  O   O1        1.0  0.81011  0.23156  0.29711  1.0000
  O   O2        1.0  0.18990  0.76844  0.70289  1.0000
  O   O3        1.0  0.83473  0.45646  0.48179  1.0000
  O   O4        1.0  0.16527  0.54354  0.51821  1.0000
  O   O5        1.0  0.50735  0.36343  0.45285  1.0000
  O   O6        1.0  0.49265  0.63657  0.54715  1.0000
  O   O7        1.0  0.62500  0.20303  0.60620  1.0000
  O   O8        1.0  0.37500  0.79697  0.39381  1.0000
  O   O9        1.0  0.12949  0.27974  0.34269  1.0000
  O   O10       1.0  0.87051  0.72026  0.65731  1.0000
  O   O11       1.0  0.97186  0.15678  0.54949  1.0000
  O   O12       1.0  0.02814  0.84322  0.45051  1.0000
  O   O13       1.0  0.71475  0.54436  0.21487  1.0000
  O   O14       1.0  0.28525  0.45564  0.78513  1.0000
  O   O15       1.0  0.99418  0.50800  0.17239  1.0000
  O   O16       1.0  0.00583  0.49200  0.82761  1.0000
  O   O17       1.0  0.69354  0.04175  0.02743  1.0000
  O   O18       1.0  0.30645  0.95825  0.97257  1.0000
  O   O19       1.0  0.84842  0.15583  0.81135  1.0000
  O   O20       1.0  0.15158  0.84417  0.18865  1.0000
  O   O21       1.0  0.39397  0.72319  0.88781  1.0000
  O   O22       1.0  0.60603  0.27681  0.11219  1.0000
