data_image0
_chemical_formula_structural       Cd3H46C54N10O12
_chemical_formula_sum              "Cd3 H46 C54 N10 O12"
_cell_length_a       8.21178
_cell_length_b       10.927
_cell_length_c       15.3119
_cell_angle_alpha    71.342
_cell_angle_beta     74.4809
_cell_angle_gamma    70.4501

_space_group_name_H-M_alt    "P 1"
_space_group_IT_number       1

loop_
  _space_group_symop_operation_xyz
  'x, y, z'

loop_
  _atom_site_type_symbol
  _atom_site_label
  _atom_site_symmetry_multiplicity
  _atom_site_fract_x
  _atom_site_fract_y
  _atom_site_fract_z
  _atom_site_occupancy
  Cd  Cd1       1.0  0.09043  0.92753  0.77765  1.0000
  Cd  Cd2       1.0  0.90957  0.07247  0.22235  1.0000
  Cd  Cd3       1.0  0.00000  1.00000  0.00000  1.0000
  H   H1        1.0  0.04047  0.73669  0.36218  1.0000
  H   H2        1.0  0.95953  0.26331  0.63782  1.0000
  H   H3        1.0  0.39011  0.94575  0.59146  1.0000
  H   H4        1.0  0.60990  0.05425  0.40854  1.0000
  H   H5        1.0  0.46555  0.90333  0.42918  1.0000
  H   H6        1.0  0.53445  0.09667  0.57081  1.0000
  H   H7        1.0  0.25944  0.82052  0.38393  1.0000
  H   H8        1.0  0.74056  0.17948  0.61607  1.0000
  H   H9        1.0  0.54260  0.69303  0.71547  1.0000
  H   H10       1.0  0.45741  0.30697  0.28453  1.0000
  H   H11       1.0  0.49412  0.75571  0.86577  1.0000
  H   H12       1.0  0.50588  0.24430  0.13423  1.0000
  H   H13       1.0  0.71465  0.85285  0.88843  1.0000
  H   H14       1.0  0.28535  0.14716  0.11157  1.0000
  H   H15       1.0  0.05079  0.57072  0.30040  1.0000
  H   H16       1.0  0.94921  0.42927  0.69960  1.0000
  H   H17       1.0  0.52957  0.59851  0.46328  1.0000
  H   H18       1.0  0.47043  0.40149  0.53672  1.0000
  H   H19       1.0  0.48224  0.47156  0.36483  1.0000
  H   H20       1.0  0.51775  0.52845  0.63517  1.0000
  H   H21       1.0  0.72686  0.40992  0.23216  1.0000
  H   H22       1.0  0.27313  0.59008  0.76784  1.0000
  H   H23       1.0  0.61113  0.33348  0.77663  1.0000
  H   H24       1.0  0.38888  0.66652  0.22337  1.0000
  H   H25       1.0  0.71872  0.32965  0.86344  1.0000
  H   H26       1.0  0.28128  0.67034  0.13656  1.0000
  H   H27       1.0  0.55111  0.19410  0.98681  1.0000
  H   H28       1.0  0.44889  0.80589  0.01319  1.0000
  H   H29       1.0  0.40312  0.33079  0.92392  1.0000
  H   H30       1.0  0.59688  0.66920  0.07608  1.0000
  H   H31       1.0  0.51397  0.03591  0.92114  1.0000
  H   H32       1.0  0.48603  0.96409  0.07886  1.0000
  H   H33       1.0  0.30232  0.13440  0.95646  1.0000
  H   H34       1.0  0.69768  0.86560  0.04354  1.0000
  H   H35       1.0  0.50436  0.17424  0.75306  1.0000
  H   H36       1.0  0.49564  0.82576  0.24694  1.0000
  H   H37       1.0  0.29351  0.27090  0.79131  1.0000
  H   H38       1.0  0.70649  0.72910  0.20869  1.0000
  H   H39       1.0  0.16427  0.53457  0.09265  1.0000
  H   H40       1.0  0.83573  0.46543  0.90735  1.0000
  H   H41       1.0  0.34064  0.50455  0.99727  1.0000
  H   H42       1.0  0.65936  0.49545  0.00273  1.0000
  H   H43       1.0  0.13799  0.47960  0.91258  1.0000
  H   H44       1.0  0.86201  0.52040  0.08742  1.0000
  H   H45       1.0  0.13833  0.36552  0.02442  1.0000
  H   H46       1.0  0.86167  0.63448  0.97558  1.0000
  C   C1        1.0  0.30614  0.90877  0.56759  1.0000
  C   C2        1.0  0.69387  0.09122  0.43241  1.0000
  C   C3        1.0  0.34688  0.88570  0.47810  1.0000
  C   C4        1.0  0.65312  0.11430  0.52190  1.0000
  C   C5        1.0  0.23414  0.83811  0.45316  1.0000
  C   C6        1.0  0.76586  0.16190  0.54684  1.0000
  C   C7        1.0  0.08393  0.81205  0.51816  1.0000
  C   C8        1.0  0.91607  0.18796  0.48184  1.0000
  C   C9        1.0  0.96464  0.75504  0.50310  1.0000
  C   C10       1.0  0.03536  0.24497  0.49690  1.0000
  C   C11       1.0  0.81964  0.72561  0.57010  1.0000
  C   C12       1.0  0.18036  0.27439  0.42990  1.0000
  C   C13       1.0  0.77953  0.75785  0.65834  1.0000
  C   C14       1.0  0.22047  0.24215  0.34166  1.0000
  C   C15       1.0  0.63400  0.73545  0.72837  1.0000
  C   C16       1.0  0.36600  0.26455  0.27163  1.0000
  C   C17       1.0  0.60820  0.76921  0.81165  1.0000
  C   C18       1.0  0.39180  0.23079  0.18835  1.0000
  C   C19       1.0  0.72963  0.82421  0.82416  1.0000
  C   C20       1.0  0.27038  0.17580  0.17583  1.0000
  C   C21       1.0  0.89599  0.81495  0.67660  1.0000
  C   C22       1.0  0.10401  0.18505  0.32340  1.0000
  C   C23       1.0  0.05037  0.83967  0.60716  1.0000
  C   C24       1.0  0.94963  0.16033  0.39284  1.0000
  C   C25       1.0  0.82847  0.65584  0.45185  1.0000
  C   C26       1.0  0.17153  0.34416  0.54815  1.0000
  C   C27       1.0  0.92160  0.55280  0.31570  1.0000
  C   C28       1.0  0.07840  0.44720  0.68430  1.0000
  C   C29       1.0  0.79381  0.59293  0.39068  1.0000
  C   C30       1.0  0.20619  0.40707  0.60932  1.0000
  C   C31       1.0  0.63165  0.56579  0.40698  1.0000
  C   C32       1.0  0.36835  0.43421  0.59303  1.0000
  C   C33       1.0  0.60531  0.49817  0.35111  1.0000
  C   C34       1.0  0.39469  0.50183  0.64889  1.0000
  C   C35       1.0  0.74113  0.46262  0.27845  1.0000
  C   C36       1.0  0.25887  0.53738  0.72156  1.0000
  C   C37       1.0  0.80183  0.15034  0.82088  1.0000
  C   C38       1.0  0.19818  0.84965  0.17913  1.0000
  C   C39       1.0  0.65696  0.27099  0.84214  1.0000
  C   C40       1.0  0.34304  0.72900  0.15786  1.0000
  C   C41       1.0  0.50492  0.23635  0.91937  1.0000
  C   C42       1.0  0.49509  0.76364  0.08063  1.0000
  C   C43       1.0  0.42466  0.13725  0.90536  1.0000
  C   C44       1.0  0.57534  0.86275  0.09464  1.0000
  C   C45       1.0  0.38598  0.17043  0.80710  1.0000
  C   C46       1.0  0.61402  0.82957  0.19290  1.0000
  C   C47       1.0  0.30364  0.07618  0.79122  1.0000
  C   C48       1.0  0.69637  0.92381  0.20879  1.0000
  C   C49       1.0  0.15114  0.69557  0.96638  1.0000
  C   C50       1.0  0.84886  0.30443  0.03362  1.0000
  C   C51       1.0  0.19786  0.54679  0.01651  1.0000
  C   C52       1.0  0.80214  0.45321  0.98349  1.0000
  C   C53       1.0  0.09950  0.47265  0.98811  1.0000
  C   C54       1.0  0.90050  0.52735  0.01190  1.0000
  N   N1        1.0  0.16278  0.88721  0.62926  1.0000
  N   N2        1.0  0.83723  0.11279  0.37074  1.0000
  N   N3        1.0  0.86835  0.84614  0.75887  1.0000
  N   N4        1.0  0.13165  0.15386  0.24112  1.0000
  N   N5        1.0  0.96808  0.70964  0.42882  1.0000
  N   N6        1.0  0.03192  0.29036  0.57118  1.0000
  N   N7        1.0  0.73647  0.66304  0.53767  1.0000
  N   N8        1.0  0.26353  0.33696  0.46233  1.0000
  N   N9        1.0  0.89648  0.49036  0.26025  1.0000
  N   N10       1.0  0.10351  0.50963  0.73975  1.0000
  O   O1        1.0  0.88891  0.15717  0.73777  1.0000
  O   O2        1.0  0.11109  0.84283  0.26223  1.0000
  O   O3        1.0  0.83439  0.04195  0.88591  1.0000
  O   O4        1.0  0.16562  0.95804  0.11409  1.0000
  O   O5        1.0  0.21320  0.01037  0.86200  1.0000
  O   O6        1.0  0.78682  0.98961  0.13801  1.0000
  O   O7        1.0  0.32085  0.06453  0.70955  1.0000
  O   O8        1.0  0.67914  0.93546  0.29045  1.0000
  O   O9        1.0  0.19582  0.72508  0.87729  1.0000
  O   O10       1.0  0.80416  0.27492  0.12272  1.0000
  O   O11       1.0  0.06748  0.77747  0.01712  1.0000
  O   O12       1.0  0.93251  0.22253  0.98288  1.0000
