data_image0
_chemical_formula_structural       Rb2U2H30C20O22
_chemical_formula_sum              "Rb2 U2 H30 C20 O22"
_cell_length_a       8.18453
_cell_length_b       10.3171
_cell_length_c       10.5452
_cell_angle_alpha    68.4669
_cell_angle_beta     71.1017
_cell_angle_gamma    80.519

_space_group_name_H-M_alt    "P 1"
_space_group_IT_number       1

loop_
  _space_group_symop_operation_xyz
  'x, y, z'

loop_
  _atom_site_type_symbol
  _atom_site_label
  _atom_site_symmetry_multiplicity
  _atom_site_fract_x
  _atom_site_fract_y
  _atom_site_fract_z
  _atom_site_occupancy
  Rb  Rb1       1.0  0.34476  0.52635  0.21078  1.0000
  Rb  Rb2       1.0  0.65524  0.47365  0.78922  1.0000
  U   U1        1.0  0.81708  0.35061  0.38809  1.0000
  U   U2        1.0  0.18292  0.64938  0.61191  1.0000
  H   H1        1.0  0.88669  0.15835  0.71076  1.0000
  H   H2        1.0  0.11331  0.84165  0.28923  1.0000
  H   H3        1.0  0.36557  0.78696  0.92713  1.0000
  H   H4        1.0  0.63443  0.21305  0.07287  1.0000
  H   H5        1.0  0.32022  0.70893  0.84402  1.0000
  H   H6        1.0  0.67978  0.29107  0.15598  1.0000
  H   H7        1.0  0.20825  0.28423  0.63417  1.0000
  H   H8        1.0  0.79175  0.71577  0.36583  1.0000
  H   H9        1.0  0.30723  0.17593  0.76935  1.0000
  H   H10       1.0  0.69277  0.82407  0.23065  1.0000
  H   H11       1.0  0.16709  0.02325  0.71415  1.0000
  H   H12       1.0  0.83290  0.97675  0.28585  1.0000
  H   H13       1.0  0.39126  0.99374  0.65683  1.0000
  H   H14       1.0  0.60873  0.00626  0.34317  1.0000
  H   H15       1.0  0.38953  0.14720  0.40254  1.0000
  H   H16       1.0  0.61047  0.85280  0.59746  1.0000
  H   H17       1.0  0.26808  0.99647  0.47296  1.0000
  H   H18       1.0  0.73192  0.00353  0.52704  1.0000
  H   H19       1.0  0.99382  0.71369  0.93071  1.0000
  H   H20       1.0  0.00619  0.28631  0.06929  1.0000
  H   H21       1.0  0.93583  0.79997  0.05523  1.0000
  H   H22       1.0  0.06417  0.20002  0.94477  1.0000
  H   H23       1.0  0.68698  0.72521  0.92911  1.0000
  H   H24       1.0  0.31302  0.27480  0.07089  1.0000
  H   H25       1.0  0.61731  0.80513  0.06108  1.0000
  H   H26       1.0  0.38269  0.19487  0.93892  1.0000
  H   H27       1.0  0.87583  0.93340  0.76846  1.0000
  H   H28       1.0  0.12417  0.06660  0.23154  1.0000
  H   H29       1.0  0.65112  0.96761  0.80357  1.0000
  H   H30       1.0  0.34888  0.03239  0.19643  1.0000
  C   C1        1.0  0.48287  0.26171  0.56713  1.0000
  C   C2        1.0  0.51713  0.73829  0.43287  1.0000
  C   C3        1.0  0.31041  0.20380  0.65791  1.0000
  C   C4        1.0  0.68959  0.79620  0.34209  1.0000
  C   C5        1.0  0.28531  0.07057  0.63513  1.0000
  C   C6        1.0  0.71469  0.92943  0.36487  1.0000
  C   C7        1.0  0.27540  0.09657  0.48547  1.0000
  C   C8        1.0  0.72460  0.90343  0.51453  1.0000
  C   C9        1.0  0.11872  0.18492  0.45518  1.0000
  C   C10       1.0  0.88128  0.81508  0.54482  1.0000
  C   C11       1.0  0.86084  0.59372  0.13950  1.0000
  C   C12       1.0  0.13916  0.40628  0.86050  1.0000
  C   C13       1.0  0.88661  0.73029  0.01914  1.0000
  C   C14       1.0  0.11339  0.26971  0.98086  1.0000
  C   C15       1.0  0.72607  0.79456  0.97073  1.0000
  C   C16       1.0  0.27393  0.20544  0.02927  1.0000
  C   C17       1.0  0.75670  0.93658  0.85414  1.0000
  C   C18       1.0  0.24331  0.06342  0.14586  1.0000
  C   C19       1.0  0.75915  0.05497  0.90502  1.0000
  C   C20       1.0  0.24086  0.94503  0.09498  1.0000
  O   O1        1.0  0.80838  0.24026  0.28915  1.0000
  O   O2        1.0  0.19162  0.75974  0.71085  1.0000
  O   O3        1.0  0.82875  0.45695  0.48838  1.0000
  O   O4        1.0  0.17125  0.54305  0.51162  1.0000
  O   O5        1.0  0.49989  0.36456  0.45036  1.0000
  O   O6        1.0  0.50011  0.63543  0.54964  1.0000
  O   O7        1.0  0.61971  0.20373  0.60380  1.0000
  O   O8        1.0  0.38029  0.79627  0.39620  1.0000
  O   O9        1.0  0.13036  0.28653  0.33898  1.0000
  O   O10       1.0  0.86964  0.71347  0.66102  1.0000
  O   O11       1.0  0.96724  0.15822  0.54451  1.0000
  O   O12       1.0  0.03276  0.84179  0.45549  1.0000
  O   O13       1.0  0.70921  0.54963  0.21226  1.0000
  O   O14       1.0  0.29079  0.45037  0.78774  1.0000
  O   O15       1.0  0.99176  0.51975  0.17464  1.0000
  O   O16       1.0  0.00824  0.48025  0.82536  1.0000
  O   O17       1.0  0.68937  0.05348  0.02815  1.0000
  O   O18       1.0  0.31064  0.94652  0.97185  1.0000
  O   O19       1.0  0.83741  0.16978  0.80696  1.0000
  O   O20       1.0  0.16260  0.83022  0.19303  1.0000
  O   O21       1.0  0.39379  0.69927  0.90463  1.0000
  O   O22       1.0  0.60621  0.30073  0.09537  1.0000
