data_image0
_chemical_formula_structural       Cd2H44C52S8N4O4F4
_chemical_formula_sum              "Cd2 H44 C52 S8 N4 O4 F4"
_cell_length_a       8.0686
_cell_length_b       10.9694
_cell_length_c       16.0164
_cell_angle_alpha    110.074
_cell_angle_beta     101.026
_cell_angle_gamma    90.0018

_space_group_name_H-M_alt    "P 1"
_space_group_IT_number       1

loop_
  _space_group_symop_operation_xyz
  'x, y, z'

loop_
  _atom_site_type_symbol
  _atom_site_label
  _atom_site_symmetry_multiplicity
  _atom_site_fract_x
  _atom_site_fract_y
  _atom_site_fract_z
  _atom_site_occupancy
  Cd  Cd1       1.0  0.75013  0.98896  0.00009  1.0000
  Cd  Cd2       1.0  0.24986  0.01104  0.99991  1.0000
  H   H1        1.0  0.10582  0.63616  0.75372  1.0000
  H   H2        1.0  0.39382  0.88189  0.24622  1.0000
  H   H3        1.0  0.89417  0.36384  0.24628  1.0000
  H   H4        1.0  0.60619  0.11810  0.75378  1.0000
  H   H5        1.0  0.18572  0.70527  0.87299  1.0000
  H   H6        1.0  0.31381  0.83156  0.12700  1.0000
  H   H7        1.0  0.81427  0.29473  0.12701  1.0000
  H   H8        1.0  0.68619  0.16844  0.87300  1.0000
  H   H9        1.0  0.20079  0.20357  0.69493  1.0000
  H   H10       1.0  0.29836  0.50870  0.30532  1.0000
  H   H11       1.0  0.79921  0.79643  0.30507  1.0000
  H   H12       1.0  0.70163  0.49131  0.69468  1.0000
  H   H13       1.0  0.33337  0.25706  0.87775  1.0000
  H   H14       1.0  0.16613  0.37861  0.12248  1.0000
  H   H15       1.0  0.66664  0.74295  0.12225  1.0000
  H   H16       1.0  0.83386  0.62140  0.87751  1.0000
  H   H17       1.0  0.34946  0.52393  0.95248  1.0000
  H   H18       1.0  0.15011  0.57036  0.04752  1.0000
  H   H19       1.0  0.65054  0.47608  0.04752  1.0000
  H   H20       1.0  0.84989  0.42964  0.95248  1.0000
  H   H21       1.0  0.35465  0.54371  0.67216  1.0000
  H   H22       1.0  0.14511  0.87163  0.32789  1.0000
  H   H23       1.0  0.64535  0.45629  0.32785  1.0000
  H   H24       1.0  0.85489  0.12836  0.67210  1.0000
  H   H25       1.0  0.51923  0.66630  0.69882  1.0000
  H   H26       1.0  0.98061  0.96750  0.30123  1.0000
  H   H27       1.0  0.48078  0.33371  0.30118  1.0000
  H   H28       1.0  0.01940  0.03250  0.69877  1.0000
  H   H29       1.0  0.38446  0.90402  0.70807  1.0000
  H   H30       1.0  0.11553  0.19620  0.29218  1.0000
  H   H31       1.0  0.61555  0.09598  0.29193  1.0000
  H   H32       1.0  0.88448  0.80379  0.70782  1.0000
  H   H33       1.0  0.22032  0.99532  0.59593  1.0000
  H   H34       1.0  0.28001  0.39966  0.40443  1.0000
  H   H35       1.0  0.77969  0.00468  0.40407  1.0000
  H   H36       1.0  0.71998  0.60033  0.59557  1.0000
  H   H37       1.0  0.99985  0.61396  0.42742  1.0000
  H   H38       1.0  0.50041  0.18660  0.57250  1.0000
  H   H39       1.0  0.00015  0.38604  0.57258  1.0000
  H   H40       1.0  0.49959  0.81339  0.42750  1.0000
  H   H41       1.0  0.16094  0.52166  0.54023  1.0000
  H   H42       1.0  0.33897  0.98147  0.45963  1.0000
  H   H43       1.0  0.83906  0.47834  0.45977  1.0000
  H   H44       1.0  0.66105  0.01852  0.54037  1.0000
  C   C1        1.0  0.47758  0.78323  0.85840  1.0000
  C   C2        1.0  0.02253  0.92479  0.14169  1.0000
  C   C3        1.0  0.52242  0.21677  0.14160  1.0000
  C   C4        1.0  0.97747  0.07521  0.85831  1.0000
  C   C5        1.0  0.21338  0.64038  0.80871  1.0000
  C   C6        1.0  0.28615  0.83109  0.19127  1.0000
  C   C7        1.0  0.78661  0.35963  0.19129  1.0000
  C   C8        1.0  0.71386  0.16891  0.80873  1.0000
  C   C9        1.0  0.23965  0.50854  0.81322  1.0000
  C   C10       1.0  0.25960  0.69475  0.18678  1.0000
  C   C11       1.0  0.76035  0.49146  0.18678  1.0000
  C   C12       1.0  0.74040  0.30525  0.81322  1.0000
  C   C13       1.0  0.23096  0.29370  0.75222  1.0000
  C   C14       1.0  0.26821  0.54124  0.24796  1.0000
  C   C15       1.0  0.76904  0.70630  0.24778  1.0000
  C   C16       1.0  0.73178  0.45876  0.75204  1.0000
  C   C17       1.0  0.29661  0.32481  0.84269  1.0000
  C   C18       1.0  0.20277  0.48151  0.15747  1.0000
  C   C19       1.0  0.70339  0.67519  0.15731  1.0000
  C   C20       1.0  0.79722  0.51849  0.84253  1.0000
  C   C21       1.0  0.30316  0.46377  0.88201  1.0000
  C   C22       1.0  0.19627  0.58093  0.11803  1.0000
  C   C23       1.0  0.69685  0.53623  0.11799  1.0000
  C   C24       1.0  0.80373  0.41907  0.88196  1.0000
  C   C25       1.0  0.38424  0.64922  0.69676  1.0000
  C   C26       1.0  0.11556  0.95247  0.30328  1.0000
  C   C27       1.0  0.61576  0.35078  0.30325  1.0000
  C   C28       1.0  0.88445  0.04752  0.69672  1.0000
  C   C29       1.0  0.28019  0.70710  0.63270  1.0000
  C   C30       1.0  0.21971  0.07449  0.36731  1.0000
  C   C31       1.0  0.71982  0.29290  0.36730  1.0000
  C   C32       1.0  0.78030  0.92550  0.63269  1.0000
  C   C33       1.0  0.29766  0.84059  0.64777  1.0000
  C   C34       1.0  0.20235  0.19302  0.35243  1.0000
  C   C35       1.0  0.70234  0.15942  0.35223  1.0000
  C   C36       1.0  0.79765  0.80697  0.64757  1.0000
  C   C37       1.0  0.20809  0.89215  0.58572  1.0000
  C   C38       1.0  0.29224  0.30664  0.41450  1.0000
  C   C39       1.0  0.79192  0.10785  0.41428  1.0000
  C   C40       1.0  0.70776  0.69335  0.58551  1.0000
  C   C41       1.0  0.10149  0.80819  0.50849  1.0000
  C   C42       1.0  0.39890  0.29984  0.49162  1.0000
  C   C43       1.0  0.89852  0.19182  0.49151  1.0000
  C   C44       1.0  0.60110  0.70015  0.50838  1.0000
  C   C45       1.0  0.08282  0.67536  0.48998  1.0000
  C   C46       1.0  0.41738  0.18548  0.51000  1.0000
  C   C47       1.0  0.91719  0.32464  0.51002  1.0000
  C   C48       1.0  0.58262  0.81451  0.49000  1.0000
  C   C49       1.0  0.17276  0.62591  0.55344  1.0000
  C   C50       1.0  0.32724  0.07254  0.44649  1.0000
  C   C51       1.0  0.82724  0.37410  0.44656  1.0000
  C   C52       1.0  0.67277  0.92746  0.55351  1.0000
  S   S1        1.0  0.46855  0.81541  0.97103  1.0000
  S   S2        1.0  0.03156  0.84425  0.02904  1.0000
  S   S3        1.0  0.53144  0.18459  0.02898  1.0000
  S   S4        1.0  0.96843  0.15575  0.97096  1.0000
  S   S5        1.0  0.63785  0.85586  0.83134  1.0000
  S   S6        1.0  0.86249  0.02475  0.16881  1.0000
  S   S7        1.0  0.36214  0.14414  0.16866  1.0000
  S   S8        1.0  0.13751  0.97524  0.83120  1.0000
  N   N1        1.0  0.36109  0.70007  0.79118  1.0000
  N   N2        1.0  0.13870  0.90863  0.20885  1.0000
  N   N3        1.0  0.63891  0.29993  0.20882  1.0000
  N   N4        1.0  0.86131  0.09137  0.79115  1.0000
  O   O1        1.0  0.19507  0.40445  0.73245  1.0000
  O   O2        1.0  0.30399  0.67180  0.26762  1.0000
  O   O3        1.0  0.80492  0.59555  0.26755  1.0000
  O   O4        1.0  0.69601  0.32820  0.73237  1.0000
  F   F1        1.0  0.01179  0.85851  0.44764  1.0000
  F   F2        1.0  0.48872  0.41104  0.55257  1.0000
  F   F3        1.0  0.98822  0.14149  0.55236  1.0000
  F   F4        1.0  0.51127  0.58895  0.44743  1.0000
