data_image0
_chemical_formula_structural       Zn4H20C4N20O4F8
_chemical_formula_sum              "Zn4 H20 C4 N20 O4 F8"
_cell_length_a       6.21381
_cell_length_b       6.91598
_cell_length_c       13.5064
_cell_angle_alpha    90
_cell_angle_beta     89.9999
_cell_angle_gamma    90

_space_group_name_H-M_alt    "P 1"
_space_group_IT_number       1

loop_
  _space_group_symop_operation_xyz
  'x, y, z'

loop_
  _atom_site_type_symbol
  _atom_site_label
  _atom_site_symmetry_multiplicity
  _atom_site_fract_x
  _atom_site_fract_y
  _atom_site_fract_z
  _atom_site_occupancy
  Zn  Zn1       1.0  0.98633  0.16102  0.74829  1.0000
  Zn  Zn2       1.0  0.48633  0.33898  0.25171  1.0000
  Zn  Zn3       1.0  0.01367  0.66102  0.75171  1.0000
  Zn  Zn4       1.0  0.51367  0.83898  0.24829  1.0000
  H   H1        1.0  0.53516  0.14334  0.73998  1.0000
  H   H2        1.0  0.03516  0.35666  0.26002  1.0000
  H   H3        1.0  0.46485  0.64334  0.76002  1.0000
  H   H4        1.0  0.96484  0.85666  0.23998  1.0000
  H   H5        1.0  0.65439  0.95047  0.70170  1.0000
  H   H6        1.0  0.15438  0.54953  0.29830  1.0000
  H   H7        1.0  0.34562  0.45047  0.79830  1.0000
  H   H8        1.0  0.84561  0.04953  0.20170  1.0000
  H   H9        1.0  0.17648  0.87581  0.39900  1.0000
  H   H10       1.0  0.67648  0.62419  0.60100  1.0000
  H   H11       1.0  0.82352  0.37580  0.10100  1.0000
  H   H12       1.0  0.32352  0.12420  0.89900  1.0000
  H   H13       1.0  0.10472  0.35407  0.54776  1.0000
  H   H14       1.0  0.60471  0.14593  0.45224  1.0000
  H   H15       1.0  0.89529  0.85407  0.95225  1.0000
  H   H16       1.0  0.39528  0.64593  0.04775  1.0000
  H   H17       1.0  0.15721  0.28651  0.42375  1.0000
  H   H18       1.0  0.65722  0.21349  0.57625  1.0000
  H   H19       1.0  0.84278  0.78651  0.07625  1.0000
  H   H20       1.0  0.34278  0.71349  0.92375  1.0000
  C   C1        1.0  0.13434  0.06904  0.52867  1.0000
  C   C2        1.0  0.63434  0.43096  0.47133  1.0000
  C   C3        1.0  0.86566  0.56904  0.97133  1.0000
  C   C4        1.0  0.36566  0.93096  0.02867  1.0000
  N   N1        1.0  0.09803  0.01327  0.62338  1.0000
  N   N2        1.0  0.59803  0.48673  0.37662  1.0000
  N   N3        1.0  0.90197  0.51327  0.87662  1.0000
  N   N4        1.0  0.40197  0.98673  0.12338  1.0000
  N   N5        1.0  0.10171  0.81784  0.62320  1.0000
  N   N6        1.0  0.60171  0.68216  0.37680  1.0000
  N   N7        1.0  0.89829  0.31783  0.87680  1.0000
  N   N8        1.0  0.39829  0.18217  0.12320  1.0000
  N   N9        1.0  0.13671  0.74903  0.53590  1.0000
  N   N10       1.0  0.63670  0.75097  0.46410  1.0000
  N   N11       1.0  0.86330  0.24903  0.96410  1.0000
  N   N12       1.0  0.36330  0.25097  0.03590  1.0000
  N   N13       1.0  0.15754  0.90343  0.47555  1.0000
  N   N14       1.0  0.65754  0.59657  0.52445  1.0000
  N   N15       1.0  0.84246  0.40342  0.02445  1.0000
  N   N16       1.0  0.34246  0.09658  0.97555  1.0000
  N   N17       1.0  0.14883  0.25044  0.49742  1.0000
  N   N18       1.0  0.64883  0.24956  0.50258  1.0000
  N   N19       1.0  0.85117  0.75044  0.00258  1.0000
  N   N20       1.0  0.35117  0.74956  0.99741  1.0000
  O   O1        1.0  0.66300  0.09534  0.70181  1.0000
  O   O2        1.0  0.16299  0.40466  0.29819  1.0000
  O   O3        1.0  0.33701  0.59534  0.79819  1.0000
  O   O4        1.0  0.83700  0.90466  0.20181  1.0000
  F   F1        1.0  0.32384  0.21925  0.79472  1.0000
  F   F2        1.0  0.82384  0.28075  0.20528  1.0000
  F   F3        1.0  0.67616  0.71925  0.70528  1.0000
  F   F4        1.0  0.17616  0.78075  0.29472  1.0000
  F   F5        1.0  0.01270  0.91392  0.83001  1.0000
  F   F6        1.0  0.51270  0.58608  0.16999  1.0000
  F   F7        1.0  0.98730  0.41392  0.66999  1.0000
  F   F8        1.0  0.48730  0.08608  0.33001  1.0000
