data_image0
_chemical_formula_structural       Cu4H36C24N36
_chemical_formula_sum              "Cu4 H36 C24 N36"
_cell_length_a       7.8691
_cell_length_b       10.1986
_cell_length_c       11.784
_cell_angle_alpha    90
_cell_angle_beta     89.9998
_cell_angle_gamma    101.15

_space_group_name_H-M_alt    "P 1"
_space_group_IT_number       1

loop_
  _space_group_symop_operation_xyz
  'x, y, z'

loop_
  _atom_site_type_symbol
  _atom_site_label
  _atom_site_symmetry_multiplicity
  _atom_site_fract_x
  _atom_site_fract_y
  _atom_site_fract_z
  _atom_site_occupancy
  Cu  Cu1       1.0  0.91688  0.99068  0.83611  1.0000
  Cu  Cu2       1.0  0.58312  0.50932  0.33611  1.0000
  Cu  Cu3       1.0  0.08312  0.00932  0.16389  1.0000
  Cu  Cu4       1.0  0.41688  0.49068  0.66389  1.0000
  H   H1        1.0  0.46014  0.84833  0.66626  1.0000
  H   H2        1.0  0.03986  0.65167  0.16626  1.0000
  H   H3        1.0  0.53986  0.15167  0.33374  1.0000
  H   H4        1.0  0.96014  0.34833  0.83374  1.0000
  H   H5        1.0  0.83463  0.97128  0.59762  1.0000
  H   H6        1.0  0.66537  0.52872  0.09762  1.0000
  H   H7        1.0  0.16537  0.02872  0.40238  1.0000
  H   H8        1.0  0.33463  0.47128  0.90238  1.0000
  H   H9        1.0  0.47797  0.08822  0.73450  1.0000
  H   H10       1.0  0.02203  0.41178  0.23450  1.0000
  H   H11       1.0  0.52203  0.91178  0.26550  1.0000
  H   H12       1.0  0.97797  0.58822  0.76550  1.0000
  H   H13       1.0  0.52119  0.96953  0.83529  1.0000
  H   H14       1.0  0.97881  0.53046  0.33529  1.0000
  H   H15       1.0  0.47881  0.03046  0.16471  1.0000
  H   H16       1.0  0.02119  0.46954  0.66471  1.0000
  H   H17       1.0  0.64873  0.27348  0.84842  1.0000
  H   H18       1.0  0.85127  0.22652  0.34842  1.0000
  H   H19       1.0  0.35127  0.72651  0.15158  1.0000
  H   H20       1.0  0.14873  0.77349  0.65158  1.0000
  H   H21       1.0  0.46768  0.18407  0.92051  1.0000
  H   H22       1.0  0.03232  0.31593  0.42051  1.0000
  H   H23       1.0  0.53232  0.81593  0.07949  1.0000
  H   H24       1.0  0.96768  0.68407  0.57949  1.0000
  H   H25       1.0  0.59195  0.78899  0.56439  1.0000
  H   H26       1.0  0.90806  0.71101  0.06440  1.0000
  H   H27       1.0  0.40805  0.21101  0.43560  1.0000
  H   H28       1.0  0.09194  0.28899  0.93561  1.0000
  H   H29       1.0  0.64425  0.03338  0.56906  1.0000
  H   H30       1.0  0.85575  0.46662  0.06906  1.0000
  H   H31       1.0  0.35575  0.96662  0.43094  1.0000
  H   H32       1.0  0.14425  0.53338  0.93094  1.0000
  H   H33       1.0  0.79546  0.15170  0.71130  1.0000
  H   H34       1.0  0.70454  0.34830  0.21130  1.0000
  H   H35       1.0  0.20454  0.84830  0.28870  1.0000
  H   H36       1.0  0.29546  0.65170  0.78870  1.0000
  C   C1        1.0  0.70474  0.15161  0.98601  1.0000
  C   C2        1.0  0.79526  0.34839  0.48601  1.0000
  C   C3        1.0  0.29526  0.84839  0.01399  1.0000
  C   C4        1.0  0.20474  0.65161  0.51399  1.0000
  C   C5        1.0  0.59618  0.17600  0.88782  1.0000
  C   C6        1.0  0.90382  0.32400  0.38782  1.0000
  C   C7        1.0  0.40382  0.82400  0.11218  1.0000
  C   C8        1.0  0.09618  0.67600  0.61218  1.0000
  C   C9        1.0  0.57270  0.06726  0.79731  1.0000
  C   C10       1.0  0.92730  0.43274  0.29731  1.0000
  C   C11       1.0  0.42730  0.93274  0.20269  1.0000
  C   C12       1.0  0.07270  0.56726  0.70269  1.0000
  C   C13       1.0  0.70672  0.97799  0.63182  1.0000
  C   C14       1.0  0.79328  0.52201  0.13182  1.0000
  C   C15       1.0  0.29328  0.02201  0.36818  1.0000
  C   C16       1.0  0.20672  0.47799  0.86818  1.0000
  C   C17       1.0  0.59461  0.83982  0.64676  1.0000
  C   C18       1.0  0.90540  0.66018  0.14676  1.0000
  C   C19       1.0  0.40539  0.16018  0.35324  1.0000
  C   C20       1.0  0.09460  0.33982  0.85324  1.0000
  C   C21       1.0  0.65528  0.75733  0.73636  1.0000
  C   C22       1.0  0.84472  0.74267  0.23636  1.0000
  C   C23       1.0  0.34472  0.24267  0.26364  1.0000
  C   C24       1.0  0.15528  0.25733  0.76364  1.0000
  N   N1        1.0  0.83002  0.07847  0.98324  1.0000
  N   N2        1.0  0.66998  0.42153  0.48324  1.0000
  N   N3        1.0  0.16998  0.92153  0.01676  1.0000
  N   N4        1.0  0.33002  0.57847  0.51676  1.0000
  N   N5        1.0  0.89275  0.08422  0.08989  1.0000
  N   N6        1.0  0.60725  0.41578  0.58989  1.0000
  N   N7        1.0  0.10725  0.91578  0.91011  1.0000
  N   N8        1.0  0.39275  0.58422  0.41010  1.0000
  N   N9        1.0  0.69119  0.20051  0.09118  1.0000
  N   N10       1.0  0.80881  0.29949  0.59118  1.0000
  N   N11       1.0  0.30881  0.79949  0.90882  1.0000
  N   N12       1.0  0.19119  0.70051  0.40882  1.0000
  N   N13       1.0  0.81057  0.15650  0.15419  1.0000
  N   N14       1.0  0.68942  0.34350  0.65419  1.0000
  N   N15       1.0  0.18943  0.84350  0.84581  1.0000
  N   N16       1.0  0.31057  0.65650  0.34581  1.0000
  N   N17       1.0  0.73515  0.05786  0.73773  1.0000
  N   N18       1.0  0.76485  0.44214  0.23773  1.0000
  N   N19       1.0  0.26485  0.94214  0.26227  1.0000
  N   N20       1.0  0.23515  0.55786  0.76227  1.0000
  N   N21       1.0  0.77077  0.80279  0.81784  1.0000
  N   N22       1.0  0.72923  0.69721  0.31784  1.0000
  N   N23       1.0  0.22923  0.19721  0.18216  1.0000
  N   N24       1.0  0.27077  0.30279  0.68216  1.0000
  N   N25       1.0  0.59634  0.62587  0.75262  1.0000
  N   N26       1.0  0.90367  0.87413  0.25262  1.0000
  N   N27       1.0  0.40367  0.37412  0.24738  1.0000
  N   N28       1.0  0.09634  0.12588  0.74738  1.0000
  N   N29       1.0  0.67559  0.59130  0.84712  1.0000
  N   N30       1.0  0.82441  0.90870  0.34712  1.0000
  N   N31       1.0  0.32441  0.40870  0.15288  1.0000
  N   N32       1.0  0.17559  0.09130  0.65288  1.0000
  N   N33       1.0  0.78059  0.69727  0.88589  1.0000
  N   N34       1.0  0.71941  0.80273  0.38589  1.0000
  N   N35       1.0  0.21941  0.30273  0.11411  1.0000
  N   N36       1.0  0.28059  0.19727  0.61411  1.0000
