data_image0
_chemical_formula_structural       Zn2H12C4N20F4
_chemical_formula_sum              "Zn2 H12 C4 N20 F4"
_cell_length_a       3.35299
_cell_length_b       10.2314
_cell_length_c       12.1518
_cell_angle_alpha    90
_cell_angle_beta     90
_cell_angle_gamma    98.1514

_space_group_name_H-M_alt    "P 1"
_space_group_IT_number       1

loop_
  _space_group_symop_operation_xyz
  'x, y, z'

loop_
  _atom_site_type_symbol
  _atom_site_label
  _atom_site_symmetry_multiplicity
  _atom_site_fract_x
  _atom_site_fract_y
  _atom_site_fract_z
  _atom_site_occupancy
  Zn  Zn1       1.0  0.50000  1.00000  1.00000  1.0000
  Zn  Zn2       1.0  1.00000  0.50000  0.50000  1.0000
  H   H1        1.0  0.51881  0.70065  0.65601  1.0000
  H   H2        1.0  0.98119  0.79935  0.15601  1.0000
  H   H3        1.0  0.48120  0.29935  0.34399  1.0000
  H   H4        1.0  0.01880  0.20065  0.84399  1.0000
  H   H5        1.0  0.72664  0.72316  0.96609  1.0000
  H   H6        1.0  0.77337  0.77684  0.46609  1.0000
  H   H7        1.0  0.27337  0.27684  0.03391  1.0000
  H   H8        1.0  0.22663  0.22316  0.53391  1.0000
  H   H9        1.0  0.69644  0.60916  0.85801  1.0000
  H   H10       1.0  0.80356  0.89084  0.35801  1.0000
  H   H11       1.0  0.30357  0.39084  0.14199  1.0000
  H   H12       1.0  0.19644  0.10916  0.64199  1.0000
  C   C1        1.0  0.53111  0.78679  0.82286  1.0000
  C   C2        1.0  0.96890  0.71321  0.32286  1.0000
  C   C3        1.0  0.46889  0.21321  0.17714  1.0000
  C   C4        1.0  0.03110  0.28679  0.67714  1.0000
  N   N1        1.0  0.47213  0.91066  0.85010  1.0000
  N   N2        1.0  0.02787  0.58934  0.35010  1.0000
  N   N3        1.0  0.52787  0.08934  0.14990  1.0000
  N   N4        1.0  0.97213  0.41066  0.64990  1.0000
  N   N5        1.0  0.39476  0.97272  0.75474  1.0000
  N   N6        1.0  0.10524  0.52728  0.25474  1.0000
  N   N7        1.0  0.60524  0.02728  0.24527  1.0000
  N   N8        1.0  0.89476  0.47272  0.74527  1.0000
  N   N9        1.0  0.40144  0.89373  0.67235  1.0000
  N   N10       1.0  0.09856  0.60627  0.17235  1.0000
  N   N11       1.0  0.59856  0.10627  0.32765  1.0000
  N   N12       1.0  0.90144  0.39373  0.82765  1.0000
  N   N13       1.0  0.48352  0.77676  0.71260  1.0000
  N   N14       1.0  0.01648  0.72324  0.21260  1.0000
  N   N15       1.0  0.51648  0.22324  0.28740  1.0000
  N   N16       1.0  0.98352  0.27676  0.78740  1.0000
  N   N17       1.0  0.60700  0.69136  0.89183  1.0000
  N   N18       1.0  0.89301  0.80864  0.39183  1.0000
  N   N19       1.0  0.39301  0.30864  0.10816  1.0000
  N   N20       1.0  0.10699  0.19136  0.60817  1.0000
  F   F1        1.0  0.06183  0.12332  0.95035  1.0000
  F   F2        1.0  0.43818  0.37668  0.45035  1.0000
  F   F3        1.0  0.93817  0.87668  0.04965  1.0000
  F   F4        1.0  0.56183  0.62332  0.54965  1.0000
