data_image0
_chemical_formula_structural       Cd2H56C64S8N4O8
_chemical_formula_sum              "Cd2 H56 C64 S8 N4 O8"
_cell_length_a       8.08899
_cell_length_b       12.8261
_cell_length_c       15.786
_cell_angle_alpha    113.988
_cell_angle_beta     91.5776
_cell_angle_gamma    90.0002

_space_group_name_H-M_alt    "P 1"
_space_group_IT_number       1

loop_
  _space_group_symop_operation_xyz
  'x, y, z'

loop_
  _atom_site_type_symbol
  _atom_site_label
  _atom_site_symmetry_multiplicity
  _atom_site_fract_x
  _atom_site_fract_y
  _atom_site_fract_z
  _atom_site_occupancy
  Cd  Cd1       1.0  0.74990  0.51470  0.99993  1.0000
  Cd  Cd2       1.0  0.25009  0.48530  0.00007  1.0000
  H   H1        1.0  0.27211  0.75292  0.11793  1.0000
  H   H2        1.0  0.22771  0.63528  0.88212  1.0000
  H   H3        1.0  0.72789  0.24708  0.88207  1.0000
  H   H4        1.0  0.77228  0.36471  0.11788  1.0000
  H   H5        1.0  0.33075  0.80159  0.23754  1.0000
  H   H6        1.0  0.16909  0.56441  0.76251  1.0000
  H   H7        1.0  0.66924  0.19842  0.76246  1.0000
  H   H8        1.0  0.83090  0.43559  0.23749  1.0000
  H   H9        1.0  0.40616  0.99084  0.31991  1.0000
  H   H10       1.0  0.09354  0.67147  0.68038  1.0000
  H   H11       1.0  0.59383  0.00916  0.68009  1.0000
  H   H12       1.0  0.90647  0.32853  0.31961  1.0000
  H   H13       1.0  0.42606  0.19402  0.33732  1.0000
  H   H14       1.0  0.07364  0.85728  0.66312  1.0000
  H   H15       1.0  0.57394  0.80598  0.66269  1.0000
  H   H16       1.0  0.92635  0.14272  0.33688  1.0000
  H   H17       1.0  0.07081  0.30112  0.13709  1.0000
  H   H18       1.0  0.42960  0.16437  0.86317  1.0000
  H   H19       1.0  0.92920  0.69889  0.86291  1.0000
  H   H20       1.0  0.57038  0.83563  0.13683  1.0000
  H   H21       1.0  0.26171  0.25383  0.07577  1.0000
  H   H22       1.0  0.23893  0.17866  0.92475  1.0000
  H   H23       1.0  0.73829  0.74618  0.92423  1.0000
  H   H24       1.0  0.76105  0.82135  0.07525  1.0000
  H   H25       1.0  0.09960  0.90068  0.07043  1.0000
  H   H26       1.0  0.40066  0.83060  0.92968  1.0000
  H   H27       1.0  0.90040  0.09933  0.92957  1.0000
  H   H28       1.0  0.59932  0.16940  0.07032  1.0000
  H   H29       1.0  0.89508  0.82568  0.30590  1.0000
  H   H30       1.0  0.60472  0.52008  0.69412  1.0000
  H   H31       1.0  0.10492  0.17432  0.69410  1.0000
  H   H32       1.0  0.39528  0.47992  0.30588  1.0000
  H   H33       1.0  0.04460  0.93365  0.32086  1.0000
  H   H34       1.0  0.45518  0.61310  0.67921  1.0000
  H   H35       1.0  0.95540  0.06635  0.67913  1.0000
  H   H36       1.0  0.54481  0.38689  0.32079  1.0000
  H   H37       1.0  0.21506  0.98289  0.45238  1.0000
  H   H38       1.0  0.28446  0.53083  0.54778  1.0000
  H   H39       1.0  0.78495  0.01712  0.54762  1.0000
  H   H40       1.0  0.71556  0.46916  0.45221  1.0000
  H   H41       1.0  0.36676  0.93401  0.57081  1.0000
  H   H42       1.0  0.13291  0.36350  0.42925  1.0000
  H   H43       1.0  0.63324  0.06600  0.42919  1.0000
  H   H44       1.0  0.86711  0.63647  0.57074  1.0000
  H   H45       1.0  0.36429  0.73373  0.55697  1.0000
  H   H46       1.0  0.13553  0.17689  0.44285  1.0000
  H   H47       1.0  0.63572  0.26628  0.44302  1.0000
  H   H48       1.0  0.86449  0.82309  0.55715  1.0000
  H   H49       1.0  0.20431  0.58406  0.42739  1.0000
  H   H50       1.0  0.29527  0.15687  0.57251  1.0000
  H   H51       1.0  0.79570  0.41595  0.57261  1.0000
  H   H52       1.0  0.70474  0.84312  0.42750  1.0000
  H   H53       1.0  0.04926  0.63438  0.31159  1.0000
  H   H54       1.0  0.45038  0.32296  0.68831  1.0000
  H   H55       1.0  0.95074  0.36563  0.68841  1.0000
  H   H56       1.0  0.54962  0.67704  0.31169  1.0000
  C   C1        1.0  0.98174  0.70088  0.14335  1.0000
  C   C2        1.0  0.51804  0.55773  0.85662  1.0000
  C   C3        1.0  0.01826  0.29912  0.85665  1.0000
  C   C4        1.0  0.48196  0.44227  0.14338  1.0000
  C   C5        1.0  0.24237  0.81357  0.18803  1.0000
  C   C6        1.0  0.25751  0.62589  0.81204  1.0000
  C   C7        1.0  0.75762  0.18643  0.81197  1.0000
  C   C8        1.0  0.74249  0.37410  0.18795  1.0000
  C   C9        1.0  0.25186  0.93442  0.19602  1.0000
  C   C10       1.0  0.24809  0.73883  0.80421  1.0000
  C   C11       1.0  0.74813  0.06559  0.80399  1.0000
  C   C12       1.0  0.75191  0.26116  0.19579  1.0000
  C   C13       1.0  0.34285  0.01628  0.26951  1.0000
  C   C14       1.0  0.15702  0.74726  0.73077  1.0000
  C   C15       1.0  0.65714  0.98372  0.73049  1.0000
  C   C16       1.0  0.84298  0.25273  0.26923  1.0000
  C   C17       1.0  0.35610  0.13021  0.27981  1.0000
  C   C18       1.0  0.14385  0.85092  0.72053  1.0000
  C   C19       1.0  0.64389  0.86980  0.72020  1.0000
  C   C20       1.0  0.85615  0.14908  0.27947  1.0000
  C   C21       1.0  0.27361  0.15729  0.21399  1.0000
  C   C22       1.0  0.22651  0.94380  0.78635  1.0000
  C   C23       1.0  0.72638  0.84271  0.78602  1.0000
  C   C24       1.0  0.77348  0.05620  0.21366  1.0000
  C   C25       1.0  0.17479  0.24234  0.12390  1.0000
  C   C26       1.0  0.32560  0.11892  0.87649  1.0000
  C   C27       1.0  0.82522  0.75767  0.87611  1.0000
  C   C28       1.0  0.67439  0.88108  0.12351  1.0000
  C   C29       1.0  0.18359  0.07579  0.13962  1.0000
  C   C30       1.0  0.31669  0.93660  0.86061  1.0000
  C   C31       1.0  0.81640  0.92422  0.86039  1.0000
  C   C32       1.0  0.68330  0.06339  0.13939  1.0000
  C   C33       1.0  0.16988  0.96374  0.12855  1.0000
  C   C34       1.0  0.33031  0.83558  0.87163  1.0000
  C   C35       1.0  0.83011  0.03627  0.87144  1.0000
  C   C36       1.0  0.66969  0.16441  0.12837  1.0000
  C   C37       1.0  0.02778  0.84227  0.30443  1.0000
  C   C38       1.0  0.47201  0.53814  0.69562  1.0000
  C   C39       1.0  0.97223  0.15773  0.69556  1.0000
  C   C40       1.0  0.52799  0.46186  0.30438  1.0000
  C   C41       1.0  0.12395  0.81140  0.37390  1.0000
  C   C42       1.0  0.37583  0.43777  0.62611  1.0000
  C   C43       1.0  0.87606  0.18861  0.62609  1.0000
  C   C44       1.0  0.62417  0.56222  0.37389  1.0000
  C   C45       1.0  0.21323  0.89539  0.44730  1.0000
  C   C46       1.0  0.28649  0.44836  0.55274  1.0000
  C   C47       1.0  0.78679  0.10462  0.55270  1.0000
  C   C48       1.0  0.71352  0.55163  0.44726  1.0000
  C   C49       1.0  0.29855  0.86797  0.51347  1.0000
  C   C50       1.0  0.20122  0.35473  0.48651  1.0000
  C   C51       1.0  0.70147  0.13204  0.48653  1.0000
  C   C52       1.0  0.79880  0.64525  0.51348  1.0000
  C   C53       1.0  0.29656  0.75567  0.50597  1.0000
  C   C54       1.0  0.20329  0.24983  0.49387  1.0000
  C   C55       1.0  0.70345  0.24434  0.49403  1.0000
  C   C56       1.0  0.79672  0.75015  0.50614  1.0000
  C   C57       1.0  0.20745  0.67172  0.43318  1.0000
  C   C58       1.0  0.29225  0.23874  0.56671  1.0000
  C   C59       1.0  0.79255  0.32829  0.56682  1.0000
  C   C60       1.0  0.70776  0.76126  0.43330  1.0000
  C   C61       1.0  0.12119  0.69935  0.36764  1.0000
  C   C62       1.0  0.37849  0.33192  0.63230  1.0000
  C   C63       1.0  0.87882  0.30066  0.63236  1.0000
  C   C64       1.0  0.62150  0.66807  0.36771  1.0000
  S   S1        1.0  0.81105  0.64697  0.17428  1.0000
  S   S2        1.0  0.68868  0.47288  0.82564  1.0000
  S   S3        1.0  0.18896  0.35302  0.82571  1.0000
  S   S4        1.0  0.31131  0.52712  0.17436  1.0000
  S   S5        1.0  0.02563  0.65482  0.02647  1.0000
  S   S6        1.0  0.47420  0.62845  0.97353  1.0000
  S   S7        1.0  0.97436  0.34519  0.97352  1.0000
  S   S8        1.0  0.52579  0.37155  0.02647  1.0000
  N   N1        1.0  0.07845  0.78045  0.20812  1.0000
  N   N2        1.0  0.42138  0.57264  0.79191  1.0000
  N   N3        1.0  0.92156  0.21955  0.79187  1.0000
  N   N4        1.0  0.57861  0.42736  0.20809  1.0000
  O   O1        1.0  0.26166  0.26233  0.21041  1.0000
  O   O2        1.0  0.23837  0.05247  0.79004  1.0000
  O   O3        1.0  0.73834  0.73768  0.78959  1.0000
  O   O4        1.0  0.76161  0.94753  0.20996  1.0000
  O   O5        1.0  0.11313  0.12627  0.08576  1.0000
  O   O6        1.0  0.38727  0.04091  0.91450  1.0000
  O   O7        1.0  0.88687  0.87374  0.91424  1.0000
  O   O8        1.0  0.61271  0.95909  0.08550  1.0000
