data_image0
_chemical_formula_structural       Na2B4H30C32O26
_chemical_formula_sum              "Na2 B4 H30 C32 O26"
_cell_length_a       6.59803
_cell_length_b       7.08759
_cell_length_c       19.3448
_cell_angle_alpha    79.6103
_cell_angle_beta     81.408
_cell_angle_gamma    83.9199

_space_group_name_H-M_alt    "P 1"
_space_group_IT_number       1

loop_
  _space_group_symop_operation_xyz
  'x, y, z'

loop_
  _atom_site_type_symbol
  _atom_site_label
  _atom_site_symmetry_multiplicity
  _atom_site_fract_x
  _atom_site_fract_y
  _atom_site_fract_z
  _atom_site_occupancy
  Na  Na1       1.0  0.52486  0.73472  0.00916  1.0000
  Na  Na2       1.0  0.47516  0.26528  0.99084  1.0000
  B   B1        1.0  0.81113  0.50555  0.16159  1.0000
  B   B2        1.0  0.18888  0.49444  0.83840  1.0000
  B   B3        1.0  0.75727  0.12412  0.14498  1.0000
  B   B4        1.0  0.24273  0.87587  0.85502  1.0000
  H   H1        1.0  0.01493  0.27619  0.13706  1.0000
  H   H2        1.0  0.98507  0.72381  0.86294  1.0000
  H   H3        1.0  0.02732  0.35693  0.29524  1.0000
  H   H4        1.0  0.97268  0.64307  0.70476  1.0000
  H   H5        1.0  0.08333  0.63581  0.15585  1.0000
  H   H6        1.0  0.91667  0.36419  0.84414  1.0000
  H   H7        1.0  0.48038  0.46501  0.43964  1.0000
  H   H8        1.0  0.51962  0.53500  0.56036  1.0000
  H   H9        1.0  0.87702  0.30451  0.53569  1.0000
  H   H10       1.0  0.12297  0.69550  0.46431  1.0000
  H   H11       1.0  0.28474  0.59781  0.33734  1.0000
  H   H12       1.0  0.71526  0.40220  0.66266  1.0000
  H   H13       1.0  0.89456  0.86646  0.11684  1.0000
  H   H14       1.0  0.10544  0.13354  0.88316  1.0000
  H   H15       1.0  0.97688  0.91800  0.27259  1.0000
  H   H16       1.0  0.02311  0.08200  0.72741  1.0000
  H   H17       1.0  0.82088  0.81243  0.51450  1.0000
  H   H18       1.0  0.17911  0.18757  0.48551  1.0000
  H   H19       1.0  0.82124  0.40639  0.03113  1.0000
  H   H20       1.0  0.17876  0.59360  0.96887  1.0000
  H   H21       1.0  0.86296  0.43017  0.94812  1.0000
  H   H22       1.0  0.13704  0.56983  0.05188  1.0000
  H   H23       1.0  0.42370  0.94881  0.42150  1.0000
  H   H24       1.0  0.57630  0.05121  0.57851  1.0000
  H   H25       1.0  0.85090  0.98701  0.94214  1.0000
  H   H26       1.0  0.14912  0.01298  0.05786  1.0000
  H   H27       1.0  0.78920  0.00356  0.02168  1.0000
  H   H28       1.0  0.21081  0.99643  0.97831  1.0000
  H   H29       1.0  0.21669  0.08020  0.32279  1.0000
  H   H30       1.0  0.78331  0.91980  0.67722  1.0000
  C   C1        1.0  0.75737  0.47850  0.24620  1.0000
  C   C2        1.0  0.24263  0.52150  0.75380  1.0000
  C   C3        1.0  0.86557  0.40896  0.30316  1.0000
  C   C4        1.0  0.13444  0.59104  0.69684  1.0000
  C   C5        1.0  0.76385  0.40572  0.37263  1.0000
  C   C6        1.0  0.23614  0.59428  0.62737  1.0000
  C   C7        1.0  0.55507  0.47091  0.38534  1.0000
  C   C8        1.0  0.44493  0.52909  0.61466  1.0000
  C   C9        1.0  0.44569  0.54366  0.32876  1.0000
  C   C10       1.0  0.55431  0.45634  0.67124  1.0000
  C   C11       1.0  0.55024  0.54654  0.26046  1.0000
  C   C12       1.0  0.44976  0.45345  0.73954  1.0000
  C   C13       1.0  0.46436  0.61762  0.19331  1.0000
  C   C14       1.0  0.53564  0.38238  0.80669  1.0000
  C   C15       1.0  0.88107  0.33185  0.43289  1.0000
  C   C16       1.0  0.11894  0.66815  0.56711  1.0000
  C   C17       1.0  0.69978  0.04009  0.22737  1.0000
  C   C18       1.0  0.30021  0.95991  0.77263  1.0000
  C   C19       1.0  0.81162  0.95542  0.28226  1.0000
  C   C20       1.0  0.18838  0.04458  0.71774  1.0000
  C   C21       1.0  0.70901  0.92431  0.35198  1.0000
  C   C22       1.0  0.29098  0.07570  0.64802  1.0000
  C   C23       1.0  0.49627  0.97194  0.36670  1.0000
  C   C24       1.0  0.50373  0.02806  0.63330  1.0000
  C   C25       1.0  0.38155  0.04581  0.31184  1.0000
  C   C26       1.0  0.61844  0.95420  0.68816  1.0000
  C   C27       1.0  0.48658  0.07844  0.24330  1.0000
  C   C28       1.0  0.51342  0.92156  0.75671  1.0000
  C   C29       1.0  0.39695  0.16373  0.17786  1.0000
  C   C30       1.0  0.60305  0.83626  0.82214  1.0000
  C   C31       1.0  0.82747  0.84596  0.41159  1.0000
  C   C32       1.0  0.17254  0.15404  0.58841  1.0000
  O   O1        1.0  0.86561  0.31529  0.13022  1.0000
  O   O2        1.0  0.13438  0.68470  0.86978  1.0000
  O   O3        1.0  0.60729  0.59314  0.13724  1.0000
  O   O4        1.0  0.39271  0.40685  0.86277  1.0000
  O   O5        1.0  0.97077  0.62976  0.12755  1.0000
  O   O6        1.0  0.02923  0.37023  0.87245  1.0000
  O   O7        1.0  0.28888  0.69125  0.18682  1.0000
  O   O8        1.0  0.71113  0.30876  0.81318  1.0000
  O   O9        1.0  0.78758  0.36239  0.49566  1.0000
  O   O10       1.0  0.21241  0.63762  0.50434  1.0000
  O   O11       1.0  0.05687  0.24719  0.42387  1.0000
  O   O12       1.0  0.94312  0.75281  0.57614  1.0000
  O   O13       1.0  0.54298  0.18653  0.12198  1.0000
  O   O14       1.0  0.45702  0.81345  0.87802  1.0000
  O   O15       1.0  0.87976  0.00761  0.09858  1.0000
  O   O16       1.0  0.12025  0.99239  0.90142  1.0000
  O   O17       1.0  0.21228  0.21101  0.17456  1.0000
  O   O18       1.0  0.78771  0.78898  0.82545  1.0000
  O   O19       1.0  0.72872  0.86364  0.47490  1.0000
  O   O20       1.0  0.27127  0.13637  0.52511  1.0000
  O   O21       1.0  0.00770  0.77098  0.40174  1.0000
  O   O22       1.0  0.99228  0.22903  0.59826  1.0000
  O   O23       1.0  0.75881  0.46012  0.98812  1.0000
  O   O24       1.0  0.24120  0.53988  0.01188  1.0000
  O   O25       1.0  0.72917  0.99478  0.97812  1.0000
  O   O26       1.0  0.27085  0.00521  0.02187  1.0000
