data_image0
_chemical_formula_structural       Cd2H40C36N12O8
_chemical_formula_sum              "Cd2 H40 C36 N12 O8"
_cell_length_a       9.68946
_cell_length_b       9.94631
_cell_length_c       11.3033
_cell_angle_alpha    66.3787
_cell_angle_beta     88.6489
_cell_angle_gamma    70.0067

_space_group_name_H-M_alt    "P 1"
_space_group_IT_number       1

loop_
  _space_group_symop_operation_xyz
  'x, y, z'

loop_
  _atom_site_type_symbol
  _atom_site_label
  _atom_site_symmetry_multiplicity
  _atom_site_fract_x
  _atom_site_fract_y
  _atom_site_fract_z
  _atom_site_occupancy
  Cd  Cd1       1.0  0.13737  0.33735  0.65382  1.0000
  Cd  Cd2       1.0  0.86263  0.66265  0.34618  1.0000
  H   H1        1.0  0.49382  0.10624  0.04095  1.0000
  H   H2        1.0  0.50618  0.89376  0.95905  1.0000
  H   H3        1.0  0.44533  0.31409  0.98889  1.0000
  H   H4        1.0  0.55467  0.68591  0.01112  1.0000
  H   H5        1.0  0.37183  0.96754  0.20396  1.0000
  H   H6        1.0  0.62817  0.03246  0.79604  1.0000
  H   H7        1.0  0.18546  0.96365  0.35931  1.0000
  H   H8        1.0  0.81453  0.03635  0.64068  1.0000
  H   H9        1.0  0.99419  0.46931  0.17331  1.0000
  H   H10       1.0  0.00581  0.53069  0.82669  1.0000
  H   H11       1.0  0.18389  0.47247  0.02137  1.0000
  H   H12       1.0  0.81612  0.52753  0.97863  1.0000
  H   H13       1.0  0.94483  0.10594  0.40841  1.0000
  H   H14       1.0  0.05517  0.89407  0.59158  1.0000
  H   H15       1.0  0.86050  0.31659  0.32357  1.0000
  H   H16       1.0  0.13950  0.68341  0.67643  1.0000
  H   H17       1.0  0.78248  0.32137  0.65408  1.0000
  H   H18       1.0  0.21751  0.67863  0.34592  1.0000
  H   H19       1.0  0.06380  0.19905  0.98854  1.0000
  H   H20       1.0  0.93619  0.80096  0.01145  1.0000
  H   H21       1.0  0.90768  0.07053  0.16019  1.0000
  H   H22       1.0  0.09232  0.92947  0.83981  1.0000
  H   H23       1.0  0.74856  0.05819  0.09712  1.0000
  H   H24       1.0  0.25144  0.94181  0.90288  1.0000
  H   H25       1.0  0.62008  0.35605  0.03720  1.0000
  H   H26       1.0  0.37992  0.64395  0.96280  1.0000
  H   H27       1.0  0.77334  0.34363  0.12787  1.0000
  H   H28       1.0  0.22666  0.65637  0.87213  1.0000
  H   H29       1.0  0.56993  0.15604  0.24047  1.0000
  H   H30       1.0  0.43007  0.84396  0.75953  1.0000
  H   H31       1.0  0.72262  0.14638  0.32948  1.0000
  H   H32       1.0  0.27738  0.85362  0.67052  1.0000
  H   H33       1.0  0.60116  0.44933  0.25051  1.0000
  H   H34       1.0  0.39884  0.55067  0.74949  1.0000
  H   H35       1.0  0.44098  0.43745  0.18824  1.0000
  H   H36       1.0  0.55902  0.56255  0.81176  1.0000
  H   H37       1.0  0.26347  0.35297  0.35075  1.0000
  H   H38       1.0  0.73653  0.64703  0.64925  1.0000
  H   H39       1.0  0.51105  0.29140  0.68139  1.0000
  H   H40       1.0  0.48895  0.70860  0.31861  1.0000
  C   C1        1.0  0.32175  0.25438  0.87711  1.0000
  C   C2        1.0  0.67825  0.74562  0.12289  1.0000
  C   C3        1.0  0.40195  0.22042  0.00598  1.0000
  C   C4        1.0  0.59805  0.77958  0.99403  1.0000
  C   C5        1.0  0.29256  0.21976  0.10350  1.0000
  C   C6        1.0  0.70744  0.78024  0.89650  1.0000
  C   C7        1.0  0.29005  0.07753  0.19872  1.0000
  C   C8        1.0  0.70995  0.92247  0.80128  1.0000
  C   C9        1.0  0.18438  0.07573  0.28498  1.0000
  C   C10       1.0  0.81561  0.92427  0.71502  1.0000
  C   C11       1.0  0.07678  0.21674  0.27696  1.0000
  C   C12       1.0  0.92322  0.78327  0.72304  1.0000
  C   C13       1.0  0.07873  0.35936  0.18124  1.0000
  C   C14       1.0  0.92127  0.64064  0.81876  1.0000
  C   C15       1.0  0.18548  0.36075  0.09640  1.0000
  C   C16       1.0  0.81452  0.63924  0.90361  1.0000
  C   C17       1.0  0.96433  0.21714  0.37176  1.0000
  C   C18       1.0  0.03567  0.78286  0.62824  1.0000
  C   C19       1.0  0.02190  0.23895  0.48432  1.0000
  C   C20       1.0  0.97810  0.76105  0.51568  1.0000
  C   C21       1.0  0.82541  0.28356  0.75472  1.0000
  C   C22       1.0  0.17459  0.71644  0.24528  1.0000
  C   C23       1.0  0.97114  0.22182  0.92191  1.0000
  C   C24       1.0  0.02886  0.77818  0.07809  1.0000
  C   C25       1.0  0.80520  0.13871  0.09134  1.0000
  C   C26       1.0  0.19480  0.86129  0.90866  1.0000
  C   C27       1.0  0.70745  0.27580  0.12054  1.0000
  C   C28       1.0  0.29255  0.72420  0.87946  1.0000
  C   C29       1.0  0.63671  0.22408  0.24528  1.0000
  C   C30       1.0  0.36329  0.77592  0.75472  1.0000
  C   C31       1.0  0.53963  0.37110  0.26188  1.0000
  C   C32       1.0  0.46037  0.62891  0.73812  1.0000
  C   C33       1.0  0.35087  0.33856  0.41828  1.0000
  C   C34       1.0  0.64913  0.66144  0.58172  1.0000
  C   C35       1.0  0.47983  0.30656  0.58404  1.0000
  C   C36       1.0  0.52017  0.69345  0.41596  1.0000
  N   N1        1.0  0.96094  0.27824  0.79183  1.0000
  N   N2        1.0  0.03905  0.72176  0.20817  1.0000
  N   N3        1.0  0.75153  0.23506  0.85395  1.0000
  N   N4        1.0  0.24847  0.76494  0.14605  1.0000
  N   N5        1.0  0.84682  0.19506  0.95992  1.0000
  N   N6        1.0  0.15318  0.80494  0.04008  1.0000
  N   N7        1.0  0.48569  0.33968  0.38809  1.0000
  N   N8        1.0  0.51431  0.66032  0.61192  1.0000
  N   N9        1.0  0.57034  0.31855  0.49345  1.0000
  N   N10       1.0  0.42966  0.68145  0.50655  1.0000
  N   N11       1.0  0.34353  0.31822  0.54225  1.0000
  N   N12       1.0  0.65647  0.68178  0.45775  1.0000
  O   O1        1.0  0.25241  0.39888  0.79928  1.0000
  O   O2        1.0  0.74758  0.60111  0.20072  1.0000
  O   O3        1.0  0.31996  0.14055  0.85339  1.0000
  O   O4        1.0  0.68005  0.85945  0.14661  1.0000
  O   O5        1.0  0.00029  0.38220  0.46658  1.0000
  O   O6        1.0  0.99970  0.61781  0.53342  1.0000
  O   O7        1.0  0.09253  0.12280  0.58727  1.0000
  O   O8        1.0  0.90746  0.87721  0.41273  1.0000
