data_image0
_chemical_formula_structural       K4Mg4H40C24N4O32
_chemical_formula_sum              "K4 Mg4 H40 C24 N4 O32"
_cell_length_a       7.09181
_cell_length_b       10.0964
_cell_length_c       15.3138
_cell_angle_alpha    90.0011
_cell_angle_beta     88.2697
_cell_angle_gamma    90.0008

_space_group_name_H-M_alt    "P 1"
_space_group_IT_number       1

loop_
  _space_group_symop_operation_xyz
  'x, y, z'

loop_
  _atom_site_type_symbol
  _atom_site_label
  _atom_site_symmetry_multiplicity
  _atom_site_fract_x
  _atom_site_fract_y
  _atom_site_fract_z
  _atom_site_occupancy
  K   K1        1.0  0.16454  0.01476  0.59399  1.0000
  K   K2        1.0  0.33547  0.51474  0.90600  1.0000
  K   K3        1.0  0.83549  0.98525  0.40601  1.0000
  K   K4        1.0  0.66451  0.48527  0.09400  1.0000
  Mg  Mg1       1.0  0.36510  0.13405  0.79089  1.0000
  Mg  Mg2       1.0  0.13494  0.63405  0.70910  1.0000
  Mg  Mg3       1.0  0.63490  0.86595  0.20911  1.0000
  Mg  Mg4       1.0  0.86506  0.36596  0.29089  1.0000
  H   H1        1.0  0.51671  0.85878  0.90205  1.0000
  H   H2        1.0  0.98335  0.35879  0.59794  1.0000
  H   H3        1.0  0.48325  0.14123  0.09796  1.0000
  H   H4        1.0  0.01669  0.64123  0.40205  1.0000
  H   H5        1.0  0.67422  0.80652  0.81786  1.0000
  H   H6        1.0  0.82583  0.30651  0.68212  1.0000
  H   H7        1.0  0.32576  0.19348  0.18215  1.0000
  H   H8        1.0  0.17420  0.69348  0.31786  1.0000
  H   H9        1.0  0.84785  0.06906  0.90823  1.0000
  H   H10       1.0  0.65217  0.56908  0.59178  1.0000
  H   H11       1.0  0.15213  0.93093  0.09178  1.0000
  H   H12       1.0  0.34784  0.43094  0.40822  1.0000
  H   H13       1.0  0.63517  0.02275  0.96113  1.0000
  H   H14       1.0  0.86484  0.52275  0.53886  1.0000
  H   H15       1.0  0.36482  0.97724  0.03887  1.0000
  H   H16       1.0  0.13517  0.47725  0.46113  1.0000
  H   H17       1.0  0.82889  0.93792  0.73133  1.0000
  H   H18       1.0  0.67116  0.43791  0.76866  1.0000
  H   H19       1.0  0.17110  0.06207  0.26868  1.0000
  H   H20       1.0  0.32884  0.56208  0.23132  1.0000
  H   H21       1.0  0.87056  0.10149  0.76549  1.0000
  H   H22       1.0  0.62948  0.60147  0.73451  1.0000
  H   H23       1.0  0.12945  0.89851  0.23453  1.0000
  H   H24       1.0  0.37051  0.39852  0.26548  1.0000
  H   H25       1.0  0.55157  0.79914  0.52256  1.0000
  H   H26       1.0  0.94845  0.29915  0.97744  1.0000
  H   H27       1.0  0.44846  0.20085  0.47744  1.0000
  H   H28       1.0  0.05153  0.70085  0.02257  1.0000
  H   H29       1.0  0.35523  0.83891  0.47713  1.0000
  H   H30       1.0  0.14479  0.33891  0.02288  1.0000
  H   H31       1.0  0.64479  0.16109  0.52288  1.0000
  H   H32       1.0  0.85519  0.66109  0.97712  1.0000
  H   H33       1.0  0.16636  0.17467  0.93778  1.0000
  H   H34       1.0  0.33366  0.67467  0.56222  1.0000
  H   H35       1.0  0.83361  0.82533  0.06222  1.0000
  H   H36       1.0  0.66636  0.32534  0.43778  1.0000
  H   H37       1.0  0.13829  0.02034  0.90870  1.0000
  H   H38       1.0  0.36175  0.52034  0.59129  1.0000
  H   H39       1.0  0.86169  0.97966  0.09130  1.0000
  H   H40       1.0  0.63826  0.47967  0.40871  1.0000
  C   C1        1.0  0.38805  0.84564  0.77966  1.0000
  C   C2        1.0  0.11199  0.34565  0.72033  1.0000
  C   C3        1.0  0.61194  0.15436  0.22035  1.0000
  C   C4        1.0  0.88803  0.65436  0.27966  1.0000
  C   C5        1.0  0.56085  0.87741  0.83366  1.0000
  C   C6        1.0  0.93919  0.37740  0.66633  1.0000
  C   C7        1.0  0.43914  0.12259  0.16635  1.0000
  C   C8        1.0  0.06082  0.62261  0.33366  1.0000
  C   C9        1.0  0.63606  0.22169  0.91482  1.0000
  C   C10       1.0  0.86398  0.72169  0.58518  1.0000
  C   C11       1.0  0.36393  0.77830  0.08519  1.0000
  C   C12       1.0  0.13604  0.27831  0.41481  1.0000
  C   C13       1.0  0.69321  0.07567  0.90374  1.0000
  C   C14       1.0  0.80682  0.57567  0.59625  1.0000
  C   C15       1.0  0.30678  0.92432  0.09626  1.0000
  C   C16       1.0  0.19320  0.42433  0.40374  1.0000
  C   C17       1.0  0.67152  0.08906  0.66624  1.0000
  C   C18       1.0  0.82850  0.58906  0.83375  1.0000
  C   C19       1.0  0.32847  0.91093  0.33377  1.0000
  C   C20       1.0  0.17150  0.41093  0.16624  1.0000
  C   C21       1.0  0.75776  0.03182  0.74847  1.0000
  C   C22       1.0  0.74229  0.53180  0.75152  1.0000
  C   C23       1.0  0.24225  0.96818  0.25154  1.0000
  C   C24       1.0  0.25770  0.46819  0.24847  1.0000
  N   N1        1.0  0.62478  0.01503  0.82373  1.0000
  N   N2        1.0  0.87526  0.51503  0.67626  1.0000
  N   N3        1.0  0.37521  0.98497  0.17628  1.0000
  N   N4        1.0  0.12474  0.48498  0.32373  1.0000
  O   O1        1.0  0.28133  0.94013  0.75804  1.0000
  O   O2        1.0  0.21869  0.44014  0.74196  1.0000
  O   O3        1.0  0.71865  0.05987  0.24196  1.0000
  O   O4        1.0  0.78132  0.55987  0.25804  1.0000
  O   O5        1.0  0.35948  0.72406  0.76262  1.0000
  O   O6        1.0  0.14054  0.22407  0.73738  1.0000
  O   O7        1.0  0.64051  0.27595  0.23738  1.0000
  O   O8        1.0  0.85946  0.77594  0.26261  1.0000
  O   O9        1.0  0.51691  0.26941  0.86234  1.0000
  O   O10       1.0  0.98313  0.76941  0.63765  1.0000
  O   O11       1.0  0.48309  0.73058  0.13767  1.0000
  O   O12       1.0  0.01688  0.23059  0.36233  1.0000
  O   O13       1.0  0.70687  0.28358  0.97751  1.0000
  O   O14       1.0  0.79316  0.78358  0.52249  1.0000
  O   O15       1.0  0.29310  0.71641  0.02250  1.0000
  O   O16       1.0  0.20687  0.21642  0.47749  1.0000
  O   O17       1.0  0.50743  0.14066  0.67221  1.0000
  O   O18       1.0  0.99260  0.64066  0.82779  1.0000
  O   O19       1.0  0.49258  0.85933  0.32779  1.0000
  O   O20       1.0  0.00739  0.35934  0.17221  1.0000
  O   O21       1.0  0.77411  0.08740  0.59711  1.0000
  O   O22       1.0  0.72591  0.58740  0.90289  1.0000
  O   O23       1.0  0.22590  0.91259  0.40291  1.0000
  O   O24       1.0  0.27409  0.41258  0.09710  1.0000
  O   O25       1.0  0.23077  0.09105  0.91104  1.0000
  O   O26       1.0  0.26926  0.59105  0.58895  1.0000
  O   O27       1.0  0.76922  0.90895  0.08896  1.0000
  O   O28       1.0  0.73074  0.40896  0.41104  1.0000
  O   O29       1.0  0.41262  0.80641  0.53271  1.0000
  O   O30       1.0  0.08740  0.30641  0.96729  1.0000
  O   O31       1.0  0.58741  0.19359  0.46729  1.0000
  O   O32       1.0  0.91256  0.69360  0.03271  1.0000
