data_image0
_chemical_formula_structural       CdP2H32C28S4N2O4
_chemical_formula_sum              "Cd1 P2 H32 C28 S4 N2 O4"
_cell_length_a       8.09734
_cell_length_b       9.77294
_cell_length_c       10.4396
_cell_angle_alpha    91.6706
_cell_angle_beta     101.53
_cell_angle_gamma    100.984

_space_group_name_H-M_alt    "P 1"
_space_group_IT_number       1

loop_
  _space_group_symop_operation_xyz
  'x, y, z'

loop_
  _atom_site_type_symbol
  _atom_site_label
  _atom_site_symmetry_multiplicity
  _atom_site_fract_x
  _atom_site_fract_y
  _atom_site_fract_z
  _atom_site_occupancy
  Cd  Cd1       1.0  0.50000  0.50000  0.50000  1.0000
  P   P1        1.0  0.74262  0.70921  0.35558  1.0000
  P   P2        1.0  0.25737  0.29079  0.64442  1.0000
  H   H1        1.0  0.02465  0.66088  0.55217  1.0000
  H   H2        1.0  0.97535  0.33912  0.44784  1.0000
  H   H3        1.0  0.94352  0.80469  0.60713  1.0000
  H   H4        1.0  0.05647  0.19531  0.39287  1.0000
  H   H5        1.0  0.28288  0.82713  0.50830  1.0000
  H   H6        1.0  0.71712  0.17287  0.49170  1.0000
  H   H7        1.0  0.26501  0.85377  0.67281  1.0000
  H   H8        1.0  0.73498  0.14623  0.32719  1.0000
  H   H9        1.0  0.19902  0.97145  0.55548  1.0000
  H   H10       1.0  0.80098  0.02855  0.44452  1.0000
  H   H11       1.0  0.91124  0.95230  0.23114  1.0000
  H   H12       1.0  0.08876  0.04770  0.76886  1.0000
  H   H13       1.0  0.83776  0.03936  0.01092  1.0000
  H   H14       1.0  0.16224  0.96064  0.98908  1.0000
  H   H15       1.0  0.39475  0.70143  0.90994  1.0000
  H   H16       1.0  0.60525  0.29857  0.09006  1.0000
  H   H17       1.0  0.47354  0.61169  0.12987  1.0000
  H   H18       1.0  0.52645  0.38831  0.87012  1.0000
  H   H19       1.0  0.67841  0.12452  0.83812  1.0000
  H   H20       1.0  0.32159  0.87548  0.16189  1.0000
  H   H21       1.0  0.59892  0.04049  0.67727  1.0000
  H   H22       1.0  0.40109  0.95951  0.32273  1.0000
  H   H23       1.0  0.79314  0.00523  0.77560  1.0000
  H   H24       1.0  0.20687  0.99477  0.22440  1.0000
  H   H25       1.0  0.19569  0.66129  0.36999  1.0000
  H   H26       1.0  0.80431  0.33871  0.63001  1.0000
  H   H27       1.0  0.99912  0.67786  0.16105  1.0000
  H   H28       1.0  0.00089  0.32214  0.83895  1.0000
  H   H29       1.0  0.14889  0.31070  0.01259  1.0000
  H   H30       1.0  0.85111  0.68929  0.98741  1.0000
  H   H31       1.0  0.33565  0.30915  0.23136  1.0000
  H   H32       1.0  0.66435  0.69085  0.76864  1.0000
  C   C1        1.0  0.02321  0.77250  0.54220  1.0000
  C   C2        1.0  0.97679  0.22750  0.45780  1.0000
  C   C3        1.0  0.20190  0.86131  0.57066  1.0000
  C   C4        1.0  0.79810  0.13869  0.42934  1.0000
  C   C5        1.0  0.69787  0.77657  0.19580  1.0000
  C   C6        1.0  0.30212  0.22343  0.80420  1.0000
  C   C7        1.0  0.79852  0.89689  0.16073  1.0000
  C   C8        1.0  0.20148  0.10311  0.83927  1.0000
  C   C9        1.0  0.75661  0.94640  0.03646  1.0000
  C   C10       1.0  0.24339  0.05360  0.96354  1.0000
  C   C11       1.0  0.60990  0.87612  0.94658  1.0000
  C   C12       1.0  0.39011  0.12388  0.05342  1.0000
  C   C13       1.0  0.50638  0.75639  0.98194  1.0000
  C   C14       1.0  0.49362  0.24361  0.01806  1.0000
  C   C15       1.0  0.55122  0.70691  0.10451  1.0000
  C   C16       1.0  0.44878  0.29309  0.89549  1.0000
  C   C17       1.0  0.66541  0.02801  0.77697  1.0000
  C   C18       1.0  0.33460  0.97199  0.22303  1.0000
  C   C19       1.0  0.18103  0.58538  0.28817  1.0000
  C   C20       1.0  0.81897  0.41461  0.71183  1.0000
  C   C21       1.0  0.07157  0.59443  0.16936  1.0000
  C   C22       1.0  0.92844  0.40557  0.83065  1.0000
  C   C23       1.0  0.05621  0.49637  0.06454  1.0000
  C   C24       1.0  0.94379  0.50363  0.93545  1.0000
  C   C25       1.0  0.15240  0.39071  0.08832  1.0000
  C   C26       1.0  0.84761  0.60929  0.91168  1.0000
  C   C27       1.0  0.25817  0.38889  0.21051  1.0000
  C   C28       1.0  0.74183  0.61111  0.78949  1.0000
  S   S1        1.0  0.59478  0.77141  0.47091  1.0000
  S   S2        1.0  0.40522  0.22859  0.52909  1.0000
  S   S3        1.0  0.72301  0.50150  0.33802  1.0000
  S   S4        1.0  0.27699  0.49851  0.66198  1.0000
  N   N1        1.0  0.27391  0.48538  0.30871  1.0000
  N   N2        1.0  0.72609  0.51462  0.69129  1.0000
  O   O1        1.0  0.94084  0.78977  0.40726  1.0000
  O   O2        1.0  0.05916  0.21023  0.59274  1.0000
  O   O3        1.0  0.55911  0.91288  0.82242  1.0000
  O   O4        1.0  0.44090  0.08712  0.17758  1.0000
