data_image0
_chemical_formula_structural       NiH24Ru4C20N4O16
_chemical_formula_sum              "Ni1 H24 Ru4 C20 N4 O16"
_cell_length_a       8.97834
_cell_length_b       9.92577
_cell_length_c       11.211
_cell_angle_alpha    104.852
_cell_angle_beta     112.006
_cell_angle_gamma    101.028

_space_group_name_H-M_alt    "P 1"
_space_group_IT_number       1

loop_
  _space_group_symop_operation_xyz
  'x, y, z'

loop_
  _atom_site_type_symbol
  _atom_site_label
  _atom_site_symmetry_multiplicity
  _atom_site_fract_x
  _atom_site_fract_y
  _atom_site_fract_z
  _atom_site_occupancy
  Ni  Ni1       1.0  0.00001  0.00001  0.50000  1.0000
  H   H1        1.0  0.42585  0.49693  0.86260  1.0000
  H   H2        1.0  0.57415  0.50304  0.13740  1.0000
  H   H3        1.0  0.27596  0.51632  0.92868  1.0000
  H   H4        1.0  0.72404  0.48367  0.07133  1.0000
  H   H5        1.0  0.22098  0.49738  0.75333  1.0000
  H   H6        1.0  0.77902  0.50261  0.24668  1.0000
  H   H7        1.0  0.56215  0.94930  0.59838  1.0000
  H   H8        1.0  0.43784  0.05069  0.40162  1.0000
  H   H9        1.0  0.65089  0.14106  0.69126  1.0000
  H   H10       1.0  0.34910  0.85894  0.30874  1.0000
  H   H11       1.0  0.77915  0.02342  0.72596  1.0000
  H   H12       1.0  0.22084  0.97658  0.27404  1.0000
  H   H13       1.0  0.02377  0.18545  0.10249  1.0000
  H   H14       1.0  0.97623  0.81457  0.89751  1.0000
  H   H15       1.0  0.08314  0.33987  0.05446  1.0000
  H   H16       1.0  0.91687  0.66015  0.94554  1.0000
  H   H17       1.0  0.17479  0.19788  0.03514  1.0000
  H   H18       1.0  0.82521  0.80214  0.96486  1.0000
  H   H19       1.0  0.05126  0.64767  0.53835  1.0000
  H   H20       1.0  0.94875  0.35234  0.46163  1.0000
  H   H21       1.0  0.20773  0.81950  0.58869  1.0000
  H   H22       1.0  0.79226  0.18051  0.41130  1.0000
  H   H23       1.0  0.07914  0.71508  0.41141  1.0000
  H   H24       1.0  0.92086  0.28492  0.58858  1.0000
  Ru  Ru1       1.0  0.63254  0.99970  0.06793  1.0000
  Ru  Ru2       1.0  0.36746  0.00029  0.93206  1.0000
  Ru  Ru3       1.0  0.55559  0.58492  0.46184  1.0000
  Ru  Ru4       1.0  0.44439  0.41506  0.53816  1.0000
  C   C1        1.0  0.93868  0.99299  0.32292  1.0000
  C   C2        1.0  0.06133  0.00703  0.67709  1.0000
  C   C3        1.0  0.80205  0.85304  0.43921  1.0000
  C   C4        1.0  0.19794  0.14698  0.56080  1.0000
  C   C5        1.0  0.38960  0.70802  0.90308  1.0000
  C   C6        1.0  0.61039  0.29195  0.09691  1.0000
  C   C7        1.0  0.32427  0.54419  0.85823  1.0000
  C   C8        1.0  0.67573  0.45579  0.14178  1.0000
  C   C9        1.0  0.59650  0.01471  0.80558  1.0000
  C   C10       1.0  0.40350  0.98529  0.19442  1.0000
  C   C11       1.0  0.65244  0.03311  0.69931  1.0000
  C   C12       1.0  0.34756  0.96690  0.30069  1.0000
  C   C13       1.0  0.26842  0.34290  0.24255  1.0000
  C   C14       1.0  0.73158  0.65710  0.75745  1.0000
  C   C15       1.0  0.12768  0.26123  0.10026  1.0000
  C   C16       1.0  0.87232  0.73877  0.89974  1.0000
  C   C17       1.0  0.27462  0.63421  0.51266  1.0000
  C   C18       1.0  0.72539  0.36580  0.48734  1.0000
  C   C19       1.0  0.14371  0.70674  0.51269  1.0000
  C   C20       1.0  0.85629  0.29326  0.48730  1.0000
  N   N1        1.0  0.88418  0.99371  0.21005  1.0000
  N   N2        1.0  0.11582  0.00630  0.78994  1.0000
  N   N3        1.0  0.67900  0.75554  0.40339  1.0000
  N   N4        1.0  0.32099  0.24447  0.59661  1.0000
  O   O1        1.0  0.54623  0.77566  0.98931  1.0000
  O   O2        1.0  0.45378  0.22433  0.01070  1.0000
  O   O3        1.0  0.28586  0.77602  0.85632  1.0000
  O   O4        1.0  0.71414  0.22396  0.14368  1.0000
  O   O5        1.0  0.70351  0.00911  0.91765  1.0000
  O   O6        1.0  0.29649  0.99089  0.08235  1.0000
  O   O7        1.0  0.44316  0.00663  0.78257  1.0000
  O   O8        1.0  0.55683  0.99336  0.21743  1.0000
  O   O9        1.0  0.38084  0.46065  0.26441  1.0000
  O   O10       1.0  0.61914  0.53935  0.73556  1.0000
  O   O11       1.0  0.27248  0.29391  0.33872  1.0000
  O   O12       1.0  0.72753  0.70611  0.66129  1.0000
  O   O13       1.0  0.38451  0.68806  0.47541  1.0000
  O   O14       1.0  0.61549  0.31196  0.52458  1.0000
  O   O15       1.0  0.27451  0.52207  0.54966  1.0000
  O   O16       1.0  0.72551  0.47794  0.45034  1.0000
