data_image0
_chemical_formula_structural       Na4H28C16O28
_chemical_formula_sum              "Na4 H28 C16 O28"
_cell_length_a       7.18866
_cell_length_b       8.62602
_cell_length_c       10.6617
_cell_angle_alpha    90.0002
_cell_angle_beta     90
_cell_angle_gamma    89.9998

_space_group_name_H-M_alt    "P 1"
_space_group_IT_number       1

loop_
  _space_group_symop_operation_xyz
  'x, y, z'

loop_
  _atom_site_type_symbol
  _atom_site_label
  _atom_site_symmetry_multiplicity
  _atom_site_fract_x
  _atom_site_fract_y
  _atom_site_fract_z
  _atom_site_occupancy
  Na  Na1       1.0  0.91213  0.28987  0.56549  1.0000
  Na  Na2       1.0  0.58787  0.71013  0.06548  1.0000
  Na  Na3       1.0  0.08787  0.78986  0.93451  1.0000
  Na  Na4       1.0  0.41213  0.21014  0.43452  1.0000
  H   H1        1.0  0.93860  0.94179  0.56597  1.0000
  H   H2        1.0  0.56140  0.05821  0.06597  1.0000
  H   H3        1.0  0.06140  0.44179  0.93403  1.0000
  H   H4        1.0  0.43860  0.55821  0.43403  1.0000
  H   H5        1.0  0.78570  0.98719  0.46228  1.0000
  H   H6        1.0  0.71430  0.01281  0.96228  1.0000
  H   H7        1.0  0.21430  0.48719  0.03772  1.0000
  H   H8        1.0  0.28570  0.51281  0.53772  1.0000
  H   H9        1.0  0.75933  0.55926  0.86110  1.0000
  H   H10       1.0  0.74067  0.44074  0.36110  1.0000
  H   H11       1.0  0.24068  0.05926  0.63890  1.0000
  H   H12       1.0  0.25933  0.94075  0.13890  1.0000
  H   H13       1.0  0.58843  0.49904  0.58564  1.0000
  H   H14       1.0  0.91157  0.50096  0.08564  1.0000
  H   H15       1.0  0.41157  0.99904  0.91436  1.0000
  H   H16       1.0  0.08843  0.00096  0.41436  1.0000
  H   H17       1.0  0.27033  0.78808  0.66078  1.0000
  H   H18       1.0  0.22967  0.21192  0.16079  1.0000
  H   H19       1.0  0.72966  0.28808  0.83921  1.0000
  H   H20       1.0  0.77033  0.71192  0.33921  1.0000
  H   H21       1.0  0.75099  0.86020  0.75453  1.0000
  H   H22       1.0  0.74901  0.13981  0.25453  1.0000
  H   H23       1.0  0.24900  0.36020  0.74547  1.0000
  H   H24       1.0  0.25100  0.63980  0.24547  1.0000
  H   H25       1.0  0.72779  0.72579  0.55481  1.0000
  H   H26       1.0  0.77221  0.27421  0.05481  1.0000
  H   H27       1.0  0.27221  0.22578  0.94519  1.0000
  H   H28       1.0  0.22779  0.77421  0.44519  1.0000
  C   C1        1.0  0.49297  0.73614  0.76039  1.0000
  C   C2        1.0  0.00703  0.26386  0.26040  1.0000
  C   C3        1.0  0.50703  0.23614  0.73961  1.0000
  C   C4        1.0  0.99297  0.76386  0.23960  1.0000
  C   C5        1.0  0.70564  0.73839  0.75507  1.0000
  C   C6        1.0  0.79436  0.26161  0.25507  1.0000
  C   C7        1.0  0.29436  0.23839  0.74493  1.0000
  C   C8        1.0  0.20564  0.76161  0.24493  1.0000
  C   C9        1.0  0.99050  0.65949  0.63163  1.0000
  C   C10       1.0  0.50950  0.34050  0.13163  1.0000
  C   C11       1.0  0.00949  0.15949  0.86837  1.0000
  C   C12       1.0  0.49051  0.84051  0.36837  1.0000
  C   C13       1.0  0.77693  0.65750  0.63565  1.0000
  C   C14       1.0  0.72307  0.34249  0.13565  1.0000
  C   C15       1.0  0.22307  0.15750  0.86435  1.0000
  C   C16       1.0  0.27693  0.84250  0.36435  1.0000
  O   O1        1.0  0.78358  0.67075  0.86538  1.0000
  O   O2        1.0  0.71642  0.32925  0.36539  1.0000
  O   O3        1.0  0.21642  0.17075  0.63461  1.0000
  O   O4        1.0  0.28358  0.82925  0.13462  1.0000
  O   O5        1.0  0.07737  0.53593  0.61115  1.0000
  O   O6        1.0  0.42263  0.46407  0.11115  1.0000
  O   O7        1.0  0.92263  0.03593  0.88885  1.0000
  O   O8        1.0  0.57737  0.96407  0.38885  1.0000
  O   O9        1.0  0.40700  0.68683  0.85224  1.0000
  O   O10       1.0  0.09300  0.31317  0.35225  1.0000
  O   O11       1.0  0.59299  0.18684  0.64775  1.0000
  O   O12       1.0  0.90700  0.81316  0.14776  1.0000
  O   O13       1.0  0.90528  0.02017  0.50184  1.0000
  O   O14       1.0  0.59472  0.97983  0.00184  1.0000
  O   O15       1.0  0.09472  0.52017  0.99816  1.0000
  O   O16       1.0  0.40528  0.47983  0.49816  1.0000
  O   O17       1.0  0.41673  0.79283  0.65752  1.0000
  O   O18       1.0  0.08327  0.20717  0.15753  1.0000
  O   O19       1.0  0.58326  0.29284  0.84248  1.0000
  O   O20       1.0  0.91673  0.70717  0.34248  1.0000
  O   O21       1.0  0.71356  0.50284  0.62864  1.0000
  O   O22       1.0  0.78644  0.49715  0.12864  1.0000
  O   O23       1.0  0.28644  0.00284  0.87136  1.0000
  O   O24       1.0  0.21356  0.99715  0.37136  1.0000
  O   O25       1.0  0.06519  0.79371  0.64932  1.0000
  O   O26       1.0  0.43481  0.20629  0.14932  1.0000
  O   O27       1.0  0.93480  0.29371  0.85068  1.0000
  O   O28       1.0  0.56520  0.70629  0.35068  1.0000
