data_image0
_chemical_formula_structural       Cu4H56C52N12O8
_chemical_formula_sum              "Cu4 H56 C52 N12 O8"
_cell_length_a       8.38902
_cell_length_b       9.27608
_cell_length_c       16.623
_cell_angle_alpha    89.9999
_cell_angle_beta     91.0339
_cell_angle_gamma    90.0001

_space_group_name_H-M_alt    "P 1"
_space_group_IT_number       1

loop_
  _space_group_symop_operation_xyz
  'x, y, z'

loop_
  _atom_site_type_symbol
  _atom_site_label
  _atom_site_symmetry_multiplicity
  _atom_site_fract_x
  _atom_site_fract_y
  _atom_site_fract_z
  _atom_site_occupancy
  Cu  Cu1       1.0  0.91937  0.23097  0.28053  1.0000
  Cu  Cu2       1.0  0.08063  0.73098  0.21947  1.0000
  Cu  Cu3       1.0  0.08063  0.76904  0.71947  1.0000
  Cu  Cu4       1.0  0.91936  0.26904  0.78053  1.0000
  H   H1        1.0  0.73085  0.38450  0.14789  1.0000
  H   H2        1.0  0.26915  0.88450  0.35210  1.0000
  H   H3        1.0  0.26916  0.61550  0.85210  1.0000
  H   H4        1.0  0.73085  0.11550  0.64790  1.0000
  H   H5        1.0  0.23266  0.26775  0.16598  1.0000
  H   H6        1.0  0.76734  0.76775  0.33401  1.0000
  H   H7        1.0  0.76734  0.73225  0.83402  1.0000
  H   H8        1.0  0.23267  0.23224  0.66598  1.0000
  H   H9        1.0  0.30728  0.12064  0.28441  1.0000
  H   H10       1.0  0.69271  0.62064  0.21559  1.0000
  H   H11       1.0  0.69272  0.87936  0.71559  1.0000
  H   H12       1.0  0.30727  0.37935  0.78441  1.0000
  H   H13       1.0  0.59371  0.11259  0.33169  1.0000
  H   H14       1.0  0.40627  0.61259  0.16830  1.0000
  H   H15       1.0  0.40629  0.88741  0.66831  1.0000
  H   H16       1.0  0.59371  0.38740  0.83170  1.0000
  H   H17       1.0  0.24979  0.33101  0.02934  1.0000
  H   H18       1.0  0.75021  0.83101  0.47065  1.0000
  H   H19       1.0  0.75021  0.66898  0.97065  1.0000
  H   H20       1.0  0.24980  0.16898  0.52934  1.0000
  H   H21       1.0  0.30638  0.50976  0.99851  1.0000
  H   H22       1.0  0.69361  0.00976  0.50149  1.0000
  H   H23       1.0  0.69362  0.49023  0.00149  1.0000
  H   H24       1.0  0.30639  0.99023  0.49851  1.0000
  H   H25       1.0  0.22114  0.48157  0.09581  1.0000
  H   H26       1.0  0.77886  0.98156  0.40418  1.0000
  H   H27       1.0  0.77886  0.51843  0.90418  1.0000
  H   H28       1.0  0.22115  0.01843  0.59581  1.0000
  H   H29       1.0  0.74023  0.46675  0.36546  1.0000
  H   H30       1.0  0.25977  0.96675  0.13454  1.0000
  H   H31       1.0  0.25977  0.53326  0.63454  1.0000
  H   H32       1.0  0.74023  0.03325  0.86546  1.0000
  H   H33       1.0  0.83183  0.42685  0.62195  1.0000
  H   H34       1.0  0.16817  0.92685  0.87805  1.0000
  H   H35       1.0  0.16816  0.57315  0.37805  1.0000
  H   H36       1.0  0.83184  0.07314  0.12195  1.0000
  H   H37       1.0  0.99299  0.21120  0.59272  1.0000
  H   H38       1.0  0.00701  0.71120  0.90728  1.0000
  H   H39       1.0  0.00701  0.78880  0.40728  1.0000
  H   H40       1.0  0.99299  0.28879  0.09273  1.0000
  H   H41       1.0  0.02346  0.13047  0.44837  1.0000
  H   H42       1.0  0.97654  0.63046  0.05163  1.0000
  H   H43       1.0  0.97654  0.86954  0.55163  1.0000
  H   H44       1.0  0.02346  0.36954  0.94837  1.0000
  H   H45       1.0  0.57867  0.54121  0.61565  1.0000
  H   H46       1.0  0.42133  0.04121  0.88435  1.0000
  H   H47       1.0  0.42133  0.45879  0.38436  1.0000
  H   H48       1.0  0.57868  0.95878  0.11565  1.0000
  H   H49       1.0  0.55617  0.71801  0.57344  1.0000
  H   H50       1.0  0.44384  0.21801  0.92656  1.0000
  H   H51       1.0  0.44384  0.28199  0.42657  1.0000
  H   H52       1.0  0.55617  0.78198  0.07344  1.0000
  H   H53       1.0  0.74631  0.66197  0.61407  1.0000
  H   H54       1.0  0.25369  0.16197  0.88593  1.0000
  H   H55       1.0  0.25370  0.33803  0.38593  1.0000
  H   H56       1.0  0.74632  0.83802  0.11407  1.0000
  C   C1        1.0  0.98444  0.04055  0.27007  1.0000
  C   C2        1.0  0.01556  0.54054  0.22992  1.0000
  C   C3        1.0  0.01559  0.95948  0.72992  1.0000
  C   C4        1.0  0.98441  0.45948  0.77008  1.0000
  C   C5        1.0  0.63497  0.32509  0.17645  1.0000
  C   C6        1.0  0.36503  0.82508  0.32354  1.0000
  C   C7        1.0  0.36503  0.67491  0.82355  1.0000
  C   C8        1.0  0.63497  0.17491  0.67645  1.0000
  C   C9        1.0  0.47862  0.33396  0.14563  1.0000
  C   C10       1.0  0.52137  0.83396  0.35437  1.0000
  C   C11       1.0  0.52138  0.66604  0.85437  1.0000
  C   C12       1.0  0.47863  0.16604  0.64563  1.0000
  C   C13       1.0  0.35711  0.26077  0.18506  1.0000
  C   C14       1.0  0.64288  0.76077  0.31493  1.0000
  C   C15       1.0  0.64289  0.73924  0.81494  1.0000
  C   C16       1.0  0.35712  0.23923  0.68506  1.0000
  C   C17       1.0  0.39941  0.17926  0.25263  1.0000
  C   C18       1.0  0.60057  0.67925  0.24737  1.0000
  C   C19       1.0  0.60058  0.82075  0.74737  1.0000
  C   C20       1.0  0.39941  0.32074  0.75263  1.0000
  C   C21       1.0  0.55765  0.17446  0.27892  1.0000
  C   C22       1.0  0.44234  0.67446  0.22108  1.0000
  C   C23       1.0  0.44235  0.82554  0.72108  1.0000
  C   C24       1.0  0.55765  0.32553  0.77892  1.0000
  C   C25       1.0  0.29774  0.43544  0.04924  1.0000
  C   C26       1.0  0.70225  0.93544  0.45076  1.0000
  C   C27       1.0  0.70226  0.56456  0.95076  1.0000
  C   C28       1.0  0.29775  0.06456  0.54924  1.0000
  C   C29       1.0  0.79394  0.41080  0.41690  1.0000
  C   C30       1.0  0.20606  0.91079  0.08310  1.0000
  C   C31       1.0  0.20605  0.58921  0.58310  1.0000
  C   C32       1.0  0.79395  0.08921  0.91691  1.0000
  C   C33       1.0  0.76922  0.46186  0.49529  1.0000
  C   C34       1.0  0.23079  0.96186  0.00471  1.0000
  C   C35       1.0  0.23077  0.53814  0.50471  1.0000
  C   C36       1.0  0.76923  0.03813  0.99529  1.0000
  C   C37       1.0  0.84329  0.39069  0.56000  1.0000
  C   C38       1.0  0.15671  0.89069  0.94000  1.0000
  C   C39       1.0  0.15670  0.60931  0.44000  1.0000
  C   C40       1.0  0.84330  0.10930  0.06000  1.0000
  C   C41       1.0  0.93615  0.26996  0.54316  1.0000
  C   C42       1.0  0.06385  0.76996  0.95683  1.0000
  C   C43       1.0  0.06384  0.73004  0.45683  1.0000
  C   C44       1.0  0.93616  0.23003  0.04317  1.0000
  C   C45       1.0  0.95321  0.22497  0.46406  1.0000
  C   C46       1.0  0.04679  0.72497  0.03594  1.0000
  C   C47       1.0  0.04678  0.77504  0.53594  1.0000
  C   C48       1.0  0.95321  0.27503  0.96406  1.0000
  C   C49       1.0  0.63768  0.62696  0.58146  1.0000
  C   C50       1.0  0.36232  0.12696  0.91854  1.0000
  C   C51       1.0  0.36232  0.37304  0.41855  1.0000
  C   C52       1.0  0.63769  0.87303  0.08146  1.0000
  N   N1        1.0  0.01205  0.91669  0.26056  1.0000
  N   N2        1.0  0.98795  0.41670  0.23943  1.0000
  N   N3        1.0  0.98796  0.08332  0.73943  1.0000
  N   N4        1.0  0.01204  0.58332  0.76057  1.0000
  N   N5        1.0  0.67406  0.24750  0.24160  1.0000
  N   N6        1.0  0.32594  0.74750  0.25839  1.0000
  N   N7        1.0  0.32594  0.75250  0.75839  1.0000
  N   N8        1.0  0.67405  0.25249  0.74161  1.0000
  N   N9        1.0  0.88361  0.29514  0.40159  1.0000
  N   N10       1.0  0.11639  0.79514  0.09841  1.0000
  N   N11       1.0  0.11638  0.70487  0.59841  1.0000
  N   N12       1.0  0.88361  0.20487  0.90160  1.0000
  O   O1        1.0  0.45832  0.41827  0.07916  1.0000
  O   O2        1.0  0.54167  0.91827  0.42084  1.0000
  O   O3        1.0  0.54168  0.58173  0.92084  1.0000
  O   O4        1.0  0.45833  0.08173  0.57916  1.0000
  O   O5        1.0  0.67319  0.57911  0.50161  1.0000
  O   O6        1.0  0.32681  0.07911  0.99838  1.0000
  O   O7        1.0  0.32680  0.42089  0.49839  1.0000
  O   O8        1.0  0.67320  0.92088  0.00162  1.0000
