data_image0
_chemical_formula_structural       Cu2H8C12N4Cl2
_chemical_formula_sum              "Cu2 H8 C12 N4 Cl2"
_cell_length_a       7.31833
_cell_length_b       7.32502
_cell_length_c       8.19564
_cell_angle_alpha    102.984
_cell_angle_beta     111.061
_cell_angle_gamma    110.163

_space_group_name_H-M_alt    "P 1"
_space_group_IT_number       1

loop_
  _space_group_symop_operation_xyz
  'x, y, z'

loop_
  _atom_site_type_symbol
  _atom_site_label
  _atom_site_symmetry_multiplicity
  _atom_site_fract_x
  _atom_site_fract_y
  _atom_site_fract_z
  _atom_site_occupancy
  Cu  Cu1       1.0  0.15316  0.01583  0.42913  1.0000
  Cu  Cu2       1.0  0.91315  0.27591  0.92917  1.0000
  H   H1        1.0  0.61996  0.46989  0.56256  1.0000
  H   H2        1.0  0.59205  0.94167  0.06191  1.0000
  H   H3        1.0  0.40999  0.19624  0.23011  1.0000
  H   H4        1.0  0.53426  0.81956  0.72955  1.0000
  H   H5        1.0  0.51412  0.28425  0.98339  1.0000
  H   H6        1.0  0.20008  0.46931  0.48300  1.0000
  H   H7        1.0  0.82357  0.64025  0.08534  1.0000
  H   H8        1.0  0.94566  0.26183  0.58506  1.0000
  C   C1        1.0  0.44068  0.12705  0.61691  1.0000
  C   C2        1.0  0.98958  0.17681  0.11762  1.0000
  C   C3        1.0  0.82967  0.69507  0.49445  1.0000
  C   C4        1.0  0.29892  0.66425  0.99404  1.0000
  C   C5        1.0  0.65960  0.50120  0.45264  1.0000
  C   C6        1.0  0.45118  0.79234  0.95212  1.0000
  C   C7        1.0  0.54436  0.34889  0.26699  1.0000
  C   C8        1.0  0.41847  0.72202  0.76656  1.0000
  C   C9        1.0  0.60107  0.39677  0.13086  1.0000
  C   C10       1.0  0.23477  0.52960  0.63055  1.0000
  C   C11       1.0  0.77365  0.59438  0.18635  1.0000
  C   C12       1.0  0.09242  0.41258  0.68612  1.0000
  N   N1        1.0  0.62670  0.19936  0.73412  1.0000
  N   N2        1.0  0.03453  0.10793  0.23480  1.0000
  N   N3        1.0  0.88972  0.74331  0.36700  1.0000
  N   N4        1.0  0.12357  0.47695  0.86669  1.0000
  Cl  Cl1       1.0  0.97284  0.88934  0.72313  1.0000
  Cl  Cl2       1.0  0.33285  0.74972  0.22268  1.0000
