data_image0
_chemical_formula_structural       Ag2H58C56N8O6
_chemical_formula_sum              "Ag2 H58 C56 N8 O6"
_cell_length_a       8.87015
_cell_length_b       9.77384
_cell_length_c       16.7145
_cell_angle_alpha    84.1434
_cell_angle_beta     73.1604
_cell_angle_gamma    85.9107

_space_group_name_H-M_alt    "P 1"
_space_group_IT_number       1

loop_
  _space_group_symop_operation_xyz
  'x, y, z'

loop_
  _atom_site_type_symbol
  _atom_site_label
  _atom_site_symmetry_multiplicity
  _atom_site_fract_x
  _atom_site_fract_y
  _atom_site_fract_z
  _atom_site_occupancy
  Ag  Ag1       1.0  0.46592  0.53575  0.74290  1.0000
  Ag  Ag2       1.0  0.53408  0.46424  0.25711  1.0000
  H   H1        1.0  0.66992  0.25981  0.07552  1.0000
  H   H2        1.0  0.33008  0.74019  0.92447  1.0000
  H   H3        1.0  0.90140  0.40787  0.02982  1.0000
  H   H4        1.0  0.09860  0.59212  0.97018  1.0000
  H   H5        1.0  0.94673  0.56964  0.90150  1.0000
  H   H6        1.0  0.05327  0.43036  0.09851  1.0000
  H   H7        1.0  0.75772  0.59008  0.81434  1.0000
  H   H8        1.0  0.24228  0.40992  0.18566  1.0000
  H   H9        1.0  0.25102  0.19305  0.05735  1.0000
  H   H10       1.0  0.74898  0.80695  0.94265  1.0000
  H   H11       1.0  0.42104  0.17944  0.09274  1.0000
  H   H12       1.0  0.57896  0.82057  0.90726  1.0000
  H   H13       1.0  0.34431  0.95254  0.06303  1.0000
  H   H14       1.0  0.65569  0.04746  0.93697  1.0000
  H   H15       1.0  0.36719  0.01205  0.95723  1.0000
  H   H16       1.0  0.63281  0.98795  0.04277  1.0000
  H   H17       1.0  0.15274  0.28587  0.94554  1.0000
  H   H18       1.0  0.84727  0.71414  0.05446  1.0000
  H   H19       1.0  0.26813  0.17630  0.86998  1.0000
  H   H20       1.0  0.73188  0.82370  0.13002  1.0000
  H   H21       1.0  0.22992  0.35176  0.83883  1.0000
  H   H22       1.0  0.77009  0.64824  0.16117  1.0000
  H   H23       1.0  0.28089  0.26175  0.44543  1.0000
  H   H24       1.0  0.71911  0.73826  0.55457  1.0000
  H   H25       1.0  0.36052  0.03411  0.50647  1.0000
  H   H26       1.0  0.63947  0.96589  0.49353  1.0000
  H   H27       1.0  0.45377  0.01472  0.63387  1.0000
  H   H28       1.0  0.54623  0.98528  0.36613  1.0000
  H   H29       1.0  0.47330  0.22430  0.70335  1.0000
  H   H30       1.0  0.52670  0.77570  0.29665  1.0000
  H   H31       1.0  0.25973  0.50407  0.40986  1.0000
  H   H32       1.0  0.74026  0.49593  0.59014  1.0000
  H   H33       1.0  0.25900  0.66993  0.44381  1.0000
  H   H34       1.0  0.74100  0.33007  0.55619  1.0000
  H   H35       1.0  0.99312  0.62135  0.55265  1.0000
  H   H36       1.0  0.00688  0.37865  0.44735  1.0000
  H   H37       1.0  0.99254  0.63722  0.44670  1.0000
  H   H38       1.0  0.00746  0.36278  0.55330  1.0000
  H   H39       1.0  0.32879  0.78465  0.53718  1.0000
  H   H40       1.0  0.67121  0.21536  0.46282  1.0000
  H   H41       1.0  0.33634  0.75778  0.64315  1.0000
  H   H42       1.0  0.66366  0.24222  0.35685  1.0000
  H   H43       1.0  0.15409  0.74922  0.61962  1.0000
  H   H44       1.0  0.84591  0.25079  0.38038  1.0000
  H   H45       1.0  0.91056  0.83465  0.60653  1.0000
  H   H46       1.0  0.08944  0.16534  0.39347  1.0000
  H   H47       1.0  0.07636  0.03982  0.58784  1.0000
  H   H48       1.0  0.92365  0.96017  0.41216  1.0000
  H   H49       1.0  0.72191  0.21902  0.78940  1.0000
  H   H50       1.0  0.27809  0.78097  0.21060  1.0000
  H   H51       1.0  0.55797  0.01579  0.80486  1.0000
  H   H52       1.0  0.44203  0.98420  0.19514  1.0000
  H   H53       1.0  0.06569  0.42180  0.71156  1.0000
  H   H54       1.0  0.93430  0.57820  0.28844  1.0000
  H   H55       1.0  0.94507  0.31484  0.79597  1.0000
  H   H56       1.0  0.05492  0.68515  0.20403  1.0000
  H   H57       1.0  0.86068  0.40903  0.72033  1.0000
  H   H58       1.0  0.13931  0.59097  0.27967  1.0000
  C   C1        1.0  0.39977  0.32476  0.90554  1.0000
  C   C2        1.0  0.60023  0.67524  0.09446  1.0000
  C   C3        1.0  0.59008  0.33814  0.96680  1.0000
  C   C4        1.0  0.40992  0.66186  0.03320  1.0000
  C   C5        1.0  0.69176  0.32709  0.01744  1.0000
  C   C6        1.0  0.30825  0.67291  0.98256  1.0000
  C   C7        1.0  0.81976  0.41234  0.99181  1.0000
  C   C8        1.0  0.18024  0.58766  0.00819  1.0000
  C   C9        1.0  0.84416  0.50586  0.91967  1.0000
  C   C10       1.0  0.15584  0.49414  0.08033  1.0000
  C   C11       1.0  0.74064  0.51848  0.87039  1.0000
  C   C12       1.0  0.25937  0.48152  0.12961  1.0000
  C   C13       1.0  0.61347  0.43194  0.89430  1.0000
  C   C14       1.0  0.38654  0.56807  0.10570  1.0000
  C   C15       1.0  0.37851  0.16827  0.03826  1.0000
  C   C16       1.0  0.62149  0.83174  0.96174  1.0000
  C   C17       1.0  0.41246  0.02185  0.01113  1.0000
  C   C18       1.0  0.58754  0.97816  0.98887  1.0000
  C   C19       1.0  0.25479  0.28172  0.88953  1.0000
  C   C20       1.0  0.74521  0.71829  0.11047  1.0000
  C   C21       1.0  0.31483  0.57547  0.59018  1.0000
  C   C22       1.0  0.68517  0.42453  0.40982  1.0000
  C   C23       1.0  0.32657  0.36807  0.54355  1.0000
  C   C24       1.0  0.67342  0.63194  0.45645  1.0000
  C   C25       1.0  0.31903  0.25289  0.50225  1.0000
  C   C26       1.0  0.68096  0.74712  0.49775  1.0000
  C   C27       1.0  0.36474  0.12663  0.53688  1.0000
  C   C28       1.0  0.63526  0.87337  0.46312  1.0000
  C   C29       1.0  0.41890  0.11552  0.60879  1.0000
  C   C30       1.0  0.58109  0.88448  0.39121  1.0000
  C   C31       1.0  0.42911  0.23160  0.64858  1.0000
  C   C32       1.0  0.57089  0.76840  0.35142  1.0000
  C   C33       1.0  0.38073  0.35887  0.61563  1.0000
  C   C34       1.0  0.61927  0.64114  0.38437  1.0000
  C   C35       1.0  0.21508  0.56611  0.46387  1.0000
  C   C36       1.0  0.78492  0.43390  0.53613  1.0000
  C   C37       1.0  0.03484  0.57096  0.49360  1.0000
  C   C38       1.0  0.96516  0.42905  0.50640  1.0000
  C   C39       1.0  0.28164  0.72504  0.59763  1.0000
  C   C40       1.0  0.71835  0.27496  0.40237  1.0000
  C   C41       1.0  0.72578  0.91021  0.70894  1.0000
  C   C42       1.0  0.27422  0.08978  0.29106  1.0000
  C   C43       1.0  0.87102  0.91926  0.64643  1.0000
  C   C44       1.0  0.12899  0.08073  0.35357  1.0000
  C   C45       1.0  0.96306  0.03224  0.63563  1.0000
  C   C46       1.0  0.03694  0.96776  0.36437  1.0000
  C   C47       1.0  0.91232  0.13904  0.68889  1.0000
  C   C48       1.0  0.08768  0.86095  0.31110  1.0000
  C   C49       1.0  0.76501  0.13474  0.74966  1.0000
  C   C50       1.0  0.23499  0.86526  0.25034  1.0000
  C   C51       1.0  0.67330  0.02079  0.75843  1.0000
  C   C52       1.0  0.32670  0.97920  0.24157  1.0000
  C   C53       1.0  0.63289  0.78280  0.72359  1.0000
  C   C54       1.0  0.36712  0.21718  0.27641  1.0000
  C   C55       1.0  0.96719  0.35276  0.72956  1.0000
  C   C56       1.0  0.03280  0.64724  0.27044  1.0000
  N   N1        1.0  0.37278  0.48987  0.64274  1.0000
  N   N2        1.0  0.62722  0.51013  0.35726  1.0000
  N   N3        1.0  0.28624  0.50650  0.52894  1.0000
  N   N4        1.0  0.71377  0.49350  0.47106  1.0000
  N   N5        1.0  0.45314  0.27224  0.97236  1.0000
  N   N6        1.0  0.54686  0.72776  0.02764  1.0000
  N   N7        1.0  0.49357  0.42024  0.85774  1.0000
  N   N8        1.0  0.50643  0.57976  0.14226  1.0000
  O   O1        1.0  0.70326  0.67709  0.68722  1.0000
  O   O2        1.0  0.29675  0.32290  0.31278  1.0000
  O   O3        1.0  0.49225  0.78496  0.77176  1.0000
  O   O4        1.0  0.50776  0.21503  0.22824  1.0000
  O   O5        1.0  0.01426  0.24219  0.67666  1.0000
  O   O6        1.0  0.98573  0.75781  0.32334  1.0000
