data_image0
_chemical_formula_structural       Ag2H66C60N8O6
_chemical_formula_sum              "Ag2 H66 C60 N8 O6"
_cell_length_a       8.46045
_cell_length_b       10.6255
_cell_length_c       17.3873
_cell_angle_alpha    83.666
_cell_angle_beta     81.858
_cell_angle_gamma    84.109

_space_group_name_H-M_alt    "P 1"
_space_group_IT_number       1

loop_
  _space_group_symop_operation_xyz
  'x, y, z'

loop_
  _atom_site_type_symbol
  _atom_site_label
  _atom_site_symmetry_multiplicity
  _atom_site_fract_x
  _atom_site_fract_y
  _atom_site_fract_z
  _atom_site_occupancy
  Ag  Ag1       1.0  0.77514  0.98312  0.25792  1.0000
  Ag  Ag2       1.0  0.22486  0.01688  0.74208  1.0000
  H   H1        1.0  0.32316  0.77040  0.57198  1.0000
  H   H2        1.0  0.67684  0.22961  0.42802  1.0000
  H   H3        1.0  0.72957  0.54092  0.46335  1.0000
  H   H4        1.0  0.27042  0.45908  0.53666  1.0000
  H   H5        1.0  0.51230  0.57266  0.57220  1.0000
  H   H6        1.0  0.48769  0.42735  0.42780  1.0000
  H   H7        1.0  0.77356  0.70735  0.35177  1.0000
  H   H8        1.0  0.22643  0.29264  0.64823  1.0000
  H   H9        1.0  0.33117  0.20772  0.37508  1.0000
  H   H10       1.0  0.66882  0.79228  0.62492  1.0000
  H   H11       1.0  0.51097  0.18932  0.31029  1.0000
  H   H12       1.0  0.48903  0.81068  0.68971  1.0000
  H   H13       1.0  0.37243  0.07239  0.22446  1.0000
  H   H14       1.0  0.62758  0.92760  0.77554  1.0000
  H   H15       1.0  0.27541  0.22772  0.23619  1.0000
  H   H16       1.0  0.72459  0.77228  0.76380  1.0000
  H   H17       1.0  0.18926  0.09307  0.28847  1.0000
  H   H18       1.0  0.81074  0.90692  0.71153  1.0000
  H   H19       1.0  0.11171  0.07301  0.16612  1.0000
  H   H20       1.0  0.88830  0.92698  0.83388  1.0000
  H   H21       1.0  0.34462  0.10104  0.06066  1.0000
  H   H22       1.0  0.65538  0.89897  0.93934  1.0000
  H   H23       1.0  0.38558  0.97275  0.94809  1.0000
  H   H24       1.0  0.61443  0.02726  0.05191  1.0000
  H   H25       1.0  0.19982  0.81164  0.93530  1.0000
  H   H26       1.0  0.80020  0.18836  0.06470  1.0000
  H   H27       1.0  0.68959  0.72438  0.22609  1.0000
  H   H28       1.0  0.31041  0.27562  0.77391  1.0000
  H   H29       1.0  0.71889  0.62550  0.14942  1.0000
  H   H30       1.0  0.28111  0.37450  0.85059  1.0000
  H   H31       1.0  0.51252  0.88186  0.15448  1.0000
  H   H32       1.0  0.48748  0.11814  0.84552  1.0000
  H   H33       1.0  0.44274  0.72880  0.15976  1.0000
  H   H34       1.0  0.55726  0.27120  0.84024  1.0000
  H   H35       1.0  0.54674  0.79498  0.07119  1.0000
  H   H36       1.0  0.45326  0.20502  0.92881  1.0000
  H   H37       1.0  0.98655  0.25774  0.41481  1.0000
  H   H38       1.0  0.01346  0.74226  0.58520  1.0000
  H   H39       1.0  0.10801  0.44472  0.44985  1.0000
  H   H40       1.0  0.89199  0.55529  0.55015  1.0000
  H   H41       1.0  0.02853  0.64537  0.22717  1.0000
  H   H42       1.0  0.97147  0.35463  0.77283  1.0000
  H   H43       1.0  0.90666  0.45605  0.19471  1.0000
  H   H44       1.0  0.09334  0.54395  0.80529  1.0000
  H   H45       1.0  0.23987  0.73773  0.25483  1.0000
  H   H46       1.0  0.76013  0.26227  0.74517  1.0000
  H   H47       1.0  0.24292  0.82195  0.33821  1.0000
  H   H48       1.0  0.75707  0.17805  0.66179  1.0000
  H   H49       1.0  0.05765  0.81579  0.30002  1.0000
  H   H50       1.0  0.94235  0.18421  0.69998  1.0000
  H   H51       1.0  0.22564  0.12464  0.48315  1.0000
  H   H52       1.0  0.77436  0.87536  0.51686  1.0000
  H   H53       1.0  0.23985  0.98995  0.55231  1.0000
  H   H54       1.0  0.76015  0.01004  0.44769  1.0000
  H   H55       1.0  0.08257  0.87286  0.47418  1.0000
  H   H56       1.0  0.91743  0.12714  0.52582  1.0000
  H   H57       1.0  0.05189  0.01436  0.41155  1.0000
  H   H58       1.0  0.94811  0.98564  0.58845  1.0000
  H   H59       1.0  0.94507  0.71533  0.94749  1.0000
  H   H60       1.0  0.05492  0.28467  0.05251  1.0000
  H   H61       1.0  0.78608  0.65836  0.01555  1.0000
  H   H62       1.0  0.21392  0.34164  0.98445  1.0000
  H   H63       1.0  0.99198  0.51690  0.08707  1.0000
  H   H64       1.0  0.00802  0.48310  0.91293  1.0000
  H   H65       1.0  0.14372  0.56893  0.01354  1.0000
  H   H66       1.0  0.85627  0.43107  0.98646  1.0000
  C   C1        1.0  0.56977  0.83094  0.39831  1.0000
  C   C2        1.0  0.43022  0.16906  0.60169  1.0000
  C   C3        1.0  0.44394  0.84693  0.46023  1.0000
  C   C4        1.0  0.55606  0.15307  0.53977  1.0000
  C   C5        1.0  0.41919  0.75575  0.52401  1.0000
  C   C6        1.0  0.58081  0.24426  0.47599  1.0000
  C   C7        1.0  0.65084  0.62882  0.46193  1.0000
  C   C8        1.0  0.34915  0.37118  0.53807  1.0000
  C   C9        1.0  0.52590  0.64667  0.52373  1.0000
  C   C10       1.0  0.47409  0.35334  0.47627  1.0000
  C   C11       1.0  0.67509  0.72047  0.39873  1.0000
  C   C12       1.0  0.32491  0.27952  0.60127  1.0000
  C   C13       1.0  0.39955  0.14539  0.33356  1.0000
  C   C14       1.0  0.60045  0.85461  0.66644  1.0000
  C   C15       1.0  0.30333  0.13358  0.26660  1.0000
  C   C16       1.0  0.69668  0.86642  0.73340  1.0000
  C   C17       1.0  0.05892  0.84759  0.04752  1.0000
  C   C18       1.0  0.94108  0.15241  0.95248  1.0000
  C   C19       1.0  0.03389  0.92058  0.11210  1.0000
  C   C20       1.0  0.96611  0.07942  0.88790  1.0000
  C   C21       1.0  0.13558  0.01372  0.11783  1.0000
  C   C22       1.0  0.86442  0.98627  0.88217  1.0000
  C   C23       1.0  0.26279  0.02898  0.05832  1.0000
  C   C24       1.0  0.73721  0.97103  0.94168  1.0000
  C   C25       1.0  0.28676  0.95544  0.99422  1.0000
  C   C26       1.0  0.71324  0.04456  0.00579  1.0000
  C   C27       1.0  0.18463  0.86372  0.98693  1.0000
  C   C28       1.0  0.81538  0.13629  0.01307  1.0000
  C   C29       1.0  0.69892  0.72526  0.16238  1.0000
  C   C30       1.0  0.30108  0.27475  0.83761  1.0000
  C   C31       1.0  0.54165  0.78640  0.13498  1.0000
  C   C32       1.0  0.45836  0.21360  0.86502  1.0000
  C   C33       1.0  0.94073  0.34484  0.30147  1.0000
  C   C34       1.0  0.05927  0.65515  0.69853  1.0000
  C   C35       1.0  0.87549  0.23021  0.27780  1.0000
  C   C36       1.0  0.12452  0.76978  0.72220  1.0000
  C   C37       1.0  0.99635  0.34301  0.37407  1.0000
  C   C38       1.0  0.00365  0.65699  0.62593  1.0000
  C   C39       1.0  0.06381  0.44672  0.39384  1.0000
  C   C40       1.0  0.93620  0.55327  0.60616  1.0000
  C   C41       1.0  0.07846  0.55602  0.34073  1.0000
  C   C42       1.0  0.92154  0.44398  0.65927  1.0000
  C   C43       1.0  0.02098  0.56064  0.26846  1.0000
  C   C44       1.0  0.97903  0.43936  0.73154  1.0000
  C   C45       1.0  0.84215  0.79329  0.12845  1.0000
  C   C46       1.0  0.15785  0.20671  0.87155  1.0000
  C   C47       1.0  0.44581  0.01910  0.37422  1.0000
  C   C48       1.0  0.55419  0.98089  0.62578  1.0000
  C   C49       1.0  0.95275  0.45531  0.25019  1.0000
  C   C50       1.0  0.04725  0.54468  0.74981  1.0000
  C   C51       1.0  0.17274  0.76285  0.31083  1.0000
  C   C52       1.0  0.82726  0.23715  0.68917  1.0000
  C   C53       1.0  0.22637  0.02062  0.49097  1.0000
  C   C54       1.0  0.77363  0.97938  0.50903  1.0000
  C   C55       1.0  0.07147  0.97746  0.47147  1.0000
  C   C56       1.0  0.92854  0.02254  0.52854  1.0000
  C   C57       1.0  0.91370  0.67467  0.00806  1.0000
  C   C58       1.0  0.08630  0.32533  0.99194  1.0000
  C   C59       1.0  0.01624  0.55065  0.02480  1.0000
  C   C60       1.0  0.98376  0.44935  0.97520  1.0000
  N   N1        1.0  0.56762  0.93959  0.34613  1.0000
  N   N2        1.0  0.43237  0.06041  0.65387  1.0000
  N   N3        1.0  0.36757  0.96690  0.44320  1.0000
  N   N4        1.0  0.63243  0.03310  0.55680  1.0000
  N   N5        1.0  0.93464  0.76905  0.05933  1.0000
  N   N6        1.0  0.06537  0.23095  0.94067  1.0000
  N   N7        1.0  0.89855  0.88452  0.16111  1.0000
  N   N8        1.0  0.10145  0.11548  0.83889  1.0000
  O   O1        1.0  0.14942  0.65220  0.36458  1.0000
  O   O2        1.0  0.85058  0.34780  0.63541  1.0000
  O   O3        1.0  0.86940  0.13263  0.32865  1.0000
  O   O4        1.0  0.13061  0.86736  0.67134  1.0000
  O   O5        1.0  0.83354  0.23424  0.21039  1.0000
  O   O6        1.0  0.16646  0.76575  0.78961  1.0000
