data_image0
_chemical_formula_structural       Ag2H44C42N8O4
_chemical_formula_sum              "Ag2 H44 C42 N8 O4"
_cell_length_a       9.20641
_cell_length_b       9.94869
_cell_length_c       12.3235
_cell_angle_alpha    76.6711
_cell_angle_beta     69.9153
_cell_angle_gamma    66.8813

_space_group_name_H-M_alt    "P 1"
_space_group_IT_number       1

loop_
  _space_group_symop_operation_xyz
  'x, y, z'

loop_
  _atom_site_type_symbol
  _atom_site_label
  _atom_site_symmetry_multiplicity
  _atom_site_fract_x
  _atom_site_fract_y
  _atom_site_fract_z
  _atom_site_occupancy
  Ag  Ag1       1.0  0.28006  0.08900  0.82159  1.0000
  Ag  Ag2       1.0  0.71993  0.91099  0.17842  1.0000
  H   H1        1.0  0.90468  0.68592  0.44064  1.0000
  H   H2        1.0  0.09531  0.31408  0.55936  1.0000
  H   H3        1.0  0.81290  0.47210  0.53957  1.0000
  H   H4        1.0  0.18709  0.52791  0.46042  1.0000
  H   H5        1.0  0.55882  0.50194  0.70407  1.0000
  H   H6        1.0  0.44117  0.49806  0.29593  1.0000
  H   H7        1.0  0.38865  0.74784  0.77721  1.0000
  H   H8        1.0  0.61135  0.25217  0.22279  1.0000
  H   H9        1.0  0.79394  0.12947  0.40091  1.0000
  H   H10       1.0  0.20605  0.87054  0.59909  1.0000
  H   H11       1.0  0.85424  0.95908  0.34900  1.0000
  H   H12       1.0  0.14576  0.04093  0.65100  1.0000
  H   H13       1.0  0.04563  0.84154  0.47574  1.0000
  H   H14       1.0  0.95437  0.15847  0.52426  1.0000
  H   H15       1.0  0.09470  0.98240  0.37072  1.0000
  H   H16       1.0  0.90529  0.01761  0.62928  1.0000
  H   H17       1.0  0.44810  0.27394  0.65942  1.0000
  H   H18       1.0  0.55190  0.72607  0.34058  1.0000
  H   H19       1.0  0.53741  0.28433  0.50562  1.0000
  H   H20       1.0  0.46258  0.71568  0.49439  1.0000
  H   H21       1.0  0.66328  0.24181  0.59902  1.0000
  H   H22       1.0  0.33671  0.75819  0.40098  1.0000
  H   H23       1.0  0.09760  0.76413  0.93833  1.0000
  H   H24       1.0  0.90241  0.23587  0.06166  1.0000
  H   H25       1.0  0.97881  0.85688  0.77252  1.0000
  H   H26       1.0  0.02120  0.14311  0.22748  1.0000
  H   H27       1.0  0.98733  0.68396  0.65009  1.0000
  H   H28       1.0  0.01268  0.31603  0.34991  1.0000
  H   H29       1.0  0.11440  0.41179  0.69497  1.0000
  H   H30       1.0  0.88561  0.58820  0.30503  1.0000
  H   H31       1.0  0.29164  0.42260  0.15329  1.0000
  H   H32       1.0  0.70837  0.57740  0.84671  1.0000
  H   H33       1.0  0.16184  0.60090  0.11529  1.0000
  H   H34       1.0  0.83817  0.39910  0.88470  1.0000
  H   H35       1.0  0.39196  0.65657  0.96335  1.0000
  H   H36       1.0  0.60805  0.34343  0.03664  1.0000
  H   H37       1.0  0.43688  0.60070  0.09692  1.0000
  H   H38       1.0  0.56313  0.39930  0.90308  1.0000
  H   H39       1.0  0.32138  0.20204  0.14668  1.0000
  H   H40       1.0  0.67863  0.79795  0.85332  1.0000
  H   H41       1.0  0.50037  0.15174  0.02738  1.0000
  H   H42       1.0  0.49963  0.84826  0.97262  1.0000
  H   H43       1.0  0.33748  0.08331  0.05135  1.0000
  H   H44       1.0  0.66252  0.91669  0.94864  1.0000
  C   C1        1.0  0.58350  0.06718  0.59649  1.0000
  C   C2        1.0  0.41649  0.93282  0.40351  1.0000
  C   C3        1.0  0.69798  0.83468  0.55597  1.0000
  C   C4        1.0  0.30200  0.16533  0.44403  1.0000
  C   C5        1.0  0.79414  0.69872  0.51399  1.0000
  C   C6        1.0  0.20585  0.30128  0.48601  1.0000
  C   C7        1.0  0.74149  0.57998  0.57012  1.0000
  C   C8        1.0  0.25850  0.42002  0.42988  1.0000
  C   C9        1.0  0.59690  0.59700  0.66357  1.0000
  C   C10       1.0  0.40309  0.40301  0.33643  1.0000
  C   C11       1.0  0.50128  0.73310  0.70546  1.0000
  C   C12       1.0  0.49871  0.26690  0.29454  1.0000
  C   C13       1.0  0.55440  0.85217  0.65142  1.0000
  C   C14       1.0  0.44560  0.14784  0.34859  1.0000
  C   C15       1.0  0.83927  0.01007  0.42429  1.0000
  C   C16       1.0  0.16072  0.98994  0.57571  1.0000
  C   C17       1.0  0.00349  0.96148  0.45175  1.0000
  C   C18       1.0  0.99650  0.03853  0.54826  1.0000
  C   C19       1.0  0.55712  0.22555  0.58943  1.0000
  C   C20       1.0  0.44287  0.77445  0.41057  1.0000
  C   C21       1.0  0.28536  0.30562  0.98072  1.0000
  C   C22       1.0  0.71464  0.69437  0.01928  1.0000
  C   C23       1.0  0.17140  0.53655  0.90916  1.0000
  C   C24       1.0  0.82861  0.46344  0.09084  1.0000
  C   C25       1.0  0.10259  0.68824  0.88521  1.0000
  C   C26       1.0  0.89742  0.31175  0.11478  1.0000
  C   C27       1.0  0.03720  0.73874  0.79082  1.0000
  C   C28       1.0  0.96281  0.26126  0.20918  1.0000
  C   C29       1.0  0.04231  0.64074  0.72211  1.0000
  C   C30       1.0  0.95770  0.35925  0.27789  1.0000
  C   C31       1.0  0.11197  0.48877  0.74631  1.0000
  C   C32       1.0  0.88804  0.51122  0.25368  1.0000
  C   C33       1.0  0.17651  0.43665  0.84154  1.0000
  C   C34       1.0  0.82349  0.56335  0.15846  1.0000
  C   C35       1.0  0.27274  0.50888  0.08085  1.0000
  C   C36       1.0  0.72726  0.49112  0.91914  1.0000
  C   C37       1.0  0.42115  0.56010  0.02733  1.0000
  C   C38       1.0  0.57887  0.43989  0.97267  1.0000
  C   C39       1.0  0.36571  0.17889  0.05592  1.0000
  C   C40       1.0  0.63429  0.82111  0.94408  1.0000
  C   C41       1.0  0.94260  0.04228  0.95780  1.0000
  C   C42       1.0  0.05740  0.95770  0.04222  1.0000
  N   N1        1.0  0.48680  0.99779  0.67434  1.0000
  N   N2        1.0  0.51319  0.00222  0.32567  1.0000
  N   N3        1.0  0.71193  0.97306  0.52226  1.0000
  N   N4        1.0  0.28806  0.02694  0.47774  1.0000
  N   N5        1.0  0.24750  0.29443  0.88861  1.0000
  N   N6        1.0  0.75250  0.70556  0.11139  1.0000
  N   N7        1.0  0.24072  0.45059  0.99658  1.0000
  N   N8        1.0  0.75929  0.54940  0.00342  1.0000
  O   O1        1.0  0.00912  0.08876  0.85499  1.0000
  O   O2        1.0  0.99088  0.91123  0.14503  1.0000
  O   O3        1.0  0.79065  0.05919  0.99843  1.0000
  O   O4        1.0  0.20935  0.94080  0.00158  1.0000
