data_image0
_chemical_formula_structural       U4H16C20N8O20
_chemical_formula_sum              "U4 H16 C20 N8 O20"
_cell_length_a       6.55005
_cell_length_b       8.34719
_cell_length_c       13.5747
_cell_angle_alpha    89.9997
_cell_angle_beta     89.9996
_cell_angle_gamma    90.0006

_space_group_name_H-M_alt    "P 1"
_space_group_IT_number       1

loop_
  _space_group_symop_operation_xyz
  'x, y, z'

loop_
  _atom_site_type_symbol
  _atom_site_label
  _atom_site_symmetry_multiplicity
  _atom_site_fract_x
  _atom_site_fract_y
  _atom_site_fract_z
  _atom_site_occupancy
  U   U1        1.0  0.45632  0.47866  0.46424  1.0000
  U   U2        1.0  0.54370  0.97867  0.53575  1.0000
  U   U3        1.0  0.54369  0.47868  0.96424  1.0000
  U   U4        1.0  0.45633  0.97867  0.03576  1.0000
  H   H1        1.0  0.11374  0.37908  0.08499  1.0000
  H   H2        1.0  0.88626  0.87907  0.91500  1.0000
  H   H3        1.0  0.88626  0.37908  0.58499  1.0000
  H   H4        1.0  0.11373  0.87908  0.41501  1.0000
  H   H5        1.0  0.76851  0.13737  0.29467  1.0000
  H   H6        1.0  0.23147  0.63736  0.70533  1.0000
  H   H7        1.0  0.23148  0.13737  0.79467  1.0000
  H   H8        1.0  0.76852  0.63737  0.20533  1.0000
  H   H9        1.0  0.02945  0.20057  0.42433  1.0000
  H   H10       1.0  0.97053  0.70057  0.57567  1.0000
  H   H11       1.0  0.97054  0.20057  0.92432  1.0000
  H   H12       1.0  0.02946  0.70057  0.07568  1.0000
  H   H13       1.0  0.73039  0.73452  0.41433  1.0000
  H   H14       1.0  0.26960  0.23452  0.58567  1.0000
  H   H15       1.0  0.26961  0.73452  0.91434  1.0000
  H   H16       1.0  0.73040  0.23453  0.08567  1.0000
  C   C1        1.0  0.23183  0.38325  0.23427  1.0000
  C   C2        1.0  0.76816  0.88325  0.76572  1.0000
  C   C3        1.0  0.76817  0.38325  0.73427  1.0000
  C   C4        1.0  0.23183  0.88326  0.26573  1.0000
  C   C5        1.0  0.09279  0.34042  0.16106  1.0000
  C   C6        1.0  0.90719  0.84042  0.83894  1.0000
  C   C7        1.0  0.90720  0.34042  0.66106  1.0000
  C   C8        1.0  0.09279  0.84042  0.33894  1.0000
  C   C9        1.0  0.90499  0.20532  0.27612  1.0000
  C   C10       1.0  0.09500  0.70531  0.72388  1.0000
  C   C11       1.0  0.09501  0.20532  0.77611  1.0000
  C   C12       1.0  0.90499  0.70532  0.22389  1.0000
  C   C13       1.0  0.04891  0.24325  0.34912  1.0000
  C   C14       1.0  0.95108  0.74325  0.65088  1.0000
  C   C15       1.0  0.95109  0.24326  0.84912  1.0000
  C   C16       1.0  0.04892  0.74325  0.15088  1.0000
  C   C17       1.0  0.40419  0.49659  0.21714  1.0000
  C   C18       1.0  0.59581  0.99659  0.78286  1.0000
  C   C19       1.0  0.59580  0.49659  0.71714  1.0000
  C   C20       1.0  0.40419  0.99660  0.28286  1.0000
  N   N1        1.0  0.21012  0.33493  0.32850  1.0000
  N   N2        1.0  0.78987  0.83494  0.67150  1.0000
  N   N3        1.0  0.78988  0.33494  0.82850  1.0000
  N   N4        1.0  0.21013  0.83493  0.17150  1.0000
  N   N5        1.0  0.92573  0.25379  0.18262  1.0000
  N   N6        1.0  0.07425  0.75378  0.81738  1.0000
  N   N7        1.0  0.07426  0.25378  0.68261  1.0000
  N   N8        1.0  0.92573  0.75378  0.31738  1.0000
  O   O1        1.0  0.47925  0.56175  0.29350  1.0000
  O   O2        1.0  0.52075  0.06176  0.70650  1.0000
  O   O3        1.0  0.52075  0.56176  0.79350  1.0000
  O   O4        1.0  0.47924  0.06176  0.20650  1.0000
  O   O5        1.0  0.46299  0.52827  0.13058  1.0000
  O   O6        1.0  0.53703  0.02827  0.86941  1.0000
  O   O7        1.0  0.53701  0.52827  0.63058  1.0000
  O   O8        1.0  0.46299  0.02828  0.36942  1.0000
  O   O9        1.0  0.20361  0.55771  0.48904  1.0000
  O   O10       1.0  0.79641  0.05773  0.51097  1.0000
  O   O11       1.0  0.79640  0.55773  0.98903  1.0000
  O   O12       1.0  0.20362  0.05772  0.01097  1.0000
  O   O13       1.0  0.70456  0.39444  0.43721  1.0000
  O   O14       1.0  0.29545  0.89445  0.56279  1.0000
  O   O15       1.0  0.29545  0.39445  0.93722  1.0000
  O   O16       1.0  0.70457  0.89444  0.06279  1.0000
  O   O17       1.0  0.61486  0.73442  0.46323  1.0000
  O   O18       1.0  0.38514  0.23441  0.53678  1.0000
  O   O19       1.0  0.38515  0.73442  0.96322  1.0000
  O   O20       1.0  0.61487  0.23441  0.03678  1.0000
