data_image0
_chemical_formula_structural       U2H16C24N4O12
_chemical_formula_sum              "U2 H16 C24 N4 O12"
_cell_length_a       7.68261
_cell_length_b       7.68262
_cell_length_c       11.8761
_cell_angle_alpha    93.7443
_cell_angle_beta     93.7437
_cell_angle_gamma    113.036

_space_group_name_H-M_alt    "P 1"
_space_group_IT_number       1

loop_
  _space_group_symop_operation_xyz
  'x, y, z'

loop_
  _atom_site_type_symbol
  _atom_site_label
  _atom_site_symmetry_multiplicity
  _atom_site_fract_x
  _atom_site_fract_y
  _atom_site_fract_z
  _atom_site_occupancy
  U   U1        1.0  0.63731  0.80391  0.78944  1.0000
  U   U2        1.0  0.80391  0.63731  0.28944  1.0000
  H   H1        1.0  0.33571  0.35549  0.86098  1.0000
  H   H2        1.0  0.35549  0.33571  0.36098  1.0000
  H   H3        1.0  0.15621  0.01678  0.77992  1.0000
  H   H4        1.0  0.01679  0.15622  0.27991  1.0000
  H   H5        1.0  0.21895  0.91669  0.58634  1.0000
  H   H6        1.0  0.91671  0.21899  0.08633  1.0000
  H   H7        1.0  0.45058  0.16298  0.48001  1.0000
  H   H8        1.0  0.16299  0.45061  0.98001  1.0000
  H   H9        1.0  0.80262  0.99158  0.53190  1.0000
  H   H10       1.0  0.99160  0.80265  0.03191  1.0000
  H   H11       1.0  0.99983  0.30016  0.46007  1.0000
  H   H12       1.0  0.30019  0.99987  0.96008  1.0000
  H   H13       1.0  0.11620  0.59833  0.59130  1.0000
  H   H14       1.0  0.59835  0.11623  0.09132  1.0000
  H   H15       1.0  0.00164  0.58067  0.78786  1.0000
  H   H16       1.0  0.58068  0.00165  0.28788  1.0000
  C   C1        1.0  0.63227  0.54454  0.55263  1.0000
  C   C2        1.0  0.54456  0.63227  0.05263  1.0000
  C   C3        1.0  0.50309  0.38647  0.61300  1.0000
  C   C4        1.0  0.38648  0.50310  0.11300  1.0000
  C   C5        1.0  0.35385  0.30690  0.77619  1.0000
  C   C6        1.0  0.30690  0.35385  0.27619  1.0000
  C   C7        1.0  0.25614  0.11856  0.73094  1.0000
  C   C8        1.0  0.11857  0.25616  0.23094  1.0000
  C   C9        1.0  0.28899  0.06346  0.62305  1.0000
  C   C10       1.0  0.06347  0.28902  0.12305  1.0000
  C   C11       1.0  0.41578  0.19978  0.56316  1.0000
  C   C12       1.0  0.19979  0.41581  0.06316  1.0000
  C   C13       1.0  0.85090  0.12491  0.58597  1.0000
  C   C14       1.0  0.12492  0.85092  0.08598  1.0000
  C   C15       1.0  0.96223  0.29732  0.54693  1.0000
  C   C16       1.0  0.29734  0.96225  0.04694  1.0000
  C   C17       1.0  0.02438  0.46405  0.61973  1.0000
  C   C18       1.0  0.46407  0.02440  0.11974  1.0000
  C   C19       1.0  0.96450  0.45471  0.72841  1.0000
  C   C20       1.0  0.45472  0.96452  0.22842  1.0000
  C   C21       1.0  0.85047  0.27810  0.76084  1.0000
  C   C22       1.0  0.27811  0.85048  0.26085  1.0000
  C   C23       1.0  0.77470  0.25705  0.87520  1.0000
  C   C24       1.0  0.25705  0.77469  0.37520  1.0000
  N   N1        1.0  0.47570  0.43931  0.71888  1.0000
  N   N2        1.0  0.43932  0.47570  0.21888  1.0000
  N   N3        1.0  0.79887  0.11457  0.69223  1.0000
  N   N4        1.0  0.11457  0.79889  0.19224  1.0000
  O   O1        1.0  0.40643  0.79173  0.73697  1.0000
  O   O2        1.0  0.79174  0.40643  0.23696  1.0000
  O   O3        1.0  0.87111  0.81750  0.83897  1.0000
  O   O4        1.0  0.81751  0.87111  0.33897  1.0000
  O   O5        1.0  0.70514  0.70816  0.60716  1.0000
  O   O6        1.0  0.70818  0.70515  0.10716  1.0000
  O   O7        1.0  0.66066  0.50487  0.45160  1.0000
  O   O8        1.0  0.50489  0.66066  0.95161  1.0000
  O   O9        1.0  0.69172  0.07877  0.89621  1.0000
  O   O10       1.0  0.07878  0.69172  0.39621  1.0000
  O   O11       1.0  0.79073  0.39527  0.94052  1.0000
  O   O12       1.0  0.39527  0.79072  0.44053  1.0000
