data_image0
_chemical_formula_structural       Zn6H40C56N20O20
_chemical_formula_sum              "Zn6 H40 C56 N20 O20"
_cell_length_a       7.4774
_cell_length_b       12.2122
_cell_length_c       18.5136
_cell_angle_alpha    98.4536
_cell_angle_beta     89.9998
_cell_angle_gamma    90.0001

_space_group_name_H-M_alt    "P 1"
_space_group_IT_number       1

loop_
  _space_group_symop_operation_xyz
  'x, y, z'

loop_
  _atom_site_type_symbol
  _atom_site_label
  _atom_site_symmetry_multiplicity
  _atom_site_fract_x
  _atom_site_fract_y
  _atom_site_fract_z
  _atom_site_occupancy
  Zn  Zn1       1.0  0.99954  0.00004  0.99997  1.0000
  Zn  Zn2       1.0  0.49944  0.49995  0.50004  1.0000
  Zn  Zn3       1.0  0.21252  0.10644  0.31993  1.0000
  Zn  Zn4       1.0  0.71252  0.39357  0.18007  1.0000
  Zn  Zn5       1.0  0.78747  0.89356  0.68005  1.0000
  Zn  Zn6       1.0  0.28747  0.60644  0.81995  1.0000
  H   H1        1.0  0.52046  0.94117  0.27060  1.0000
  H   H2        1.0  0.02047  0.55883  0.22940  1.0000
  H   H3        1.0  0.47953  0.05882  0.72938  1.0000
  H   H4        1.0  0.97954  0.44117  0.77061  1.0000
  H   H5        1.0  0.62506  0.92807  0.48907  1.0000
  H   H6        1.0  0.12506  0.57193  0.01093  1.0000
  H   H7        1.0  0.37498  0.07193  0.51094  1.0000
  H   H8        1.0  0.87497  0.42806  0.98905  1.0000
  H   H9        1.0  0.60021  0.12412  0.45898  1.0000
  H   H10       1.0  0.10021  0.37588  0.04102  1.0000
  H   H11       1.0  0.39983  0.87588  0.54103  1.0000
  H   H12       1.0  0.89982  0.62411  0.95896  1.0000
  H   H13       1.0  0.11810  0.73110  0.40991  1.0000
  H   H14       1.0  0.61810  0.76889  0.09010  1.0000
  H   H15       1.0  0.88193  0.26891  0.59010  1.0000
  H   H16       1.0  0.38195  0.23110  0.90990  1.0000
  H   H17       1.0  0.88271  0.81492  0.44606  1.0000
  H   H18       1.0  0.38271  0.68508  0.05394  1.0000
  H   H19       1.0  0.11732  0.18508  0.55395  1.0000
  H   H20       1.0  0.61731  0.31492  0.94605  1.0000
  H   H21       1.0  0.39964  0.64124  0.35890  1.0000
  H   H22       1.0  0.89964  0.85877  0.14111  1.0000
  H   H23       1.0  0.60041  0.35878  0.64112  1.0000
  H   H24       1.0  0.10042  0.14122  0.85889  1.0000
  H   H25       1.0  0.85241  0.19514  0.38853  1.0000
  H   H26       1.0  0.35240  0.30486  0.11148  1.0000
  H   H27       1.0  0.14759  0.80485  0.61147  1.0000
  H   H28       1.0  0.64760  0.69514  0.88852  1.0000
  H   H29       1.0  0.60435  0.74475  0.28703  1.0000
  H   H30       1.0  0.10435  0.75526  0.21297  1.0000
  H   H31       1.0  0.39568  0.25526  0.71297  1.0000
  H   H32       1.0  0.89568  0.24474  0.78703  1.0000
  H   H33       1.0  0.66381  0.92631  0.94040  1.0000
  H   H34       1.0  0.16381  0.57370  0.55960  1.0000
  H   H35       1.0  0.33627  0.07356  0.05970  1.0000
  H   H36       1.0  0.83627  0.42645  0.44029  1.0000
  H   H37       1.0  0.65108  0.02801  0.99986  1.0000
  H   H38       1.0  0.15092  0.47202  0.50012  1.0000
  H   H39       1.0  0.34737  0.97159  0.00037  1.0000
  H   H40       1.0  0.84722  0.52846  0.49961  1.0000
  C   C1        1.0  0.00913  0.28646  0.25695  1.0000
  C   C2        1.0  0.50914  0.21355  0.24305  1.0000
  C   C3        1.0  0.99089  0.71352  0.74305  1.0000
  C   C4        1.0  0.49089  0.78648  0.75695  1.0000
  C   C5        1.0  0.00859  0.18538  0.20083  1.0000
  C   C6        1.0  0.50861  0.31462  0.29918  1.0000
  C   C7        1.0  0.99142  0.81461  0.79916  1.0000
  C   C8        1.0  0.49142  0.68538  0.70085  1.0000
  C   C9        1.0  0.17198  0.88395  0.36681  1.0000
  C   C10       1.0  0.67198  0.61605  0.13319  1.0000
  C   C11       1.0  0.82803  0.11605  0.63318  1.0000
  C   C12       1.0  0.32803  0.38395  0.86682  1.0000
  C   C13       1.0  0.95864  0.15918  0.12757  1.0000
  C   C14       1.0  0.45864  0.34082  0.37244  1.0000
  C   C15       1.0  0.04142  0.84086  0.87241  1.0000
  C   C16       1.0  0.54142  0.65912  0.62759  1.0000
  C   C17       1.0  0.00845  0.94492  0.39453  1.0000
  C   C18       1.0  0.50845  0.55509  0.10548  1.0000
  C   C19       1.0  0.99156  0.05508  0.60546  1.0000
  C   C20       1.0  0.49155  0.44492  0.89454  1.0000
  C   C21       1.0  0.43656  0.89045  0.30077  1.0000
  C   C22       1.0  0.93656  0.60956  0.19923  1.0000
  C   C23       1.0  0.56345  0.10955  0.69922  1.0000
  C   C24       1.0  0.06345  0.39045  0.80078  1.0000
  C   C25       1.0  0.72646  0.96351  0.45737  1.0000
  C   C26       1.0  0.22646  0.53649  0.04263  1.0000
  C   C27       1.0  0.27357  0.03649  0.54264  1.0000
  C   C28       1.0  0.77357  0.46351  0.95736  1.0000
  C   C29       1.0  0.71443  0.07155  0.44194  1.0000
  C   C30       1.0  0.21443  0.42846  0.05806  1.0000
  C   C31       1.0  0.28559  0.92845  0.55807  1.0000
  C   C32       1.0  0.78559  0.57154  0.94193  1.0000
  C   C33       1.0  0.20891  0.77561  0.37859  1.0000
  C   C34       1.0  0.70891  0.72439  0.12141  1.0000
  C   C35       1.0  0.79112  0.22440  0.62141  1.0000
  C   C36       1.0  0.29112  0.27560  0.87859  1.0000
  C   C37       1.0  0.87434  0.89902  0.43342  1.0000
  C   C38       1.0  0.37435  0.60099  0.06658  1.0000
  C   C39       1.0  0.12567  0.10098  0.56658  1.0000
  C   C40       1.0  0.62567  0.39902  0.93342  1.0000
  C   C41       1.0  0.36558  0.72483  0.35009  1.0000
  C   C42       1.0  0.86558  0.77517  0.14991  1.0000
  C   C43       1.0  0.63446  0.27518  0.64991  1.0000
  C   C44       1.0  0.13445  0.22482  0.85009  1.0000
  C   C45       1.0  0.85278  0.11153  0.40279  1.0000
  C   C46       1.0  0.35278  0.38847  0.09721  1.0000
  C   C47       1.0  0.14721  0.88846  0.59720  1.0000
  C   C48       1.0  0.64722  0.61154  0.90280  1.0000
  C   C49       1.0  0.48106  0.78257  0.31002  1.0000
  C   C50       1.0  0.98106  0.71743  0.18998  1.0000
  C   C51       1.0  0.51897  0.21743  0.68998  1.0000
  C   C52       1.0  0.01897  0.28257  0.81002  1.0000
  C   C53       1.0  0.88195  0.21690  0.06927  1.0000
  C   C54       1.0  0.38197  0.28309  0.43073  1.0000
  C   C55       1.0  0.11820  0.78321  0.93072  1.0000
  C   C56       1.0  0.61821  0.71677  0.56928  1.0000
  N   N1        1.0  0.07728  0.01043  0.16391  1.0000
  N   N2        1.0  0.57728  0.48957  0.33610  1.0000
  N   N3        1.0  0.92274  0.98957  0.83603  1.0000
  N   N4        1.0  0.42274  0.51042  0.66397  1.0000
  N   N5        1.0  0.07926  0.09134  0.22007  1.0000
  N   N6        1.0  0.57925  0.40866  0.27993  1.0000
  N   N7        1.0  0.92076  0.90863  0.77989  1.0000
  N   N8        1.0  0.42075  0.59136  0.72011  1.0000
  N   N9        1.0  0.28641  0.93956  0.32887  1.0000
  N   N10       1.0  0.78640  0.56045  0.17113  1.0000
  N   N11       1.0  0.71359  0.06044  0.67110  1.0000
  N   N12       1.0  0.21359  0.43956  0.82889  1.0000
  N   N13       1.0  0.00328  0.05091  0.10778  1.0000
  N   N14       1.0  0.50330  0.44908  0.39222  1.0000
  N   N15       1.0  0.99677  0.94913  0.89217  1.0000
  N   N16       1.0  0.49678  0.55086  0.60784  1.0000
  N   N17       1.0  0.99545  0.04987  0.38012  1.0000
  N   N18       1.0  0.49545  0.45013  0.11988  1.0000
  N   N19       1.0  0.00453  0.95012  0.61987  1.0000
  N   N20       1.0  0.50454  0.54988  0.88013  1.0000
  O   O1        1.0  0.07664  0.27517  0.31849  1.0000
  O   O2        1.0  0.57664  0.22483  0.18151  1.0000
  O   O3        1.0  0.92340  0.72479  0.68150  1.0000
  O   O4        1.0  0.42338  0.77520  0.81850  1.0000
  O   O5        1.0  0.94612  0.37640  0.24075  1.0000
  O   O6        1.0  0.44612  0.12361  0.25925  1.0000
  O   O7        1.0  0.05390  0.62359  0.75926  1.0000
  O   O8        1.0  0.55389  0.87640  0.74073  1.0000
  O   O9        1.0  0.68551  0.94979  0.99242  1.0000
  O   O10       1.0  0.18558  0.55021  0.50758  1.0000
  O   O11       1.0  0.31537  0.05021  0.00761  1.0000
  O   O12       1.0  0.81546  0.44979  0.49239  1.0000
  O   O13       1.0  0.82445  0.31532  0.08310  1.0000
  O   O14       1.0  0.32446  0.18468  0.41690  1.0000
  O   O15       1.0  0.17555  0.68475  0.91693  1.0000
  O   O16       1.0  0.67555  0.81523  0.58306  1.0000
  O   O17       1.0  0.88266  0.16161  0.00473  1.0000
  O   O18       1.0  0.38270  0.33837  0.49527  1.0000
  O   O19       1.0  0.11774  0.83862  0.99523  1.0000
  O   O20       1.0  0.61776  0.66137  0.50477  1.0000
