data_image0
_chemical_formula_structural       K12H20C24O28
_chemical_formula_sum              "K12 H20 C24 O28"
_cell_length_a       7.6079
_cell_length_b       10.4543
_cell_length_c       12.4527
_cell_angle_alpha    90
_cell_angle_beta     89.9999
_cell_angle_gamma    90.0001

_space_group_name_H-M_alt    "P 1"
_space_group_IT_number       1

loop_
  _space_group_symop_operation_xyz
  'x, y, z'

loop_
  _atom_site_type_symbol
  _atom_site_label
  _atom_site_symmetry_multiplicity
  _atom_site_fract_x
  _atom_site_fract_y
  _atom_site_fract_z
  _atom_site_occupancy
  K   K1        1.0  0.64828  0.24917  0.12206  1.0000
  K   K2        1.0  0.85172  0.74918  0.62206  1.0000
  K   K3        1.0  0.14828  0.24918  0.37795  1.0000
  K   K4        1.0  0.35171  0.74917  0.87794  1.0000
  K   K5        1.0  0.35538  0.97274  0.20943  1.0000
  K   K6        1.0  0.14462  0.47274  0.70943  1.0000
  K   K7        1.0  0.85538  0.97273  0.29057  1.0000
  K   K8        1.0  0.64462  0.47275  0.79057  1.0000
  K   K9        1.0  0.14732  0.69835  0.37576  1.0000
  K   K10       1.0  0.35268  0.19835  0.87576  1.0000
  K   K11       1.0  0.64732  0.69834  0.12424  1.0000
  K   K12       1.0  0.85267  0.19833  0.62424  1.0000
  H   H1        1.0  0.94522  0.57349  0.12526  1.0000
  H   H2        1.0  0.55478  0.07349  0.62527  1.0000
  H   H3        1.0  0.44522  0.57349  0.37473  1.0000
  H   H4        1.0  0.05479  0.07349  0.87474  1.0000
  H   H5        1.0  0.04282  0.59339  0.99678  1.0000
  H   H6        1.0  0.45718  0.09339  0.49678  1.0000
  H   H7        1.0  0.54283  0.59339  0.50322  1.0000
  H   H8        1.0  0.95718  0.09339  0.00322  1.0000
  H   H9        1.0  0.03534  0.34974  0.00275  1.0000
  H   H10       1.0  0.46467  0.84974  0.50275  1.0000
  H   H11       1.0  0.53534  0.34974  0.49725  1.0000
  H   H12       1.0  0.96466  0.84974  0.99724  1.0000
  H   H13       1.0  0.95112  0.36949  0.13505  1.0000
  H   H14       1.0  0.54888  0.86949  0.63505  1.0000
  H   H15       1.0  0.45112  0.36949  0.36494  1.0000
  H   H16       1.0  0.04887  0.86949  0.86494  1.0000
  H   H17       1.0  0.38201  0.47630  0.19823  1.0000
  H   H18       1.0  0.11799  0.97631  0.69823  1.0000
  H   H19       1.0  0.88202  0.47630  0.30177  1.0000
  H   H20       1.0  0.61799  0.97631  0.80177  1.0000
  C   C1        1.0  0.14667  0.71725  0.12098  1.0000
  C   C2        1.0  0.35333  0.21725  0.62098  1.0000
  C   C3        1.0  0.64667  0.71725  0.37902  1.0000
  C   C4        1.0  0.85333  0.21725  0.87902  1.0000
  C   C5        1.0  0.07011  0.58984  0.08354  1.0000
  C   C6        1.0  0.42989  0.08983  0.58354  1.0000
  C   C7        1.0  0.57011  0.58983  0.41646  1.0000
  C   C8        1.0  0.92989  0.08984  0.91646  1.0000
  C   C9        1.0  0.18745  0.47282  0.10416  1.0000
  C   C10       1.0  0.31255  0.97282  0.60416  1.0000
  C   C11       1.0  0.68746  0.47282  0.39584  1.0000
  C   C12       1.0  0.81255  0.97282  0.89584  1.0000
  C   C13       1.0  0.07150  0.35428  0.08827  1.0000
  C   C14       1.0  0.42850  0.85427  0.58827  1.0000
  C   C15       1.0  0.57150  0.35427  0.41173  1.0000
  C   C16       1.0  0.92850  0.85427  0.91173  1.0000
  C   C17       1.0  0.15297  0.22730  0.12279  1.0000
  C   C18       1.0  0.34703  0.72730  0.62279  1.0000
  C   C19       1.0  0.65297  0.22730  0.37721  1.0000
  C   C20       1.0  0.84702  0.72730  0.87721  1.0000
  C   C21       1.0  0.34956  0.47227  0.02723  1.0000
  C   C22       1.0  0.15044  0.97227  0.52723  1.0000
  C   C23       1.0  0.84955  0.47227  0.47277  1.0000
  C   C24       1.0  0.65045  0.97227  0.97277  1.0000
  O   O1        1.0  0.30056  0.74691  0.09013  1.0000
  O   O2        1.0  0.19944  0.24690  0.59013  1.0000
  O   O3        1.0  0.80056  0.74691  0.40986  1.0000
  O   O4        1.0  0.69944  0.24691  0.90987  1.0000
  O   O5        1.0  0.04983  0.78693  0.18084  1.0000
  O   O6        1.0  0.45017  0.28693  0.68084  1.0000
  O   O7        1.0  0.54982  0.78693  0.31916  1.0000
  O   O8        1.0  0.95017  0.28694  0.81916  1.0000
  O   O9        1.0  0.06049  0.15541  0.18342  1.0000
  O   O10       1.0  0.43951  0.65541  0.68342  1.0000
  O   O11       1.0  0.56049  0.15541  0.31658  1.0000
  O   O12       1.0  0.93950  0.65541  0.81657  1.0000
  O   O13       1.0  0.30569  0.19978  0.08884  1.0000
  O   O14       1.0  0.19431  0.69978  0.58884  1.0000
  O   O15       1.0  0.80568  0.19978  0.41116  1.0000
  O   O16       1.0  0.69431  0.69978  0.91116  1.0000
  O   O17       1.0  0.32343  0.47131  0.92676  1.0000
  O   O18       1.0  0.17657  0.97131  0.42676  1.0000
  O   O19       1.0  0.82342  0.47131  0.57324  1.0000
  O   O20       1.0  0.67658  0.97131  0.07324  1.0000
  O   O21       1.0  0.49797  0.47343  0.07451  1.0000
  O   O22       1.0  0.00204  0.97343  0.57451  1.0000
  O   O23       1.0  0.99797  0.47343  0.42549  1.0000
  O   O24       1.0  0.50204  0.97344  0.92549  1.0000
  O   O25       1.0  0.25311  0.47534  0.21302  1.0000
  O   O26       1.0  0.24689  0.97533  0.71302  1.0000
  O   O27       1.0  0.75312  0.47533  0.28698  1.0000
  O   O28       1.0  0.74689  0.97534  0.78698  1.0000
