data_image0
_chemical_formula_structural       Mn3H16C24N6O18
_chemical_formula_sum              "Mn3 H16 C24 N6 O18"
_cell_length_a       7.91087
_cell_length_b       8.96094
_cell_length_c       10.4779
_cell_angle_alpha    95.8361
_cell_angle_beta     104.382
_cell_angle_gamma    97.9591

_space_group_name_H-M_alt    "P 1"
_space_group_IT_number       1

loop_
  _space_group_symop_operation_xyz
  'x, y, z'

loop_
  _atom_site_type_symbol
  _atom_site_label
  _atom_site_symmetry_multiplicity
  _atom_site_fract_x
  _atom_site_fract_y
  _atom_site_fract_z
  _atom_site_occupancy
  Mn  Mn1       1.0  0.50001  0.50005  0.99987  1.0000
  Mn  Mn2       1.0  0.54532  0.68511  0.68705  1.0000
  Mn  Mn3       1.0  0.45461  0.31485  0.31287  1.0000
  H   H1        1.0  0.91599  0.39614  0.25573  1.0000
  H   H2        1.0  0.08393  0.60380  0.74427  1.0000
  H   H3        1.0  0.16844  0.82231  0.50501  1.0000
  H   H4        1.0  0.83139  0.17773  0.49488  1.0000
  H   H5        1.0  0.60114  0.71722  0.31585  1.0000
  H   H6        1.0  0.39866  0.28268  0.68400  1.0000
  H   H7        1.0  0.10939  0.62380  0.09778  1.0000
  H   H8        1.0  0.89112  0.37648  0.90258  1.0000
  H   H9        1.0  0.86242  0.89925  0.46219  1.0000
  H   H10       1.0  0.13731  0.10067  0.53766  1.0000
  H   H11       1.0  0.46802  0.87377  0.94029  1.0000
  H   H12       1.0  0.53205  0.12645  0.05968  1.0000
  H   H13       1.0  0.91590  0.92694  0.81946  1.0000
  H   H14       1.0  0.08411  0.07295  0.18060  1.0000
  H   H15       1.0  0.23321  0.00330  0.80902  1.0000
  H   H16       1.0  0.76673  0.99677  0.19095  1.0000
  C   C1        1.0  0.80051  0.71566  0.95941  1.0000
  C   C2        1.0  0.19971  0.28436  0.04070  1.0000
  C   C3        1.0  0.06522  0.60461  0.38318  1.0000
  C   C4        1.0  0.93462  0.39539  0.61679  1.0000
  C   C5        1.0  0.98823  0.77104  0.95930  1.0000
  C   C6        1.0  0.01198  0.22901  0.04086  1.0000
  C   C7        1.0  0.91472  0.50911  0.30374  1.0000
  C   C8        1.0  0.08516  0.49085  0.69623  1.0000
  C   C9        1.0  0.05004  0.74782  0.44226  1.0000
  C   C10       1.0  0.94981  0.25221  0.55763  1.0000
  C   C11       1.0  0.73514  0.69166  0.33900  1.0000
  C   C12       1.0  0.26468  0.30825  0.66090  1.0000
  C   C13       1.0  0.12581  0.70904  0.03331  1.0000
  C   C14       1.0  0.87449  0.29111  0.96688  1.0000
  C   C15       1.0  0.23985  0.54839  0.40664  1.0000
  C   C16       1.0  0.75999  0.45157  0.59344  1.0000
  C   C17       1.0  0.88328  0.79052  0.41781  1.0000
  C   C18       1.0  0.11654  0.20941  0.58206  1.0000
  C   C19       1.0  0.33094  0.85473  0.94418  1.0000
  C   C20       1.0  0.66915  0.14540  0.05582  1.0000
  C   C21       1.0  0.02426  0.88007  0.87828  1.0000
  C   C22       1.0  0.97582  0.11990  0.12177  1.0000
  C   C23       1.0  0.19769  0.92160  0.87200  1.0000
  C   C24       1.0  0.80235  0.07847  0.12800  1.0000
  N   N1        1.0  0.75443  0.55295  0.28495  1.0000
  N   N2        1.0  0.24541  0.44697  0.71498  1.0000
  N   N3        1.0  0.29410  0.75084  0.02409  1.0000
  N   N4        1.0  0.70610  0.24927  0.97592  1.0000
  N   N5        1.0  0.57688  0.98233  0.65406  1.0000
  N   N6        1.0  0.42310  0.01757  0.34594  1.0000
  O   O1        1.0  0.68071  0.77332  0.88451  1.0000
  O   O2        1.0  0.31951  0.22654  0.11545  1.0000
  O   O3        1.0  0.42390  0.68801  0.09114  1.0000
  O   O4        1.0  0.57636  0.31207  0.90871  1.0000
  O   O5        1.0  0.68651  0.89654  0.62971  1.0000
  O   O6        1.0  0.31342  0.10331  0.37033  1.0000
  O   O7        1.0  0.61112  0.45472  0.21077  1.0000
  O   O8        1.0  0.38875  0.54519  0.78912  1.0000
  O   O9        1.0  0.25079  0.44093  0.32144  1.0000
  O   O10       1.0  0.74894  0.55866  0.67895  1.0000
  O   O11       1.0  0.77001  0.61341  0.03028  1.0000
  O   O12       1.0  0.23025  0.38670  0.96993  1.0000
  O   O13       1.0  0.44213  0.91697  0.68701  1.0000
  O   O14       1.0  0.55797  0.08305  0.31319  1.0000
  O   O15       1.0  0.36018  0.61023  0.50921  1.0000
  O   O16       1.0  0.63982  0.39014  0.49065  1.0000
  O   O17       1.0  0.60134  0.12020  0.64650  1.0000
  O   O18       1.0  0.39856  0.87964  0.35325  1.0000
