data_image0
_chemical_formula_structural       Mn8H32C48N8Cl8O24
_chemical_formula_sum              "Mn8 H32 C48 N8 Cl8 O24"
_cell_length_a       6.41209
_cell_length_b       12.9957
_cell_length_c       16.5619
_cell_angle_alpha    90.0115
_cell_angle_beta     89.9988
_cell_angle_gamma    90.0445

_space_group_name_H-M_alt    "P 1"
_space_group_IT_number       1

loop_
  _space_group_symop_operation_xyz
  'x, y, z'

loop_
  _atom_site_type_symbol
  _atom_site_label
  _atom_site_symmetry_multiplicity
  _atom_site_fract_x
  _atom_site_fract_y
  _atom_site_fract_z
  _atom_site_occupancy
  Mn  Mn1       1.0  0.45210  0.82183  0.01887  1.0000
  Mn  Mn2       1.0  0.54766  0.67835  0.51854  1.0000
  Mn  Mn3       1.0  0.95312  0.17859  0.48073  1.0000
  Mn  Mn4       1.0  0.04740  0.32160  0.98135  1.0000
  Mn  Mn5       1.0  0.54727  0.17834  0.98142  1.0000
  Mn  Mn6       1.0  0.45300  0.32126  0.48081  1.0000
  Mn  Mn7       1.0  0.04806  0.82159  0.51858  1.0000
  Mn  Mn8       1.0  0.95179  0.67844  0.01862  1.0000
  H   H1        1.0  0.78801  0.77979  0.35421  1.0000
  H   H2        1.0  0.21272  0.72013  0.85429  1.0000
  H   H3        1.0  0.28621  0.22015  0.14589  1.0000
  H   H4        1.0  0.71275  0.27970  0.64566  1.0000
  H   H5        1.0  0.21262  0.22024  0.64571  1.0000
  H   H6        1.0  0.78643  0.28023  0.14585  1.0000
  H   H7        1.0  0.71245  0.77987  0.85441  1.0000
  H   H8        1.0  0.28784  0.72000  0.35431  1.0000
  H   H9        1.0  0.72978  0.69696  0.21684  1.0000
  H   H10       1.0  0.27102  0.80309  0.71698  1.0000
  H   H11       1.0  0.22805  0.30302  0.28315  1.0000
  H   H12       1.0  0.77089  0.19703  0.78303  1.0000
  H   H13       1.0  0.27068  0.30293  0.78313  1.0000
  H   H14       1.0  0.72806  0.19704  0.28300  1.0000
  H   H15       1.0  0.77060  0.69686  0.71710  1.0000
  H   H16       1.0  0.22981  0.80307  0.21709  1.0000
  H   H17       1.0  0.93418  0.06138  0.22797  1.0000
  H   H18       1.0  0.06559  0.43877  0.72778  1.0000
  H   H19       1.0  0.43519  0.93899  0.27220  1.0000
  H   H20       1.0  0.56555  0.56111  0.77186  1.0000
  H   H21       1.0  0.06610  0.93855  0.77177  1.0000
  H   H22       1.0  0.93451  0.56133  0.27256  1.0000
  H   H23       1.0  0.56618  0.06115  0.72788  1.0000
  H   H24       1.0  0.43386  0.43868  0.22762  1.0000
  H   H25       1.0  0.87298  0.96729  0.09691  1.0000
  H   H26       1.0  0.12645  0.53305  0.59681  1.0000
  H   H27       1.0  0.37464  0.03318  0.40318  1.0000
  H   H28       1.0  0.62643  0.46719  0.90297  1.0000
  H   H29       1.0  0.12695  0.03253  0.90293  1.0000
  H   H30       1.0  0.87388  0.46681  0.40343  1.0000
  H   H31       1.0  0.62708  0.96685  0.59692  1.0000
  H   H32       1.0  0.37276  0.53307  0.09674  1.0000
  C   C1        1.0  0.88874  0.97975  0.38259  1.0000
  C   C2        1.0  0.11146  0.52015  0.88252  1.0000
  C   C3        1.0  0.38821  0.02034  0.11757  1.0000
  C   C4        1.0  0.61129  0.47957  0.61726  1.0000
  C   C5        1.0  0.11155  0.02027  0.61721  1.0000
  C   C6        1.0  0.88834  0.48010  0.11773  1.0000
  C   C7        1.0  0.61163  0.97986  0.88261  1.0000
  C   C8        1.0  0.38847  0.52001  0.38242  1.0000
  C   C9        1.0  0.80752  0.82396  0.29886  1.0000
  C   C10       1.0  0.19293  0.67606  0.79888  1.0000
  C   C11       1.0  0.30628  0.17608  0.20125  1.0000
  C   C12       1.0  0.69294  0.32386  0.70102  1.0000
  C   C13       1.0  0.19310  0.17600  0.70103  1.0000
  C   C14       1.0  0.80618  0.32421  0.20128  1.0000
  C   C15       1.0  0.69293  0.82393  0.79900  1.0000
  C   C16       1.0  0.30738  0.67594  0.29889  1.0000
  C   C17       1.0  0.77393  0.77691  0.22543  1.0000
  C   C18       1.0  0.22648  0.72318  0.72550  1.0000
  C   C19       1.0  0.27275  0.22316  0.27463  1.0000
  C   C20       1.0  0.72640  0.27689  0.77447  1.0000
  C   C21       1.0  0.22657  0.22299  0.77449  1.0000
  C   C22       1.0  0.77272  0.27695  0.27460  1.0000
  C   C23       1.0  0.72642  0.77678  0.72561  1.0000
  C   C24       1.0  0.27393  0.72313  0.22554  1.0000
  C   C25       1.0  0.86492  0.92788  0.30207  1.0000
  C   C26       1.0  0.13529  0.57215  0.80201  1.0000
  C   C27       1.0  0.36462  0.07227  0.19798  1.0000
  C   C28       1.0  0.63519  0.42768  0.69780  1.0000
  C   C29       1.0  0.13569  0.07209  0.69779  1.0000
  C   C30       1.0  0.86410  0.42810  0.19820  1.0000
  C   C31       1.0  0.63543  0.92782  0.80212  1.0000
  C   C32       1.0  0.36467  0.57203  0.30196  1.0000
  C   C33       1.0  0.89076  0.98056  0.22885  1.0000
  C   C34       1.0  0.10917  0.51959  0.72873  1.0000
  C   C35       1.0  0.39131  0.01973  0.27128  1.0000
  C   C36       1.0  0.60918  0.48034  0.77102  1.0000
  C   C37       1.0  0.10973  0.01937  0.77098  1.0000
  C   C38       1.0  0.89071  0.48054  0.27151  1.0000
  C   C39       1.0  0.60958  0.98034  0.72883  1.0000
  C   C40       1.0  0.39051  0.51950  0.22866  1.0000
  C   C41       1.0  0.85839  0.93113  0.15595  1.0000
  C   C42       1.0  0.14146  0.56911  0.65588  1.0000
  C   C43       1.0  0.35927  0.06918  0.34413  1.0000
  C   C44       1.0  0.64146  0.43103  0.84394  1.0000
  C   C45       1.0  0.14189  0.06875  0.84392  1.0000
  C   C46       1.0  0.85868  0.43089  0.34432  1.0000
  C   C47       1.0  0.64190  0.93081  0.65598  1.0000
  C   C48       1.0  0.35816  0.56907  0.15584  1.0000
  N   N1        1.0  0.79633  0.83108  0.15565  1.0000
  N   N2        1.0  0.20375  0.66912  0.65566  1.0000
  N   N3        1.0  0.29638  0.16913  0.34447  1.0000
  N   N4        1.0  0.70364  0.33102  0.84427  1.0000
  N   N5        1.0  0.20394  0.16882  0.84426  1.0000
  N   N6        1.0  0.79605  0.33089  0.34449  1.0000
  N   N7        1.0  0.70388  0.83080  0.65576  1.0000
  N   N8        1.0  0.29625  0.66911  0.15569  1.0000
  Cl  Cl1       1.0  0.60863  0.65968  0.95346  1.0000
  Cl  Cl2       1.0  0.39101  0.84036  0.45327  1.0000
  Cl  Cl3       1.0  0.10974  0.34084  0.54691  1.0000
  Cl  Cl4       1.0  0.89014  0.15976  0.04667  1.0000
  Cl  Cl5       1.0  0.39100  0.34027  0.04658  1.0000
  Cl  Cl6       1.0  0.60970  0.15901  0.54690  1.0000
  Cl  Cl7       1.0  0.89080  0.65962  0.45332  1.0000
  Cl  Cl8       1.0  0.10925  0.84040  0.95335  1.0000
  O   O1        1.0  0.89920  0.07788  0.38208  1.0000
  O   O2        1.0  0.10138  0.42204  0.88189  1.0000
  O   O3        1.0  0.39885  0.92220  0.11814  1.0000
  O   O4        1.0  0.60105  0.57765  0.61779  1.0000
  O   O5        1.0  0.10159  0.92217  0.61759  1.0000
  O   O6        1.0  0.89841  0.57821  0.11837  1.0000
  O   O7        1.0  0.60129  0.07796  0.88199  1.0000
  O   O8        1.0  0.39881  0.42189  0.38173  1.0000
  O   O9        1.0  0.89097  0.92368  0.44503  1.0000
  O   O10       1.0  0.10894  0.57624  0.94497  1.0000
  O   O11       1.0  0.39000  0.07631  0.05501  1.0000
  O   O12       1.0  0.60871  0.42342  0.55482  1.0000
  O   O13       1.0  0.10829  0.07651  0.55486  1.0000
  O   O14       1.0  0.89177  0.42414  0.05523  1.0000
  O   O15       1.0  0.60922  0.92384  0.94509  1.0000
  O   O16       1.0  0.39069  0.57594  0.44496  1.0000
  O   O17       1.0  0.74683  0.78570  0.08616  1.0000
  O   O18       1.0  0.25306  0.71458  0.58619  1.0000
  O   O19       1.0  0.24722  0.21437  0.41406  1.0000
  O   O20       1.0  0.75261  0.28569  0.91377  1.0000
  O   O21       1.0  0.25301  0.21421  0.91377  1.0000
  O   O22       1.0  0.74684  0.28544  0.41399  1.0000
  O   O23       1.0  0.75303  0.78531  0.58632  1.0000
  O   O24       1.0  0.24687  0.71461  0.08628  1.0000
