data_image0
_chemical_formula_structural       Cd6H44C60N24O16
_chemical_formula_sum              "Cd6 H44 C60 N24 O16"
_cell_length_a       8.16264
_cell_length_b       9.30521
_cell_length_c       21.2747
_cell_angle_alpha    89.9998
_cell_angle_beta     91.1498
_cell_angle_gamma    89.9998

_space_group_name_H-M_alt    "P 1"
_space_group_IT_number       1

loop_
  _space_group_symop_operation_xyz
  'x, y, z'

loop_
  _atom_site_type_symbol
  _atom_site_label
  _atom_site_symmetry_multiplicity
  _atom_site_fract_x
  _atom_site_fract_y
  _atom_site_fract_z
  _atom_site_occupancy
  Cd  Cd1       1.0  0.08417  0.31832  0.15752  1.0000
  Cd  Cd2       1.0  0.91584  0.81832  0.34248  1.0000
  Cd  Cd3       1.0  0.91583  0.68168  0.84248  1.0000
  Cd  Cd4       1.0  0.08416  0.18168  0.65752  1.0000
  Cd  Cd5       1.0  0.00000  0.50000  0.00000  1.0000
  Cd  Cd6       1.0  0.00000  1.00000  0.50000  1.0000
  H   H1        1.0  0.27259  0.07335  0.26469  1.0000
  H   H2        1.0  0.72741  0.57334  0.23531  1.0000
  H   H3        1.0  0.72741  0.92666  0.73531  1.0000
  H   H4        1.0  0.27260  0.42666  0.76469  1.0000
  H   H5        1.0  0.43698  0.84399  0.25997  1.0000
  H   H6        1.0  0.56302  0.34399  0.24004  1.0000
  H   H7        1.0  0.56302  0.15602  0.74003  1.0000
  H   H8        1.0  0.43698  0.65602  0.75996  1.0000
  H   H9        1.0  0.38839  0.84403  0.06483  1.0000
  H   H10       1.0  0.61161  0.34402  0.43517  1.0000
  H   H11       1.0  0.61162  0.15598  0.93517  1.0000
  H   H12       1.0  0.38838  0.65598  0.56483  1.0000
  H   H13       1.0  0.28894  0.98079  0.88113  1.0000
  H   H14       1.0  0.71106  0.48079  0.61887  1.0000
  H   H15       1.0  0.71106  0.01921  0.11887  1.0000
  H   H16       1.0  0.28893  0.51921  0.38113  1.0000
  H   H17       1.0  0.26238  0.99378  0.76377  1.0000
  H   H18       1.0  0.73762  0.49378  0.73623  1.0000
  H   H19       1.0  0.73762  0.00622  0.23623  1.0000
  H   H20       1.0  0.26238  0.50622  0.26377  1.0000
  H   H21       1.0  0.91317  0.31600  0.77362  1.0000
  H   H22       1.0  0.08683  0.81600  0.72638  1.0000
  H   H23       1.0  0.08683  0.68400  0.22638  1.0000
  H   H24       1.0  0.91317  0.18400  0.27362  1.0000
  H   H25       1.0  0.93086  0.32217  0.89003  1.0000
  H   H26       1.0  0.06914  0.82216  0.60997  1.0000
  H   H27       1.0  0.06914  0.67783  0.10997  1.0000
  H   H28       1.0  0.93086  0.17784  0.39003  1.0000
  H   H29       1.0  0.57217  0.58665  0.13447  1.0000
  H   H30       1.0  0.42783  0.08665  0.36553  1.0000
  H   H31       1.0  0.42783  0.41335  0.86553  1.0000
  H   H32       1.0  0.57217  0.91335  0.63447  1.0000
  H   H33       1.0  0.56512  0.58806  0.05100  1.0000
  H   H34       1.0  0.43488  0.08806  0.44900  1.0000
  H   H35       1.0  0.43488  0.41194  0.94900  1.0000
  H   H36       1.0  0.56512  0.91194  0.55100  1.0000
  H   H37       1.0  0.51326  0.30359  0.11972  1.0000
  H   H38       1.0  0.48675  0.80359  0.38028  1.0000
  H   H39       1.0  0.48675  0.69641  0.88028  1.0000
  H   H40       1.0  0.51325  0.19640  0.61972  1.0000
  H   H41       1.0  0.58912  0.33431  0.04289  1.0000
  H   H42       1.0  0.41089  0.83431  0.45711  1.0000
  H   H43       1.0  0.41089  0.66569  0.95711  1.0000
  H   H44       1.0  0.58911  0.16569  0.54289  1.0000
  C   C1        1.0  0.29941  0.02194  0.21992  1.0000
  C   C2        1.0  0.70058  0.52194  0.28008  1.0000
  C   C3        1.0  0.70058  0.97806  0.78008  1.0000
  C   C4        1.0  0.29942  0.47806  0.71992  1.0000
  C   C5        1.0  0.39038  0.89504  0.21709  1.0000
  C   C6        1.0  0.60962  0.39503  0.28291  1.0000
  C   C7        1.0  0.60962  0.10497  0.78291  1.0000
  C   C8        1.0  0.39038  0.60497  0.71709  1.0000
  C   C9        1.0  0.36413  0.89464  0.10997  1.0000
  C   C10       1.0  0.63587  0.39464  0.39003  1.0000
  C   C11       1.0  0.63587  0.10536  0.89003  1.0000
  C   C12       1.0  0.36413  0.60536  0.60997  1.0000
  C   C13       1.0  0.27265  0.02245  0.11197  1.0000
  C   C14       1.0  0.72735  0.52245  0.38803  1.0000
  C   C15       1.0  0.72735  0.97755  0.88803  1.0000
  C   C16       1.0  0.27265  0.47755  0.61197  1.0000
  C   C17       1.0  0.20873  0.09405  0.05575  1.0000
  C   C18       1.0  0.79127  0.59405  0.44425  1.0000
  C   C19       1.0  0.79127  0.90595  0.94425  1.0000
  C   C20       1.0  0.20873  0.40595  0.55575  1.0000
  C   C21       1.0  0.14012  0.15475  0.96358  1.0000
  C   C22       1.0  0.85988  0.65475  0.53642  1.0000
  C   C23       1.0  0.85988  0.84525  0.03642  1.0000
  C   C24       1.0  0.14012  0.34525  0.46358  1.0000
  C   C25       1.0  0.11788  0.15484  0.89544  1.0000
  C   C26       1.0  0.88212  0.65484  0.60456  1.0000
  C   C27       1.0  0.88212  0.84516  0.10456  1.0000
  C   C28       1.0  0.11788  0.34516  0.39544  1.0000
  C   C29       1.0  0.20733  0.05862  0.85887  1.0000
  C   C30       1.0  0.79266  0.55862  0.64113  1.0000
  C   C31       1.0  0.79266  0.94137  0.14113  1.0000
  C   C32       1.0  0.20734  0.44138  0.35887  1.0000
  C   C33       1.0  0.19128  0.06401  0.79388  1.0000
  C   C34       1.0  0.80872  0.56401  0.70612  1.0000
  C   C35       1.0  0.80872  0.93598  0.20612  1.0000
  C   C36       1.0  0.19128  0.43599  0.29388  1.0000
  C   C37       1.0  0.99784  0.24580  0.79927  1.0000
  C   C38       1.0  0.00216  0.74579  0.70073  1.0000
  C   C39       1.0  0.00216  0.75420  0.20073  1.0000
  C   C40       1.0  0.99784  0.25420  0.29927  1.0000
  C   C41       1.0  0.00829  0.24850  0.86435  1.0000
  C   C42       1.0  0.99171  0.74850  0.63564  1.0000
  C   C43       1.0  0.99171  0.75150  0.13564  1.0000
  C   C44       1.0  0.00829  0.25150  0.36436  1.0000
  C   C45       1.0  0.33972  0.52501  0.09658  1.0000
  C   C46       1.0  0.66028  0.02501  0.40342  1.0000
  C   C47       1.0  0.66028  0.47499  0.90342  1.0000
  C   C48       1.0  0.33972  0.97498  0.59658  1.0000
  C   C49       1.0  0.52543  0.52958  0.09271  1.0000
  C   C50       1.0  0.47457  0.02958  0.40729  1.0000
  C   C51       1.0  0.47457  0.47043  0.90729  1.0000
  C   C52       1.0  0.52543  0.97042  0.59271  1.0000
  C   C53       1.0  0.59050  0.37420  0.09158  1.0000
  C   C54       1.0  0.40951  0.87420  0.40842  1.0000
  C   C55       1.0  0.40950  0.62581  0.90842  1.0000
  C   C56       1.0  0.59049  0.12580  0.59158  1.0000
  C   C57       1.0  0.76401  0.36288  0.11673  1.0000
  C   C58       1.0  0.23600  0.86288  0.38327  1.0000
  C   C59       1.0  0.23600  0.63713  0.88327  1.0000
  C   C60       1.0  0.76400  0.13712  0.61673  1.0000
  N   N1        1.0  0.24127  0.08570  0.16775  1.0000
  N   N2        1.0  0.75873  0.58570  0.33225  1.0000
  N   N3        1.0  0.75873  0.91430  0.83225  1.0000
  N   N4        1.0  0.24127  0.41430  0.66775  1.0000
  N   N5        1.0  0.42305  0.83171  0.16212  1.0000
  N   N6        1.0  0.57695  0.33171  0.33788  1.0000
  N   N7        1.0  0.57695  0.16829  0.83788  1.0000
  N   N8        1.0  0.42305  0.66829  0.66212  1.0000
  N   N9        1.0  0.21879  0.04881  0.99575  1.0000
  N   N10       1.0  0.78121  0.54881  0.50425  1.0000
  N   N11       1.0  0.78121  0.95119  0.00425  1.0000
  N   N12       1.0  0.21879  0.45119  0.49575  1.0000
  N   N13       1.0  0.13007  0.22076  0.06061  1.0000
  N   N14       1.0  0.86993  0.72076  0.43939  1.0000
  N   N15       1.0  0.86993  0.77924  0.93939  1.0000
  N   N16       1.0  0.13007  0.27924  0.56061  1.0000
  N   N17       1.0  0.08567  0.26079  0.00199  1.0000
  N   N18       1.0  0.91433  0.76079  0.49801  1.0000
  N   N19       1.0  0.91433  0.73921  0.99801  1.0000
  N   N20       1.0  0.08567  0.23921  0.50199  1.0000
  N   N21       1.0  0.08981  0.15717  0.76423  1.0000
  N   N22       1.0  0.91019  0.65717  0.73577  1.0000
  N   N23       1.0  0.91019  0.84283  0.23577  1.0000
  N   N24       1.0  0.08981  0.34283  0.26423  1.0000
  O   O1        1.0  0.28366  0.48389  0.14945  1.0000
  O   O2        1.0  0.71635  0.98390  0.35055  1.0000
  O   O3        1.0  0.71635  0.51610  0.85055  1.0000
  O   O4        1.0  0.28365  0.01610  0.64944  1.0000
  O   O5        1.0  0.25448  0.55785  0.04810  1.0000
  O   O6        1.0  0.74553  0.05785  0.45190  1.0000
  O   O7        1.0  0.74552  0.44215  0.95190  1.0000
  O   O8        1.0  0.25448  0.94215  0.54810  1.0000
  O   O9        1.0  0.79800  0.26830  0.15810  1.0000
  O   O10       1.0  0.20200  0.76830  0.34190  1.0000
  O   O11       1.0  0.20200  0.73171  0.84190  1.0000
  O   O12       1.0  0.79800  0.23170  0.65810  1.0000
  O   O13       1.0  0.87370  0.45085  0.09731  1.0000
  O   O14       1.0  0.12631  0.95086  0.40270  1.0000
  O   O15       1.0  0.12630  0.54915  0.90270  1.0000
  O   O16       1.0  0.87369  0.04914  0.59730  1.0000
