data_image0
_chemical_formula_structural       Cd2H28C44N24
_chemical_formula_sum              "Cd2 H28 C44 N24"
_cell_length_a       6.90304
_cell_length_b       6.90304
_cell_length_c       22.7902
_cell_angle_alpha    93.5183
_cell_angle_beta     93.5183
_cell_angle_gamma    108.687

_space_group_name_H-M_alt    "P 1"
_space_group_IT_number       1

loop_
  _space_group_symop_operation_xyz
  'x, y, z'

loop_
  _atom_site_type_symbol
  _atom_site_label
  _atom_site_symmetry_multiplicity
  _atom_site_fract_x
  _atom_site_fract_y
  _atom_site_fract_z
  _atom_site_occupancy
  Cd  Cd1       1.0  0.57042  0.42958  0.75000  1.0000
  Cd  Cd2       1.0  0.42958  0.57043  0.25000  1.0000
  H   H1        1.0  0.20279  0.05852  0.89900  1.0000
  H   H2        1.0  0.94148  0.79721  0.60100  1.0000
  H   H3        1.0  0.79721  0.94148  0.10100  1.0000
  H   H4        1.0  0.05852  0.20279  0.39900  1.0000
  H   H5        1.0  0.00060  0.92848  0.80208  1.0000
  H   H6        1.0  0.07152  0.99940  0.69792  1.0000
  H   H7        1.0  0.99940  0.07152  0.19792  1.0000
  H   H8        1.0  0.92848  0.00060  0.30208  1.0000
  H   H9        1.0  0.52518  0.14046  0.86862  1.0000
  H   H10       1.0  0.85954  0.47481  0.63138  1.0000
  H   H11       1.0  0.47482  0.85954  0.13138  1.0000
  H   H12       1.0  0.14046  0.52518  0.36862  1.0000
  H   H13       1.0  0.74003  0.25117  0.96363  1.0000
  H   H14       1.0  0.74883  0.25996  0.53637  1.0000
  H   H15       1.0  0.25997  0.74883  0.03637  1.0000
  H   H16       1.0  0.25117  0.74003  0.46363  1.0000
  H   H17       1.0  0.33718  0.82434  0.57509  1.0000
  H   H18       1.0  0.17566  0.66281  0.92491  1.0000
  H   H19       1.0  0.66281  0.17566  0.42491  1.0000
  H   H20       1.0  0.82434  0.33718  0.07509  1.0000
  H   H21       1.0  0.27046  0.22525  0.51180  1.0000
  H   H22       1.0  0.77475  0.72954  0.98820  1.0000
  H   H23       1.0  0.72954  0.77475  0.48820  1.0000
  H   H24       1.0  0.22525  0.27046  0.01180  1.0000
  H   H25       1.0  0.41687  0.16736  0.61193  1.0000
  H   H26       1.0  0.83264  0.58314  0.88807  1.0000
  H   H27       1.0  0.58313  0.83264  0.38807  1.0000
  H   H28       1.0  0.16736  0.41687  0.11193  1.0000
  C   C1        1.0  0.05113  0.07447  0.89070  1.0000
  C   C2        1.0  0.92553  0.94887  0.60930  1.0000
  C   C3        1.0  0.94887  0.92553  0.10930  1.0000
  C   C4        1.0  0.07447  0.05112  0.39070  1.0000
  C   C5        1.0  0.93914  0.00243  0.83640  1.0000
  C   C6        1.0  0.99757  0.06086  0.66361  1.0000
  C   C7        1.0  0.06086  0.99757  0.16360  1.0000
  C   C8        1.0  0.00243  0.93914  0.33640  1.0000
  C   C9        1.0  0.74622  0.02771  0.82692  1.0000
  C   C10       1.0  0.97229  0.25378  0.67308  1.0000
  C   C11       1.0  0.25379  0.97229  0.17308  1.0000
  C   C12       1.0  0.02771  0.74621  0.32692  1.0000
  C   C13       1.0  0.67519  0.12007  0.87354  1.0000
  C   C14       1.0  0.87993  0.32481  0.62646  1.0000
  C   C15       1.0  0.32481  0.87993  0.12646  1.0000
  C   C16       1.0  0.12007  0.67519  0.37354  1.0000
  C   C17       1.0  0.79759  0.18393  0.92666  1.0000
  C   C18       1.0  0.81606  0.20241  0.57334  1.0000
  C   C19       1.0  0.20241  0.81606  0.07334  1.0000
  C   C20       1.0  0.18393  0.79759  0.42666  1.0000
  C   C21       1.0  0.62556  0.96194  0.76989  1.0000
  C   C22       1.0  0.03806  0.37445  0.73011  1.0000
  C   C23       1.0  0.37445  0.03806  0.23011  1.0000
  C   C24       1.0  0.96194  0.62556  0.26989  1.0000
  C   C25       1.0  0.49193  0.80067  0.68740  1.0000
  C   C26       1.0  0.19933  0.50807  0.81260  1.0000
  C   C27       1.0  0.50807  0.19933  0.31260  1.0000
  C   C28       1.0  0.80067  0.49193  0.18740  1.0000
  C   C29       1.0  0.43211  0.64302  0.63827  1.0000
  C   C30       1.0  0.35698  0.56789  0.86173  1.0000
  C   C31       1.0  0.56789  0.35698  0.36173  1.0000
  C   C32       1.0  0.64302  0.43211  0.13827  1.0000
  C   C33       1.0  0.35291  0.67533  0.58274  1.0000
  C   C34       1.0  0.32468  0.64708  0.91726  1.0000
  C   C35       1.0  0.64708  0.32467  0.41726  1.0000
  C   C36       1.0  0.67533  0.35291  0.08274  1.0000
  C   C37       1.0  0.31881  0.34773  0.54787  1.0000
  C   C38       1.0  0.65227  0.68119  0.95213  1.0000
  C   C39       1.0  0.68118  0.65227  0.45213  1.0000
  C   C40       1.0  0.34773  0.31882  0.04787  1.0000
  C   C41       1.0  0.39961  0.31411  0.60247  1.0000
  C   C42       1.0  0.68589  0.60039  0.89753  1.0000
  C   C43       1.0  0.60039  0.68589  0.39753  1.0000
  C   C44       1.0  0.31411  0.39961  0.10247  1.0000
  N   N1        1.0  0.98455  0.16480  0.93547  1.0000
  N   N2        1.0  0.83520  0.01545  0.56453  1.0000
  N   N3        1.0  0.01545  0.83520  0.06453  1.0000
  N   N4        1.0  0.16479  0.98455  0.43547  1.0000
  N   N5        1.0  0.60429  0.78551  0.73704  1.0000
  N   N6        1.0  0.21449  0.39571  0.76296  1.0000
  N   N7        1.0  0.39571  0.21449  0.26296  1.0000
  N   N8        1.0  0.78552  0.60430  0.23704  1.0000
  N   N9        1.0  0.44457  0.97460  0.68868  1.0000
  N   N10       1.0  0.02539  0.55543  0.81133  1.0000
  N   N11       1.0  0.55543  0.02540  0.31132  1.0000
  N   N12       1.0  0.97461  0.44456  0.18867  1.0000
  N   N13       1.0  0.52906  0.07754  0.74170  1.0000
  N   N14       1.0  0.92246  0.47094  0.75830  1.0000
  N   N15       1.0  0.47095  0.92246  0.25830  1.0000
  N   N16       1.0  0.07754  0.52906  0.24170  1.0000
  N   N17       1.0  0.45817  0.46125  0.64728  1.0000
  N   N18       1.0  0.53875  0.54182  0.85272  1.0000
  N   N19       1.0  0.54183  0.53875  0.35272  1.0000
  N   N20       1.0  0.46126  0.45817  0.14728  1.0000
  N   N21       1.0  0.29770  0.53020  0.53788  1.0000
  N   N22       1.0  0.46979  0.70229  0.96212  1.0000
  N   N23       1.0  0.70229  0.46979  0.46212  1.0000
  N   N24       1.0  0.53020  0.29771  0.03788  1.0000
