data_image0
_chemical_formula_structural       Si4Hg2H40C28I4N4
_chemical_formula_sum              "Si4 Hg2 H40 C28 I4 N4"
_cell_length_a       8.29364
_cell_length_b       8.29362
_cell_length_c       16.0131
_cell_angle_alpha    93.9316
_cell_angle_beta     93.9324
_cell_angle_gamma    109.503

_space_group_name_H-M_alt    "P 1"
_space_group_IT_number       1

loop_
  _space_group_symop_operation_xyz
  'x, y, z'

loop_
  _atom_site_type_symbol
  _atom_site_label
  _atom_site_symmetry_multiplicity
  _atom_site_fract_x
  _atom_site_fract_y
  _atom_site_fract_z
  _atom_site_occupancy
  Si  Si1       1.0  0.54969  0.62697  0.46718  1.0000
  Si  Si2       1.0  0.37303  0.45031  0.03282  1.0000
  Si  Si3       1.0  0.45031  0.37303  0.53282  1.0000
  Si  Si4       1.0  0.62697  0.54969  0.96719  1.0000
  Hg  Hg1       1.0  0.80353  0.19646  0.75000  1.0000
  Hg  Hg2       1.0  0.19646  0.80354  0.25000  1.0000
  H   H1        1.0  0.12938  0.07909  0.68364  1.0000
  H   H2        1.0  0.92091  0.87061  0.81636  1.0000
  H   H3        1.0  0.87062  0.92091  0.31636  1.0000
  H   H4        1.0  0.07909  0.12939  0.18364  1.0000
  H   H5        1.0  0.60887  0.89702  0.60894  1.0000
  H   H6        1.0  0.10297  0.39114  0.89106  1.0000
  H   H7        1.0  0.39114  0.10298  0.39106  1.0000
  H   H8        1.0  0.89703  0.60888  0.10894  1.0000
  H   H9        1.0  0.18454  0.87478  0.57725  1.0000
  H   H10       1.0  0.12523  0.81547  0.92275  1.0000
  H   H11       1.0  0.81547  0.12522  0.42275  1.0000
  H   H12       1.0  0.87477  0.18454  0.07725  1.0000
  H   H13       1.0  0.93904  0.67687  0.47960  1.0000
  H   H14       1.0  0.32313  0.06097  0.02040  1.0000
  H   H15       1.0  0.06096  0.32311  0.52041  1.0000
  H   H16       1.0  0.67687  0.93903  0.97960  1.0000
  H   H17       1.0  0.35185  0.75478  0.53424  1.0000
  H   H18       1.0  0.24522  0.64815  0.96576  1.0000
  H   H19       1.0  0.64815  0.24522  0.46576  1.0000
  H   H20       1.0  0.75478  0.35185  0.03424  1.0000
  H   H21       1.0  0.43523  0.86561  0.44656  1.0000
  H   H22       1.0  0.13439  0.56477  0.05344  1.0000
  H   H23       1.0  0.56476  0.13439  0.55344  1.0000
  H   H24       1.0  0.86561  0.43524  0.94656  1.0000
  H   H25       1.0  0.26802  0.66203  0.42995  1.0000
  H   H26       1.0  0.33797  0.73198  0.07004  1.0000
  H   H27       1.0  0.73198  0.33796  0.57004  1.0000
  H   H28       1.0  0.66203  0.26802  0.92996  1.0000
  H   H29       1.0  0.70582  0.53190  0.35525  1.0000
  H   H30       1.0  0.46809  0.29417  0.14475  1.0000
  H   H31       1.0  0.29418  0.46810  0.64475  1.0000
  H   H32       1.0  0.53190  0.70582  0.85525  1.0000
  H   H33       1.0  0.48320  0.47815  0.32419  1.0000
  H   H34       1.0  0.52185  0.51679  0.17581  1.0000
  H   H35       1.0  0.51680  0.52185  0.67581  1.0000
  H   H36       1.0  0.47815  0.48320  0.82420  1.0000
  H   H37       1.0  0.62257  0.69236  0.32208  1.0000
  H   H38       1.0  0.30764  0.37742  0.17792  1.0000
  H   H39       1.0  0.37743  0.30764  0.67792  1.0000
  H   H40       1.0  0.69236  0.62257  0.82207  1.0000
  C   C1        1.0  0.02482  0.99024  0.64074  1.0000
  C   C2        1.0  0.00976  0.97518  0.85926  1.0000
  C   C3        1.0  0.97518  0.00976  0.35926  1.0000
  C   C4        1.0  0.99025  0.02483  0.14074  1.0000
  C   C5        1.0  0.74994  0.77046  0.53413  1.0000
  C   C6        1.0  0.22954  0.25007  0.96587  1.0000
  C   C7        1.0  0.25007  0.22953  0.46587  1.0000
  C   C8        1.0  0.77046  0.74994  0.03413  1.0000
  C   C9        1.0  0.73399  0.88797  0.59743  1.0000
  C   C10       1.0  0.11203  0.26601  0.90257  1.0000
  C   C11       1.0  0.26601  0.11202  0.40257  1.0000
  C   C12       1.0  0.88797  0.73400  0.09743  1.0000
  C   C13       1.0  0.05438  0.87589  0.58096  1.0000
  C   C14       1.0  0.12411  0.94562  0.91904  1.0000
  C   C15       1.0  0.94563  0.12411  0.41904  1.0000
  C   C16       1.0  0.87589  0.05438  0.08096  1.0000
  C   C17       1.0  0.91653  0.76583  0.52718  1.0000
  C   C18       1.0  0.23418  0.08348  0.97282  1.0000
  C   C19       1.0  0.08347  0.23417  0.47282  1.0000
  C   C20       1.0  0.76582  0.91654  0.02718  1.0000
  C   C21       1.0  0.38576  0.73829  0.46984  1.0000
  C   C22       1.0  0.26171  0.61424  0.03015  1.0000
  C   C23       1.0  0.61423  0.26171  0.53015  1.0000
  C   C24       1.0  0.73829  0.38577  0.96985  1.0000
  C   C25       1.0  0.59660  0.57860  0.35733  1.0000
  C   C26       1.0  0.42139  0.40340  0.14267  1.0000
  C   C27       1.0  0.40340  0.42140  0.64267  1.0000
  C   C28       1.0  0.57860  0.59660  0.85733  1.0000
  I   I1        1.0  0.98715  0.53011  0.73193  1.0000
  I   I2        1.0  0.46989  0.01285  0.76807  1.0000
  I   I3        1.0  0.01286  0.46989  0.26807  1.0000
  I   I4        1.0  0.53010  0.98713  0.23193  1.0000
  N   N1        1.0  0.86656  0.99552  0.64878  1.0000
  N   N2        1.0  0.00448  0.13344  0.85122  1.0000
  N   N3        1.0  0.13344  0.00448  0.35122  1.0000
  N   N4        1.0  0.99552  0.86656  0.14878  1.0000
