data_image0
_chemical_formula_structural       Ni2H16C20N4O8
_chemical_formula_sum              "Ni2 H16 C20 N4 O8"
_cell_length_a       6.13924
_cell_length_b       8.85449
_cell_length_c       9.17293
_cell_angle_alpha    84.9276
_cell_angle_beta     80.6895
_cell_angle_gamma    85.3663

_space_group_name_H-M_alt    "P 1"
_space_group_IT_number       1

loop_
  _space_group_symop_operation_xyz
  'x, y, z'

loop_
  _atom_site_type_symbol
  _atom_site_label
  _atom_site_symmetry_multiplicity
  _atom_site_fract_x
  _atom_site_fract_y
  _atom_site_fract_z
  _atom_site_occupancy
  Ni  Ni1       1.0  0.25040  0.42569  0.54420  1.0000
  Ni  Ni2       1.0  0.74960  0.57431  0.45580  1.0000
  H   H1        1.0  0.40916  0.94405  0.37174  1.0000
  H   H2        1.0  0.59083  0.05594  0.62826  1.0000
  H   H3        1.0  0.12964  0.84803  0.23550  1.0000
  H   H4        1.0  0.87035  0.15197  0.76450  1.0000
  H   H5        1.0  0.78103  0.00692  0.20916  1.0000
  H   H6        1.0  0.21896  0.99309  0.79083  1.0000
  H   H7        1.0  0.72022  0.26137  0.32464  1.0000
  H   H8        1.0  0.27978  0.73864  0.67535  1.0000
  H   H9        1.0  0.18392  0.18017  0.01588  1.0000
  H   H10       1.0  0.81609  0.81983  0.98412  1.0000
  H   H11       1.0  0.50516  0.18082  0.14856  1.0000
  H   H12       1.0  0.49485  0.81918  0.85144  1.0000
  H   H13       1.0  0.83067  0.33347  0.03403  1.0000
  H   H14       1.0  0.16933  0.66653  0.96597  1.0000
  H   H15       1.0  0.81452  0.47711  0.78533  1.0000
  H   H16       1.0  0.18548  0.52289  0.21468  1.0000
  C   C1        1.0  0.22468  0.15611  0.41155  1.0000
  C   C2        1.0  0.77532  0.84389  0.58845  1.0000
  C   C3        1.0  0.25902  0.01222  0.35228  1.0000
  C   C4        1.0  0.74097  0.98777  0.64772  1.0000
  C   C5        1.0  0.10392  0.95974  0.27862  1.0000
  C   C6        1.0  0.89607  0.04026  0.72138  1.0000
  C   C7        1.0  0.90738  0.04826  0.26302  1.0000
  C   C8        1.0  0.09262  0.95174  0.73698  1.0000
  C   C9        1.0  0.87086  0.18722  0.32290  1.0000
  C   C10       1.0  0.12914  0.81278  0.67709  1.0000
  C   C11       1.0  0.31810  0.32972  0.83186  1.0000
  C   C12       1.0  0.68190  0.67027  0.16814  1.0000
  C   C13       1.0  0.32560  0.24511  0.96939  1.0000
  C   C14       1.0  0.67440  0.75489  0.03061  1.0000
  C   C15       1.0  0.50576  0.24656  0.04245  1.0000
  C   C16       1.0  0.49425  0.75345  0.95755  1.0000
  C   C17       1.0  0.68594  0.33122  0.98016  1.0000
  C   C18       1.0  0.31406  0.66878  0.01984  1.0000
  C   C19       1.0  0.68101  0.41194  0.84481  1.0000
  C   C20       1.0  0.31900  0.58806  0.15519  1.0000
  N   N1        1.0  0.02584  0.23798  0.39279  1.0000
  N   N2        1.0  0.97415  0.76201  0.60721  1.0000
  N   N3        1.0  0.50476  0.40888  0.77418  1.0000
  N   N4        1.0  0.49524  0.59112  0.22582  1.0000
  O   O1        1.0  0.36076  0.21484  0.47927  1.0000
  O   O2        1.0  0.63924  0.78516  0.52073  1.0000
  O   O3        1.0  0.98751  0.37319  0.45381  1.0000
  O   O4        1.0  0.01250  0.62681  0.54620  1.0000
  O   O5        1.0  0.15713  0.33930  0.75772  1.0000
  O   O6        1.0  0.84287  0.66069  0.24229  1.0000
  O   O7        1.0  0.49785  0.49181  0.64331  1.0000
  O   O8        1.0  0.50215  0.50819  0.35669  1.0000
