data_image0
_chemical_formula_structural       Ca2H36C28N4O16
_chemical_formula_sum              "Ca2 H36 C28 N4 O16"
_cell_length_a       9.73249
_cell_length_b       9.61543
_cell_length_c       10.4055
_cell_angle_alpha    117.529
_cell_angle_beta     93.4606
_cell_angle_gamma    89.9983

_space_group_name_H-M_alt    "P 1"
_space_group_IT_number       1

loop_
  _space_group_symop_operation_xyz
  'x, y, z'

loop_
  _atom_site_type_symbol
  _atom_site_label
  _atom_site_symmetry_multiplicity
  _atom_site_fract_x
  _atom_site_fract_y
  _atom_site_fract_z
  _atom_site_occupancy
  Ca  Ca1       1.0  0.75002  0.92086  0.99998  1.0000
  Ca  Ca2       1.0  0.24998  0.07914  0.00003  1.0000
  H   H1        1.0  0.74998  0.27238  0.30387  1.0000
  H   H2        1.0  0.74995  0.96845  0.69619  1.0000
  H   H3        1.0  0.25002  0.72762  0.69614  1.0000
  H   H4        1.0  0.25004  0.03156  0.30381  1.0000
  H   H5        1.0  0.19880  0.38875  0.34839  1.0000
  H   H6        1.0  0.30112  0.04046  0.65148  1.0000
  H   H7        1.0  0.80121  0.61126  0.65162  1.0000
  H   H8        1.0  0.69889  0.95955  0.34852  1.0000
  H   H9        1.0  0.21636  0.64592  0.10222  1.0000
  H   H10       1.0  0.28363  0.54353  0.89778  1.0000
  H   H11       1.0  0.78364  0.35408  0.89778  1.0000
  H   H12       1.0  0.71637  0.45647  0.10222  1.0000
  H   H13       1.0  0.17601  0.53929  0.19849  1.0000
  H   H14       1.0  0.32403  0.34064  0.80150  1.0000
  H   H15       1.0  0.82399  0.46070  0.80151  1.0000
  H   H16       1.0  0.67597  0.65936  0.19851  1.0000
  H   H17       1.0  0.25851  0.72904  0.29276  1.0000
  H   H18       1.0  0.24147  0.43608  0.70725  1.0000
  H   H19       1.0  0.74149  0.27096  0.70724  1.0000
  H   H20       1.0  0.75853  0.56392  0.29276  1.0000
  H   H21       1.0  0.03871  0.73169  0.03518  1.0000
  H   H22       1.0  0.46093  0.69656  0.96483  1.0000
  H   H23       1.0  0.96129  0.26831  0.96481  1.0000
  H   H24       1.0  0.53906  0.30344  0.03517  1.0000
  H   H25       1.0  0.89997  0.83264  0.38186  1.0000
  H   H26       1.0  0.60007  0.45076  0.61820  1.0000
  H   H27       1.0  0.10003  0.16736  0.61814  1.0000
  H   H28       1.0  0.39993  0.54923  0.38179  1.0000
  H   H29       1.0  0.07227  0.85217  0.45876  1.0000
  H   H30       1.0  0.42780  0.39332  0.54126  1.0000
  H   H31       1.0  0.92774  0.14783  0.54123  1.0000
  H   H32       1.0  0.57219  0.60667  0.45874  1.0000
  H   H33       1.0  0.98085  0.66786  0.38631  1.0000
  H   H34       1.0  0.51921  0.28150  0.61371  1.0000
  H   H35       1.0  0.01915  0.33213  0.61368  1.0000
  H   H36       1.0  0.48078  0.71849  0.38629  1.0000
  C   C1        1.0  0.96288  0.22777  0.21614  1.0000
  C   C2        1.0  0.53690  0.01145  0.78377  1.0000
  C   C3        1.0  0.03712  0.77224  0.78386  1.0000
  C   C4        1.0  0.46309  0.98855  0.21623  1.0000
  C   C5        1.0  0.98112  0.36746  0.36274  1.0000
  C   C6        1.0  0.51880  0.00467  0.63723  1.0000
  C   C7        1.0  0.01889  0.63254  0.63727  1.0000
  C   C8        1.0  0.48120  0.99533  0.36277  1.0000
  C   C9        1.0  0.86697  0.42986  0.44890  1.0000
  C   C10       1.0  0.63299  0.98090  0.55112  1.0000
  C   C11       1.0  0.13304  0.57015  0.55110  1.0000
  C   C12       1.0  0.36701  0.01911  0.44888  1.0000
  C   C13       1.0  0.11225  0.43782  0.41575  1.0000
  C   C14       1.0  0.38772  0.02212  0.58420  1.0000
  C   C15       1.0  0.88776  0.56218  0.58425  1.0000
  C   C16       1.0  0.61228  0.97788  0.41580  1.0000
  C   C17       1.0  0.18225  0.65643  0.20473  1.0000
  C   C18       1.0  0.31774  0.45153  0.79526  1.0000
  C   C19       1.0  0.81775  0.34357  0.79527  1.0000
  C   C20       1.0  0.68226  0.54847  0.20474  1.0000
  C   C21       1.0  0.98308  0.76377  0.13410  1.0000
  C   C22       1.0  0.51670  0.62976  0.86596  1.0000
  C   C23       1.0  0.01692  0.23622  0.86589  1.0000
  C   C24       1.0  0.48330  0.37024  0.13404  1.0000
  C   C25       1.0  0.99701  0.77319  0.37287  1.0000
  C   C26       1.0  0.50303  0.40030  0.62721  1.0000
  C   C27       1.0  0.00299  0.22681  0.62713  1.0000
  C   C28       1.0  0.49697  0.59969  0.37279  1.0000
  N   N1        1.0  0.04970  0.73041  0.23198  1.0000
  N   N2        1.0  0.45026  0.49837  0.76805  1.0000
  N   N3        1.0  0.95030  0.26959  0.76802  1.0000
  N   N4        1.0  0.54974  0.50163  0.23195  1.0000
  O   O1        1.0  0.83844  0.17165  0.17040  1.0000
  O   O2        1.0  0.66130  0.00082  0.82946  1.0000
  O   O3        1.0  0.16157  0.82835  0.82961  1.0000
  O   O4        1.0  0.33869  0.99918  0.17054  1.0000
  O   O5        1.0  0.73865  0.36315  0.40414  1.0000
  O   O6        1.0  0.76131  0.95902  0.59596  1.0000
  O   O7        1.0  0.26136  0.63686  0.59587  1.0000
  O   O8        1.0  0.23869  0.04099  0.40404  1.0000
  O   O9        1.0  0.86799  0.82598  0.14869  1.0000
  O   O10       1.0  0.63173  0.67757  0.85149  1.0000
  O   O11       1.0  0.13200  0.17401  0.85131  1.0000
  O   O12       1.0  0.36826  0.32243  0.14852  1.0000
  O   O13       1.0  0.06594  0.17199  0.14302  1.0000
  O   O14       1.0  0.43382  0.02890  0.85687  1.0000
  O   O15       1.0  0.93406  0.82802  0.85698  1.0000
  O   O16       1.0  0.56616  0.97109  0.14312  1.0000
