data_image0
_chemical_formula_structural       Ca2H22C22N2O14
_chemical_formula_sum              "Ca2 H22 C22 N2 O14"
_cell_length_a       8.30957
_cell_length_b       8.70644
_cell_length_c       9.82626
_cell_angle_alpha    67.2041
_cell_angle_beta     81.4282
_cell_angle_gamma    74.275

_space_group_name_H-M_alt    "P 1"
_space_group_IT_number       1

loop_
  _space_group_symop_operation_xyz
  'x, y, z'

loop_
  _atom_site_type_symbol
  _atom_site_label
  _atom_site_symmetry_multiplicity
  _atom_site_fract_x
  _atom_site_fract_y
  _atom_site_fract_z
  _atom_site_occupancy
  Ca  Ca1       1.0  0.67050  0.63903  0.95988  1.0000
  Ca  Ca2       1.0  0.32950  0.36097  0.04012  1.0000
  H   H1        1.0  0.50769  0.68538  0.58351  1.0000
  H   H2        1.0  0.49231  0.31462  0.41649  1.0000
  H   H3        1.0  0.31707  0.03762  0.70718  1.0000
  H   H4        1.0  0.68293  0.96239  0.29282  1.0000
  H   H5        1.0  0.11829  0.00298  0.69504  1.0000
  H   H6        1.0  0.88171  0.99702  0.30496  1.0000
  H   H7        1.0  0.20643  0.15271  0.54051  1.0000
  H   H8        1.0  0.79357  0.84730  0.45949  1.0000
  H   H9        1.0  0.76135  0.56545  0.66880  1.0000
  H   H10       1.0  0.23865  0.43455  0.33120  1.0000
  H   H11       1.0  0.32702  0.78323  0.42207  1.0000
  H   H12       1.0  0.67299  0.21678  0.57793  1.0000
  H   H13       1.0  0.23735  0.00875  0.36114  1.0000
  H   H14       1.0  0.76265  0.99125  0.63885  1.0000
  H   H15       1.0  0.12191  0.86117  0.48920  1.0000
  H   H16       1.0  0.87809  0.13884  0.51080  1.0000
  H   H17       1.0  0.31552  0.44772  0.67521  1.0000
  H   H18       1.0  0.68448  0.55229  0.32479  1.0000
  H   H19       1.0  0.35838  0.98916  0.08485  1.0000
  H   H20       1.0  0.64162  0.01083  0.91515  1.0000
  H   H21       1.0  0.04779  0.71831  0.97201  1.0000
  H   H22       1.0  0.95221  0.28168  0.02799  1.0000
  C   C1        1.0  0.05386  0.53226  0.77127  1.0000
  C   C2        1.0  0.94614  0.46774  0.22874  1.0000
  C   C3        1.0  0.45892  0.78129  0.63624  1.0000
  C   C4        1.0  0.54107  0.21871  0.36376  1.0000
  C   C5        1.0  0.02797  0.51193  0.63283  1.0000
  C   C6        1.0  0.97203  0.48808  0.36717  1.0000
  C   C7        1.0  0.23550  0.03008  0.63337  1.0000
  C   C8        1.0  0.76450  0.96993  0.36663  1.0000
  C   C9        1.0  0.86516  0.53609  0.59421  1.0000
  C   C10       1.0  0.13484  0.46392  0.40579  1.0000
  C   C11       1.0  0.24724  0.88682  0.45550  1.0000
  C   C12       1.0  0.75277  0.11319  0.54450  1.0000
  C   C13       1.0  0.16567  0.47315  0.53782  1.0000
  C   C14       1.0  0.83433  0.52686  0.46218  1.0000
  C   C15       1.0  0.32581  0.76577  0.05012  1.0000
  C   C16       1.0  0.67419  0.23422  0.94988  1.0000
  C   C17       1.0  0.15695  0.88396  0.02776  1.0000
  C   C18       1.0  0.84305  0.11603  0.97224  1.0000
  C   C19       1.0  0.02681  0.84062  0.98575  1.0000
  C   C20       1.0  0.97319  0.15937  0.01426  1.0000
  C   C21       1.0  0.12959  0.04568  0.04154  1.0000
  C   C22       1.0  0.87041  0.95431  0.95845  1.0000
  N   N1        1.0  0.32005  0.89508  0.57767  1.0000
  N   N2        1.0  0.67995  0.10492  0.42233  1.0000
  O   O1        1.0  0.93024  0.59315  0.84125  1.0000
  O   O2        1.0  0.06976  0.40685  0.15875  1.0000
  O   O3        1.0  0.53140  0.78175  0.73947  1.0000
  O   O4        1.0  0.46860  0.21824  0.26053  1.0000
  O   O5        1.0  0.20653  0.48702  0.81157  1.0000
  O   O6        1.0  0.79347  0.51298  0.18843  1.0000
  O   O7        1.0  0.44509  0.81747  0.07714  1.0000
  O   O8        1.0  0.55491  0.18252  0.92286  1.0000
  O   O9        1.0  0.35545  0.62118  0.03694  1.0000
  O   O10       1.0  0.64455  0.37881  0.96306  1.0000
  O   O11       1.0  0.32634  0.44255  0.57273  1.0000
  O   O12       1.0  0.67366  0.55746  0.42727  1.0000
  O   O13       1.0  0.25590  0.09049  0.08069  1.0000
  O   O14       1.0  0.74410  0.90951  0.91931  1.0000
