data_image0
_chemical_formula_structural       Li4H28C16O8
_chemical_formula_sum              "Li4 H28 C16 O8"
_cell_length_a       4.832
_cell_length_b       9.37469
_cell_length_c       10.7385
_cell_angle_alpha    87.6903
_cell_angle_beta     90.0001
_cell_angle_gamma    89.9995

_space_group_name_H-M_alt    "P 1"
_space_group_IT_number       1

loop_
  _space_group_symop_operation_xyz
  'x, y, z'

loop_
  _atom_site_type_symbol
  _atom_site_label
  _atom_site_symmetry_multiplicity
  _atom_site_fract_x
  _atom_site_fract_y
  _atom_site_fract_z
  _atom_site_occupancy
  Li  Li1       1.0  0.91116  0.35773  0.99517  1.0000
  Li  Li2       1.0  0.41115  0.14226  0.00482  1.0000
  Li  Li3       1.0  0.08885  0.64226  0.00482  1.0000
  Li  Li4       1.0  0.58885  0.85774  0.99517  1.0000
  H   H1        1.0  0.05709  0.10443  0.68351  1.0000
  H   H2        1.0  0.55710  0.39558  0.31649  1.0000
  H   H3        1.0  0.94292  0.89558  0.31649  1.0000
  H   H4        1.0  0.44289  0.60441  0.68352  1.0000
  H   H5        1.0  0.29143  0.01430  0.78232  1.0000
  H   H6        1.0  0.79146  0.48572  0.21768  1.0000
  H   H7        1.0  0.70854  0.98571  0.21768  1.0000
  H   H8        1.0  0.20854  0.51429  0.78233  1.0000
  H   H9        1.0  0.74050  0.89163  0.68947  1.0000
  H   H10       1.0  0.24047  0.60837  0.31054  1.0000
  H   H11       1.0  0.25955  0.10838  0.31053  1.0000
  H   H12       1.0  0.75951  0.39162  0.68947  1.0000
  H   H13       1.0  0.97250  0.79933  0.79120  1.0000
  H   H14       1.0  0.47245  0.70068  0.20880  1.0000
  H   H15       1.0  0.02748  0.20068  0.20881  1.0000
  H   H16       1.0  0.52749  0.29933  0.79118  1.0000
  H   H17       1.0  0.06036  0.72855  0.57234  1.0000
  H   H18       1.0  0.56037  0.77144  0.42766  1.0000
  H   H19       1.0  0.93964  0.27145  0.42767  1.0000
  H   H20       1.0  0.43963  0.22856  0.57234  1.0000
  H   H21       1.0  0.34936  0.82180  0.63033  1.0000
  H   H22       1.0  0.84936  0.67819  0.36965  1.0000
  H   H23       1.0  0.65062  0.17820  0.36968  1.0000
  H   H24       1.0  0.15064  0.32180  0.63032  1.0000
  H   H25       1.0  0.11941  0.90952  0.52502  1.0000
  H   H26       1.0  0.61943  0.59047  0.47496  1.0000
  H   H27       1.0  0.88060  0.09050  0.47497  1.0000
  H   H28       1.0  0.38059  0.40950  0.52503  1.0000
  C   C1        1.0  0.92524  0.08706  0.86937  1.0000
  C   C2        1.0  0.42526  0.41293  0.13063  1.0000
  C   C3        1.0  0.07475  0.91296  0.13063  1.0000
  C   C4        1.0  0.57474  0.58705  0.86939  1.0000
  C   C5        1.0  0.06950  0.02238  0.75984  1.0000
  C   C6        1.0  0.56952  0.47762  0.24016  1.0000
  C   C7        1.0  0.93048  0.97762  0.24016  1.0000
  C   C8        1.0  0.43047  0.52237  0.75984  1.0000
  C   C9        1.0  0.96031  0.88101  0.71499  1.0000
  C   C10       1.0  0.46030  0.61898  0.28501  1.0000
  C   C11       1.0  0.03973  0.11898  0.28500  1.0000
  C   C12       1.0  0.53971  0.38101  0.71499  1.0000
  C   C13       1.0  0.12992  0.83217  0.60460  1.0000
  C   C14       1.0  0.62991  0.66784  0.39538  1.0000
  C   C15       1.0  0.87008  0.16784  0.39539  1.0000
  C   C16       1.0  0.37009  0.33217  0.60462  1.0000
  O   O1        1.0  0.05179  0.18882  0.92141  1.0000
  O   O2        1.0  0.55183  0.31116  0.07862  1.0000
  O   O3        1.0  0.94820  0.81118  0.07859  1.0000
  O   O4        1.0  0.44822  0.68882  0.92140  1.0000
  O   O5        1.0  0.68699  0.04241  0.90360  1.0000
  O   O6        1.0  0.18702  0.45759  0.09638  1.0000
  O   O7        1.0  0.31301  0.95760  0.09641  1.0000
  O   O8        1.0  0.81299  0.54240  0.90361  1.0000
