data_image0
_chemical_formula_structural       H28Pb2C16O8
_chemical_formula_sum              "H28 Pb2 C16 O8"
_cell_length_a       4.63164
_cell_length_b       7.20145
_cell_length_c       15.7055
_cell_angle_alpha    88.588
_cell_angle_beta     82.1848
_cell_angle_gamma    92.5829

_space_group_name_H-M_alt    "P 1"
_space_group_IT_number       1

loop_
  _space_group_symop_operation_xyz
  'x, y, z'

loop_
  _atom_site_type_symbol
  _atom_site_label
  _atom_site_symmetry_multiplicity
  _atom_site_fract_x
  _atom_site_fract_y
  _atom_site_fract_z
  _atom_site_occupancy
  H   H1        1.0  0.82514  0.64880  0.18164  1.0000
  H   H2        1.0  0.17485  0.35123  0.81837  1.0000
  H   H3        1.0  0.91928  0.88954  0.18921  1.0000
  H   H4        1.0  0.08076  0.11047  0.81079  1.0000
  H   H5        1.0  0.22503  0.56290  0.26181  1.0000
  H   H6        1.0  0.77499  0.43709  0.73818  1.0000
  H   H7        1.0  0.35334  0.79732  0.26287  1.0000
  H   H8        1.0  0.64669  0.20268  0.73713  1.0000
  H   H9        1.0  0.05639  0.69442  0.40487  1.0000
  H   H10       1.0  0.94362  0.30557  0.59512  1.0000
  H   H11       1.0  0.74627  0.65459  0.35145  1.0000
  H   H12       1.0  0.25376  0.34542  0.64855  1.0000
  H   H13       1.0  0.90257  0.88229  0.35468  1.0000
  H   H14       1.0  0.09746  0.11771  0.64533  1.0000
  H   H15       1.0  0.79295  0.39416  0.29238  1.0000
  H   H16       1.0  0.20704  0.60583  0.70761  1.0000
  H   H17       1.0  0.89330  0.16578  0.29184  1.0000
  H   H18       1.0  0.10671  0.83421  0.70816  1.0000
  H   H19       1.0  0.39137  0.06739  0.37472  1.0000
  H   H20       1.0  0.60862  0.93260  0.62527  1.0000
  H   H21       1.0  0.30212  0.30182  0.37688  1.0000
  H   H22       1.0  0.69788  0.69817  0.62312  1.0000
  H   H23       1.0  0.47709  0.20522  0.51513  1.0000
  H   H24       1.0  0.52287  0.79476  0.48488  1.0000
  H   H25       1.0  0.72267  0.37772  0.45977  1.0000
  H   H26       1.0  0.27730  0.62225  0.54024  1.0000
  H   H27       1.0  0.81256  0.14108  0.45778  1.0000
  H   H28       1.0  0.18743  0.85891  0.54222  1.0000
  Pb  Pb1       1.0  0.27624  0.23884  0.05877  1.0000
  Pb  Pb2       1.0  0.72379  0.76126  0.94123  1.0000
  C   C1        1.0  0.21531  0.74123  0.10265  1.0000
  C   C2        1.0  0.78467  0.25877  0.89735  1.0000
  C   C3        1.0  0.00765  0.75076  0.18541  1.0000
  C   C4        1.0  0.99235  0.24925  0.81459  1.0000
  C   C5        1.0  0.15465  0.70680  0.26488  1.0000
  C   C6        1.0  0.84536  0.29320  0.73512  1.0000
  C   C7        1.0  0.95458  0.73548  0.34853  1.0000
  C   C8        1.0  0.04543  0.26451  0.65146  1.0000
  C   C9        1.0  0.57874  0.22535  0.21047  1.0000
  C   C10       1.0  0.42126  0.77464  0.78954  1.0000
  C   C11       1.0  0.70067  0.25058  0.29402  1.0000
  C   C12       1.0  0.29933  0.74941  0.70598  1.0000
  C   C13       1.0  0.48633  0.21001  0.37568  1.0000
  C   C14       1.0  0.51368  0.78998  0.62432  1.0000
  C   C15       1.0  0.63192  0.23468  0.45651  1.0000
  C   C16       1.0  0.36805  0.76530  0.54350  1.0000
  O   O1        1.0  0.24500  0.88038  0.04850  1.0000
  O   O2        1.0  0.75497  0.11962  0.95150  1.0000
  O   O3        1.0  0.35695  0.59590  0.08735  1.0000
  O   O4        1.0  0.64301  0.40409  0.91264  1.0000
  O   O5        1.0  0.32002  0.15667  0.21156  1.0000
  O   O6        1.0  0.67998  0.84333  0.78844  1.0000
  O   O7        1.0  0.73497  0.27694  0.13909  1.0000
  O   O8        1.0  0.26503  0.72307  0.86092  1.0000
