data_image0
_chemical_formula_structural       Zn4H40C60N16O12
_chemical_formula_sum              "Zn4 H40 C60 N16 O12"
_cell_length_a       7.857
_cell_length_b       11.2382
_cell_length_c       15.1279
_cell_angle_alpha    92.5266
_cell_angle_beta     89.9998
_cell_angle_gamma    90.0005

_space_group_name_H-M_alt    "P 1"
_space_group_IT_number       1

loop_
  _space_group_symop_operation_xyz
  'x, y, z'

loop_
  _atom_site_type_symbol
  _atom_site_label
  _atom_site_symmetry_multiplicity
  _atom_site_fract_x
  _atom_site_fract_y
  _atom_site_fract_z
  _atom_site_occupancy
  Zn  Zn1       1.0  0.78763  0.38938  0.74702  1.0000
  Zn  Zn2       1.0  0.28763  0.11062  0.75298  1.0000
  Zn  Zn3       1.0  0.21238  0.61062  0.25297  1.0000
  Zn  Zn4       1.0  0.71238  0.88938  0.24702  1.0000
  H   H1        1.0  0.67176  0.23434  0.42163  1.0000
  H   H2        1.0  0.17176  0.26566  0.07837  1.0000
  H   H3        1.0  0.32824  0.76566  0.57837  1.0000
  H   H4        1.0  0.82824  0.73434  0.92163  1.0000
  H   H5        1.0  0.36264  0.32144  0.39565  1.0000
  H   H6        1.0  0.86264  0.17855  0.10435  1.0000
  H   H7        1.0  0.63735  0.67855  0.60436  1.0000
  H   H8        1.0  0.13736  0.82145  0.89564  1.0000
  H   H9        1.0  0.11627  0.42735  0.46809  1.0000
  H   H10       1.0  0.61627  0.07264  0.03191  1.0000
  H   H11       1.0  0.88373  0.57264  0.53192  1.0000
  H   H12       1.0  0.38373  0.92736  0.96808  1.0000
  H   H13       1.0  0.13791  0.49916  0.62873  1.0000
  H   H14       1.0  0.63792  0.00083  0.87127  1.0000
  H   H15       1.0  0.86208  0.50083  0.37127  1.0000
  H   H16       1.0  0.36208  0.99918  0.12873  1.0000
  H   H17       1.0  0.41165  0.47057  0.70950  1.0000
  H   H18       1.0  0.91166  0.02943  0.79050  1.0000
  H   H19       1.0  0.58834  0.52943  0.29050  1.0000
  H   H20       1.0  0.08835  0.97057  0.20950  1.0000
  H   H21       1.0  0.93701  0.71501  0.75965  1.0000
  H   H22       1.0  0.43701  0.78499  0.74035  1.0000
  H   H23       1.0  0.06299  0.28499  0.24035  1.0000
  H   H24       1.0  0.56300  0.21501  0.25965  1.0000
  H   H25       1.0  0.38257  0.00428  0.55292  1.0000
  H   H26       1.0  0.88258  0.49573  0.94708  1.0000
  H   H27       1.0  0.61743  0.99572  0.44708  1.0000
  H   H28       1.0  0.11743  0.50428  0.05292  1.0000
  H   H29       1.0  0.91940  0.20324  0.39187  1.0000
  H   H30       1.0  0.41941  0.29676  0.10814  1.0000
  H   H31       1.0  0.08059  0.79676  0.60814  1.0000
  H   H32       1.0  0.58060  0.70324  0.89186  1.0000
  H   H33       1.0  0.36404  0.97921  0.38579  1.0000
  H   H34       1.0  0.86405  0.52079  0.11421  1.0000
  H   H35       1.0  0.63596  0.02079  0.61421  1.0000
  H   H36       1.0  0.13595  0.47920  0.88579  1.0000
  H   H37       1.0  0.13285  0.08598  0.30732  1.0000
  H   H38       1.0  0.63286  0.41402  0.19268  1.0000
  H   H39       1.0  0.86715  0.91402  0.69268  1.0000
  H   H40       1.0  0.36714  0.58598  0.80732  1.0000
  C   C1        1.0  0.92975  0.23395  0.57597  1.0000
  C   C2        1.0  0.42975  0.26605  0.92403  1.0000
  C   C3        1.0  0.07025  0.76605  0.42403  1.0000
  C   C4        1.0  0.57025  0.73395  0.07597  1.0000
  C   C5        1.0  0.65993  0.27807  0.48637  1.0000
  C   C6        1.0  0.15993  0.22192  0.01363  1.0000
  C   C7        1.0  0.34006  0.72193  0.51363  1.0000
  C   C8        1.0  0.84007  0.77807  0.98637  1.0000
  C   C9        1.0  0.01064  0.22274  0.65940  1.0000
  C   C10       1.0  0.51065  0.27726  0.84060  1.0000
  C   C11       1.0  0.98935  0.77726  0.34060  1.0000
  C   C12       1.0  0.48936  0.72275  0.15940  1.0000
  C   C13       1.0  0.76822  0.28707  0.55939  1.0000
  C   C14       1.0  0.26822  0.21293  0.94060  1.0000
  C   C15       1.0  0.23178  0.71293  0.44060  1.0000
  C   C16       1.0  0.73178  0.78707  0.05940  1.0000
  C   C17       1.0  0.53172  0.38203  0.59790  1.0000
  C   C18       1.0  0.03172  0.11797  0.90210  1.0000
  C   C19       1.0  0.46828  0.61797  0.40211  1.0000
  C   C20       1.0  0.96828  0.88203  0.09790  1.0000
  C   C21       1.0  0.36516  0.35515  0.46423  1.0000
  C   C22       1.0  0.86516  0.14485  0.03578  1.0000
  C   C23       1.0  0.63484  0.64485  0.53578  1.0000
  C   C24       1.0  0.13484  0.85516  0.96422  1.0000
  C   C25       1.0  0.23229  0.41414  0.50566  1.0000
  C   C26       1.0  0.73229  0.08585  0.99435  1.0000
  C   C27       1.0  0.76771  0.58585  0.49435  1.0000
  C   C28       1.0  0.26771  0.91415  0.00565  1.0000
  C   C29       1.0  0.24567  0.45624  0.59499  1.0000
  C   C30       1.0  0.74567  0.04376  0.90501  1.0000
  C   C31       1.0  0.75432  0.54376  0.40501  1.0000
  C   C32       1.0  0.25433  0.95624  0.09498  1.0000
  C   C33       1.0  0.39552  0.44084  0.64075  1.0000
  C   C34       1.0  0.89552  0.05916  0.85925  1.0000
  C   C35       1.0  0.60448  0.55915  0.35925  1.0000
  C   C36       1.0  0.10448  0.94085  0.14075  1.0000
  C   C37       1.0  0.85028  0.63667  0.75543  1.0000
  C   C38       1.0  0.35030  0.86333  0.74457  1.0000
  C   C39       1.0  0.14971  0.36333  0.24457  1.0000
  C   C40       1.0  0.64971  0.13667  0.25543  1.0000
  C   C41       1.0  0.28339  0.04661  0.51522  1.0000
  C   C42       1.0  0.78340  0.45339  0.98478  1.0000
  C   C43       1.0  0.71661  0.95339  0.48478  1.0000
  C   C44       1.0  0.21661  0.54661  0.01522  1.0000
  C   C45       1.0  0.16329  0.11668  0.56136  1.0000
  C   C46       1.0  0.66330  0.38332  0.93865  1.0000
  C   C47       1.0  0.83670  0.88332  0.43864  1.0000
  C   C48       1.0  0.33670  0.61669  0.06136  1.0000
  C   C49       1.0  0.02092  0.15742  0.42499  1.0000
  C   C50       1.0  0.52092  0.34258  0.07501  1.0000
  C   C51       1.0  0.97908  0.84259  0.57501  1.0000
  C   C52       1.0  0.47908  0.65741  0.92499  1.0000
  C   C53       1.0  0.27241  0.03321  0.42372  1.0000
  C   C54       1.0  0.77242  0.46679  0.07628  1.0000
  C   C55       1.0  0.72759  0.96679  0.57628  1.0000
  C   C56       1.0  0.22758  0.53321  0.92372  1.0000
  C   C57       1.0  0.14164  0.09114  0.37898  1.0000
  C   C58       1.0  0.64164  0.40886  0.12102  1.0000
  C   C59       1.0  0.85836  0.90886  0.62102  1.0000
  C   C60       1.0  0.35835  0.59114  0.87898  1.0000
  N   N1        1.0  0.51207  0.33767  0.51092  1.0000
  N   N2        1.0  0.01208  0.16233  0.98908  1.0000
  N   N3        1.0  0.48792  0.66233  0.48908  1.0000
  N   N4        1.0  0.98793  0.83767  0.01092  1.0000
  N   N5        1.0  0.68779  0.35391  0.62685  1.0000
  N   N6        1.0  0.18780  0.14609  0.87315  1.0000
  N   N7        1.0  0.31220  0.64609  0.37315  1.0000
  N   N8        1.0  0.81221  0.85391  0.12685  1.0000
  N   N9        1.0  0.02966  0.16874  0.51520  1.0000
  N   N10       1.0  0.52967  0.33126  0.98479  1.0000
  N   N11       1.0  0.97034  0.83125  0.48480  1.0000
  N   N12       1.0  0.47034  0.66874  0.01520  1.0000
  N   N13       1.0  0.15014  0.14812  0.64831  1.0000
  N   N14       1.0  0.65014  0.35189  0.85169  1.0000
  N   N15       1.0  0.84986  0.85188  0.35169  1.0000
  N   N16       1.0  0.34986  0.64812  0.14830  1.0000
  O   O1        1.0  0.97250  0.26876  0.73573  1.0000
  O   O2        1.0  0.47250  0.23125  0.76427  1.0000
  O   O3        1.0  0.02750  0.73125  0.26427  1.0000
  O   O4        1.0  0.52750  0.76875  0.23573  1.0000
  O   O5        1.0  0.92922  0.53579  0.75702  1.0000
  O   O6        1.0  0.42922  0.96422  0.74297  1.0000
  O   O7        1.0  0.07078  0.46422  0.24297  1.0000
  O   O8        1.0  0.57078  0.03579  0.25702  1.0000
  O   O9        1.0  0.69313  0.65099  0.74980  1.0000
  O   O10       1.0  0.19312  0.84901  0.75020  1.0000
  O   O11       1.0  0.30687  0.34901  0.25020  1.0000
  O   O12       1.0  0.80689  0.15099  0.24980  1.0000
