data_image0
_chemical_formula_structural       Ag2H22C38N6O8F6
_chemical_formula_sum              "Ag2 H22 C38 N6 O8 F6"
_cell_length_a       8.26046
_cell_length_b       8.17432
_cell_length_c       13.841
_cell_angle_alpha    100.595
_cell_angle_beta     93.7623
_cell_angle_gamma    102.473

_space_group_name_H-M_alt    "P 1"
_space_group_IT_number       1

loop_
  _space_group_symop_operation_xyz
  'x, y, z'

loop_
  _atom_site_type_symbol
  _atom_site_label
  _atom_site_symmetry_multiplicity
  _atom_site_fract_x
  _atom_site_fract_y
  _atom_site_fract_z
  _atom_site_occupancy
  Ag  Ag1       1.0  0.08269  0.37371  0.44523  1.0000
  Ag  Ag2       1.0  0.91730  0.62628  0.55477  1.0000
  H   H1        1.0  0.29876  0.68012  0.37886  1.0000
  H   H2        1.0  0.70124  0.31988  0.62114  1.0000
  H   H3        1.0  0.38737  0.75872  0.22101  1.0000
  H   H4        1.0  0.61264  0.24128  0.77900  1.0000
  H   H5        1.0  0.04198  0.29655  0.06461  1.0000
  H   H6        1.0  0.95802  0.70346  0.93538  1.0000
  H   H7        1.0  0.96062  0.24057  0.22923  1.0000
  H   H8        1.0  0.03937  0.75943  0.77077  1.0000
  H   H9        1.0  0.30951  0.71208  0.87127  1.0000
  H   H10       1.0  0.69049  0.28792  0.12873  1.0000
  H   H11       1.0  0.56888  0.90841  0.84223  1.0000
  H   H12       1.0  0.43112  0.09159  0.15776  1.0000
  H   H13       1.0  0.82016  0.97944  0.97037  1.0000
  H   H14       1.0  0.17984  0.02057  0.02963  1.0000
  H   H15       1.0  0.09657  0.90275  0.45346  1.0000
  H   H16       1.0  0.90344  0.09724  0.54654  1.0000
  H   H17       1.0  0.06929  0.00260  0.29346  1.0000
  H   H18       1.0  0.93071  0.99741  0.70654  1.0000
  H   H19       1.0  0.62490  0.59901  0.20444  1.0000
  H   H20       1.0  0.37510  0.40100  0.79556  1.0000
  H   H21       1.0  0.66341  0.52212  0.36877  1.0000
  H   H22       1.0  0.33659  0.47788  0.63122  1.0000
  C   C1        1.0  0.24576  0.59881  0.30735  1.0000
  C   C2        1.0  0.75424  0.40119  0.69265  1.0000
  C   C3        1.0  0.29430  0.64162  0.21902  1.0000
  C   C4        1.0  0.70569  0.35838  0.78098  1.0000
  C   C5        1.0  0.22298  0.53159  0.12932  1.0000
  C   C6        1.0  0.77702  0.46842  0.87068  1.0000
  C   C7        1.0  0.10163  0.38411  0.13271  1.0000
  C   C8        1.0  0.89837  0.61590  0.86729  1.0000
  C   C9        1.0  0.05777  0.35095  0.22338  1.0000
  C   C10       1.0  0.94222  0.64905  0.77662  1.0000
  C   C11       1.0  0.26108  0.56440  0.02941  1.0000
  C   C12       1.0  0.73892  0.43561  0.97059  1.0000
  C   C13       1.0  0.41426  0.69075  0.01515  1.0000
  C   C14       1.0  0.58574  0.30925  0.98485  1.0000
  C   C15       1.0  0.41844  0.75007  0.92607  1.0000
  C   C16       1.0  0.58156  0.24994  0.07393  1.0000
  C   C17       1.0  0.56440  0.85825  0.90988  1.0000
  C   C18       1.0  0.43561  0.14176  0.09012  1.0000
  C   C19       1.0  0.70182  0.89927  0.98099  1.0000
  C   C20       1.0  0.29819  0.10073  0.01901  1.0000
  C   C21       1.0  0.68743  0.83230  0.06743  1.0000
  C   C22       1.0  0.31257  0.16770  0.93257  1.0000
  C   C23       1.0  0.84044  0.87103  0.14039  1.0000
  C   C24       1.0  0.15956  0.12898  0.85961  1.0000
  C   C25       1.0  0.99144  0.84317  0.39725  1.0000
  C   C26       1.0  0.00856  0.15683  0.60274  1.0000
  C   C27       1.0  0.97633  0.89638  0.30831  1.0000
  C   C28       1.0  0.02367  0.10362  0.69169  1.0000
  C   C29       1.0  0.84282  0.81051  0.23636  1.0000
  C   C30       1.0  0.15718  0.18950  0.76364  1.0000
  C   C31       1.0  0.72889  0.67191  0.25800  1.0000
  C   C32       1.0  0.27111  0.32810  0.74200  1.0000
  C   C33       1.0  0.75109  0.62791  0.34953  1.0000
  C   C34       1.0  0.24891  0.37210  0.65047  1.0000
  C   C35       1.0  0.48577  0.16811  0.38605  1.0000
  C   C36       1.0  0.51422  0.83188  0.61395  1.0000
  C   C37       1.0  0.67532  0.18939  0.37098  1.0000
  C   C38       1.0  0.32468  0.81059  0.62903  1.0000
  N   N1        1.0  0.13037  0.45542  0.30965  1.0000
  N   N2        1.0  0.86962  0.54458  0.69035  1.0000
  N   N3        1.0  0.54514  0.73275  0.08498  1.0000
  N   N4        1.0  0.45486  0.26726  0.91502  1.0000
  N   N5        1.0  0.87966  0.71118  0.41829  1.0000
  N   N6        1.0  0.12034  0.28882  0.58171  1.0000
  O   O1        1.0  0.16627  0.48268  0.95545  1.0000
  O   O2        1.0  0.83374  0.51733  0.04455  1.0000
  O   O3        1.0  0.97156  0.95716  0.12036  1.0000
  O   O4        1.0  0.02844  0.04285  0.87965  1.0000
  O   O5        1.0  0.77394  0.24717  0.44945  1.0000
  O   O6        1.0  0.22606  0.75281  0.55055  1.0000
  O   O7        1.0  0.70228  0.14872  0.28291  1.0000
  O   O8        1.0  0.29771  0.85126  0.71709  1.0000
  F   F1        1.0  0.39635  0.00328  0.35100  1.0000
  F   F2        1.0  0.60363  0.99671  0.64901  1.0000
  F   F3        1.0  0.45518  0.21119  0.48181  1.0000
  F   F4        1.0  0.54482  0.78881  0.51819  1.0000
  F   F5        1.0  0.41501  0.26902  0.33462  1.0000
  F   F6        1.0  0.58499  0.73097  0.66538  1.0000
