data_image0
_chemical_formula_structural       V4H32C36O16
_chemical_formula_sum              "V4 H32 C36 O16"
_cell_length_a       5.04818
_cell_length_b       10.8637
_cell_length_c       15.3594
_cell_angle_alpha    103.835
_cell_angle_beta     89.905
_cell_angle_gamma    89.9417

_space_group_name_H-M_alt    "P 1"
_space_group_IT_number       1

loop_
  _space_group_symop_operation_xyz
  'x, y, z'

loop_
  _atom_site_type_symbol
  _atom_site_label
  _atom_site_symmetry_multiplicity
  _atom_site_fract_x
  _atom_site_fract_y
  _atom_site_fract_z
  _atom_site_occupancy
  V   V1        1.0  0.72671  0.54385  0.45125  1.0000
  V   V2        1.0  0.22914  0.45309  0.04937  1.0000
  V   V3        1.0  0.27336  0.45617  0.54880  1.0000
  V   V4        1.0  0.77070  0.54687  0.95060  1.0000
  H   H1        1.0  0.91163  0.09179  0.28165  1.0000
  H   H2        1.0  0.41245  0.90571  0.21991  1.0000
  H   H3        1.0  0.08840  0.90825  0.71833  1.0000
  H   H4        1.0  0.58749  0.09429  0.78004  1.0000
  H   H5        1.0  0.55305  0.20503  0.13475  1.0000
  H   H6        1.0  0.05699  0.79171  0.36464  1.0000
  H   H7        1.0  0.44712  0.79502  0.86528  1.0000
  H   H8        1.0  0.94288  0.20825  0.63534  1.0000
  H   H9        1.0  0.83710  0.36045  0.19568  1.0000
  H   H10       1.0  0.33837  0.63595  0.30344  1.0000
  H   H11       1.0  0.16308  0.63959  0.80440  1.0000
  H   H12       1.0  0.66146  0.36396  0.69656  1.0000
  H   H13       1.0  0.77632  0.22101  0.41777  1.0000
  H   H14       1.0  0.27415  0.77730  0.08530  1.0000
  H   H15       1.0  0.22374  0.77899  0.58223  1.0000
  H   H16       1.0  0.72578  0.22268  0.91466  1.0000
  H   H17       1.0  0.05508  0.20007  0.48330  1.0000
  H   H18       1.0  0.54984  0.80121  0.01925  1.0000
  H   H19       1.0  0.94500  0.80001  0.51672  1.0000
  H   H20       1.0  0.45010  0.19876  0.98072  1.0000
  H   H21       1.0  0.98677  0.09638  0.07927  1.0000
  H   H22       1.0  0.49076  0.90077  0.42205  1.0000
  H   H23       1.0  0.01353  0.90368  0.92071  1.0000
  H   H24       1.0  0.50913  0.09925  0.57792  1.0000
  H   H25       1.0  0.01305  0.96540  0.12947  1.0000
  H   H26       1.0  0.51501  0.03183  0.37182  1.0000
  H   H27       1.0  0.98698  0.03467  0.87055  1.0000
  H   H28       1.0  0.48494  0.96817  0.62812  1.0000
  H   H29       1.0  0.28323  0.00764  0.06749  1.0000
  H   H30       1.0  0.78664  0.98961  0.43301  1.0000
  H   H31       1.0  0.71694  0.99235  0.93257  1.0000
  H   H32       1.0  0.21329  0.01038  0.56695  1.0000
  C   C1        1.0  0.14940  0.24291  0.35687  1.0000
  C   C2        1.0  0.64976  0.75465  0.14390  1.0000
  C   C3        1.0  0.85060  0.75713  0.64314  1.0000
  C   C4        1.0  0.35019  0.24532  0.85607  1.0000
  C   C5        1.0  0.08442  0.15139  0.27946  1.0000
  C   C6        1.0  0.58551  0.84599  0.22164  1.0000
  C   C7        1.0  0.91569  0.84863  0.72055  1.0000
  C   C8        1.0  0.41440  0.15398  0.77831  1.0000
  C   C9        1.0  0.44004  0.21262  0.19639  1.0000
  C   C10       1.0  0.94258  0.78453  0.30342  1.0000
  C   C11       1.0  0.56014  0.78738  0.80365  1.0000
  C   C12       1.0  0.05722  0.21542  0.69656  1.0000
  C   C13       1.0  0.74514  0.38133  0.26294  1.0000
  C   C14       1.0  0.24566  0.61538  0.23646  1.0000
  C   C15       1.0  0.25498  0.61870  0.73711  1.0000
  C   C16       1.0  0.75422  0.38456  0.76354  1.0000
  C   C17       1.0  0.51691  0.30646  0.27274  1.0000
  C   C18       1.0  0.01855  0.69065  0.22671  1.0000
  C   C19       1.0  0.48325  0.69354  0.72730  1.0000
  C   C20       1.0  0.98135  0.30931  0.77328  1.0000
  C   C21       1.0  0.22313  0.13494  0.19791  1.0000
  C   C22       1.0  0.72529  0.86233  0.30276  1.0000
  C   C23       1.0  0.77703  0.86508  0.80210  1.0000
  C   C24       1.0  0.27457  0.13764  0.69721  1.0000
  C   C25       1.0  0.36717  0.32344  0.35358  1.0000
  C   C26       1.0  0.86776  0.67357  0.14612  1.0000
  C   C27       1.0  0.63293  0.67656  0.64644  1.0000
  C   C28       1.0  0.13213  0.32639  0.85386  1.0000
  C   C29       1.0  0.97463  0.25820  0.43929  1.0000
  C   C30       1.0  0.47251  0.74124  0.06249  1.0000
  C   C31       1.0  0.02537  0.74185  0.56073  1.0000
  C   C32       1.0  0.52741  0.25875  0.93748  1.0000
  C   C33       1.0  0.12228  0.04531  0.11449  1.0000
  C   C34       1.0  0.62516  0.95192  0.38650  1.0000
  C   C35       1.0  0.87787  0.95471  0.88551  1.0000
  C   C36       1.0  0.37476  0.04807  0.61346  1.0000
  O   O1        1.0  0.43072  0.41657  0.42444  1.0000
  O   O2        1.0  0.93054  0.58010  0.07491  1.0000
  O   O3        1.0  0.56942  0.58336  0.57560  1.0000
  O   O4        1.0  0.06942  0.41989  0.92506  1.0000
  O   O5        1.0  0.85473  0.46600  0.32250  1.0000
  O   O6        1.0  0.35340  0.52924  0.17689  1.0000
  O   O7        1.0  0.14516  0.53412  0.67754  1.0000
  O   O8        1.0  0.64657  0.47073  0.82310  1.0000
  O   O9        1.0  0.60681  0.66569  0.42143  1.0000
  O   O10       1.0  0.11187  0.32865  0.07614  1.0000
  O   O11       1.0  0.39318  0.33434  0.57868  1.0000
  O   O12       1.0  0.88807  0.67132  0.92386  1.0000
  O   O13       1.0  0.94796  0.38517  0.48959  1.0000
  O   O14       1.0  0.44693  0.61507  0.01080  1.0000
  O   O15       1.0  0.05202  0.61486  0.51042  1.0000
  O   O16       1.0  0.55303  0.38490  0.98917  1.0000
