data_image0
_chemical_formula_structural       Cu2H16Au2C12S4N4
_chemical_formula_sum              "Cu2 H16 Au2 C12 S4 N4"
_cell_length_a       6.75405
_cell_length_b       9.06658
_cell_length_c       9.06654
_cell_angle_alpha    117.741
_cell_angle_beta     96.4486
_cell_angle_gamma    96.4497

_space_group_name_H-M_alt    "P 1"
_space_group_IT_number       1

loop_
  _space_group_symop_operation_xyz
  'x, y, z'

loop_
  _atom_site_type_symbol
  _atom_site_label
  _atom_site_symmetry_multiplicity
  _atom_site_fract_x
  _atom_site_fract_y
  _atom_site_fract_z
  _atom_site_occupancy
  Cu  Cu1       1.0  0.24999  0.62759  0.37241  1.0000
  Cu  Cu2       1.0  0.75000  0.37241  0.62759  1.0000
  H   H1        1.0  0.69342  0.49214  0.26095  1.0000
  H   H2        1.0  0.80656  0.73904  0.50787  1.0000
  H   H3        1.0  0.30657  0.50787  0.73904  1.0000
  H   H4        1.0  0.19343  0.26095  0.49213  1.0000
  H   H5        1.0  0.46965  0.35659  0.11829  1.0000
  H   H6        1.0  0.03034  0.88171  0.64342  1.0000
  H   H7        1.0  0.53034  0.64341  0.88171  1.0000
  H   H8        1.0  0.96965  0.11828  0.35659  1.0000
  H   H9        1.0  0.78105  0.32062  0.98077  1.0000
  H   H10       1.0  0.71895  0.01923  0.67940  1.0000
  H   H11       1.0  0.21894  0.67939  0.01922  1.0000
  H   H12       1.0  0.28104  0.98077  0.32061  1.0000
  H   H13       1.0  0.80999  0.53547  0.02322  1.0000
  H   H14       1.0  0.69000  0.97677  0.46454  1.0000
  H   H15       1.0  0.19000  0.46453  0.97677  1.0000
  H   H16       1.0  0.31000  0.02322  0.53546  1.0000
  Au  Au1       1.0  0.00003  1.00000  0.00001  1.0000
  Au  Au2       1.0  0.50001  0.00001  0.99999  1.0000
  C   C1        1.0  0.07971  0.24687  0.15260  1.0000
  C   C2        1.0  0.42032  0.84742  0.75312  1.0000
  C   C3        1.0  0.92033  0.75313  0.84742  1.0000
  C   C4        1.0  0.57971  0.15259  0.24688  1.0000
  C   C5        1.0  0.58796  0.46423  0.14589  1.0000
  C   C6        1.0  0.91202  0.85411  0.53578  1.0000
  C   C7        1.0  0.41203  0.53578  0.85410  1.0000
  C   C8        1.0  0.08797  0.14589  0.46422  1.0000
  C   C9        1.0  0.69964  0.42462  0.99935  1.0000
  C   C10       1.0  0.80036  0.00065  0.57540  1.0000
  C   C11       1.0  0.30035  0.57539  0.00064  1.0000
  C   C12       1.0  0.19964  0.99935  0.42461  1.0000
  S   S1        1.0  0.47124  0.64926  0.20051  1.0000
  S   S2        1.0  0.02874  0.79948  0.35074  1.0000
  S   S3        1.0  0.52874  0.35074  0.79948  1.0000
  S   S4        1.0  0.97125  0.20051  0.64927  1.0000
  N   N1        1.0  0.12961  0.39261  0.24779  1.0000
  N   N2        1.0  0.37039  0.75222  0.60738  1.0000
  N   N3        1.0  0.87041  0.60739  0.75222  1.0000
  N   N4        1.0  0.62961  0.24778  0.39259  1.0000
