data_image0
_chemical_formula_structural       Ag4H24C16N12
_chemical_formula_sum              "Ag4 H24 C16 N12"
_cell_length_a       7.09298
_cell_length_b       8.11756
_cell_length_c       9.58669
_cell_angle_alpha    90.0002
_cell_angle_beta     89.9997
_cell_angle_gamma    90.0002

_space_group_name_H-M_alt    "P 1"
_space_group_IT_number       1

loop_
  _space_group_symop_operation_xyz
  'x, y, z'

loop_
  _atom_site_type_symbol
  _atom_site_label
  _atom_site_symmetry_multiplicity
  _atom_site_fract_x
  _atom_site_fract_y
  _atom_site_fract_z
  _atom_site_occupancy
  Ag  Ag1       1.0  0.19897  0.71705  0.50201  1.0000
  Ag  Ag2       1.0  0.80102  0.28295  0.00201  1.0000
  Ag  Ag3       1.0  0.69897  0.78296  0.50200  1.0000
  Ag  Ag4       1.0  0.30103  0.21705  0.00201  1.0000
  H   H1        1.0  0.43377  0.60216  0.29487  1.0000
  H   H2        1.0  0.56624  0.39785  0.79487  1.0000
  H   H3        1.0  0.93377  0.89785  0.29487  1.0000
  H   H4        1.0  0.06623  0.10215  0.79487  1.0000
  H   H5        1.0  0.45198  0.42469  0.18782  1.0000
  H   H6        1.0  0.54802  0.57531  0.68782  1.0000
  H   H7        1.0  0.95199  0.07532  0.18782  1.0000
  H   H8        1.0  0.04801  0.92468  0.68782  1.0000
  H   H9        1.0  0.35427  0.65686  0.04002  1.0000
  H   H10       1.0  0.64575  0.34314  0.54002  1.0000
  H   H11       1.0  0.85426  0.84315  0.04003  1.0000
  H   H12       1.0  0.14574  0.15686  0.54002  1.0000
  H   H13       1.0  0.58937  0.60542  0.99425  1.0000
  H   H14       1.0  0.41064  0.39457  0.49425  1.0000
  H   H15       1.0  0.08937  0.89457  0.99425  1.0000
  H   H16       1.0  0.91063  0.10543  0.49425  1.0000
  H   H17       1.0  0.54414  0.78114  0.09974  1.0000
  H   H18       1.0  0.45587  0.21886  0.59974  1.0000
  H   H19       1.0  0.04413  0.71886  0.09975  1.0000
  H   H20       1.0  0.95587  0.28114  0.59975  1.0000
  H   H21       1.0  0.12685  0.36715  0.24478  1.0000
  H   H22       1.0  0.87315  0.63285  0.74478  1.0000
  H   H23       1.0  0.62686  0.13286  0.24478  1.0000
  H   H24       1.0  0.37314  0.86714  0.74478  1.0000
  C   C1        1.0  0.71239  0.52045  0.25579  1.0000
  C   C2        1.0  0.28761  0.47954  0.75579  1.0000
  C   C3        1.0  0.21240  0.97955  0.25580  1.0000
  C   C4        1.0  0.78759  0.02045  0.75580  1.0000
  C   C5        1.0  0.51473  0.54649  0.20911  1.0000
  C   C6        1.0  0.48527  0.45351  0.70911  1.0000
  C   C7        1.0  0.01474  0.95351  0.20912  1.0000
  C   C8        1.0  0.98526  0.04649  0.70912  1.0000
  C   C9        1.0  0.49984  0.65419  0.07829  1.0000
  C   C10       1.0  0.50016  0.34581  0.57829  1.0000
  C   C11       1.0  0.99984  0.84581  0.07830  1.0000
  C   C12       1.0  0.00016  0.15419  0.57830  1.0000
  C   C13       1.0  0.99780  0.43429  0.26693  1.0000
  C   C14       1.0  0.00220  0.56572  0.76692  1.0000
  C   C15       1.0  0.49780  0.06572  0.26693  1.0000
  C   C16       1.0  0.50218  0.93428  0.76693  1.0000
  N   N1        1.0  0.98087  0.54524  0.36788  1.0000
  N   N2        1.0  0.01914  0.45476  0.86789  1.0000
  N   N3        1.0  0.48087  0.95477  0.36788  1.0000
  N   N4        1.0  0.51913  0.04524  0.86789  1.0000
  N   N5        1.0  0.79753  0.60049  0.36077  1.0000
  N   N6        1.0  0.20247  0.39951  0.86077  1.0000
  N   N7        1.0  0.29753  0.89952  0.36077  1.0000
  N   N8        1.0  0.70246  0.10049  0.86077  1.0000
  N   N9        1.0  0.83470  0.41385  0.19441  1.0000
  N   N10       1.0  0.16530  0.58615  0.69441  1.0000
  N   N11       1.0  0.33471  0.08616  0.19441  1.0000
  N   N12       1.0  0.66529  0.91385  0.69441  1.0000
