data_image0
_chemical_formula_structural       Ag8H48C32N24
_chemical_formula_sum              "Ag8 H48 C32 N24"
_cell_length_a       11.7784
_cell_length_b       12.0235
_cell_length_c       12.2169
_cell_angle_alpha    106.31
_cell_angle_beta     105.385
_cell_angle_gamma    116.027

_space_group_name_H-M_alt    "P 1"
_space_group_IT_number       1

loop_
  _space_group_symop_operation_xyz
  'x, y, z'

loop_
  _atom_site_type_symbol
  _atom_site_label
  _atom_site_symmetry_multiplicity
  _atom_site_fract_x
  _atom_site_fract_y
  _atom_site_fract_z
  _atom_site_occupancy
  Ag  Ag1       1.0  0.80635  0.63394  0.40216  1.0000
  Ag  Ag2       1.0  0.09541  0.76802  0.40240  1.0000
  Ag  Ag3       1.0  0.19366  0.36606  0.59785  1.0000
  Ag  Ag4       1.0  0.90459  0.23197  0.59760  1.0000
  Ag  Ag5       1.0  0.84134  0.39926  0.12221  1.0000
  Ag  Ag6       1.0  0.78065  0.72280  0.12172  1.0000
  Ag  Ag7       1.0  0.15866  0.60074  0.87779  1.0000
  Ag  Ag8       1.0  0.21935  0.27720  0.87828  1.0000
  H   H1        1.0  0.49982  0.24009  0.90417  1.0000
  H   H2        1.0  0.90487  0.66393  0.90417  1.0000
  H   H3        1.0  0.50018  0.75991  0.09583  1.0000
  H   H4        1.0  0.09512  0.33607  0.09583  1.0000
  H   H5        1.0  0.53402  0.63069  0.26234  1.0000
  H   H6        1.0  0.22782  0.63125  0.26258  1.0000
  H   H7        1.0  0.46598  0.36931  0.73766  1.0000
  H   H8        1.0  0.77217  0.36875  0.73741  1.0000
  H   H9        1.0  0.36118  0.50245  0.13667  1.0000
  H   H10       1.0  0.27516  0.63380  0.13689  1.0000
  H   H11       1.0  0.63882  0.49755  0.86333  1.0000
  H   H12       1.0  0.72483  0.36621  0.86311  1.0000
  H   H13       1.0  0.36762  0.51603  0.34747  1.0000
  H   H14       1.0  0.47923  0.83120  0.34750  1.0000
  H   H15       1.0  0.63238  0.48396  0.65253  1.0000
  H   H16       1.0  0.52077  0.16880  0.65250  1.0000
  H   H17       1.0  0.50199  0.48155  0.37569  1.0000
  H   H18       1.0  0.37291  0.89374  0.37579  1.0000
  H   H19       1.0  0.49802  0.51845  0.62431  1.0000
  H   H20       1.0  0.62708  0.10626  0.62421  1.0000
  H   H21       1.0  0.32928  0.35094  0.24965  1.0000
  H   H22       1.0  0.41953  0.89823  0.24961  1.0000
  H   H23       1.0  0.67072  0.64905  0.75035  1.0000
  H   H24       1.0  0.58048  0.10178  0.75040  1.0000
  H   H25       1.0  0.78498  0.01736  0.28966  1.0000
  H   H26       1.0  0.00508  0.27242  0.28988  1.0000
  H   H27       1.0  0.21503  0.98264  0.71035  1.0000
  H   H28       1.0  0.99492  0.72758  0.71013  1.0000
  H   H29       1.0  0.94881  0.04484  0.71131  1.0000
  H   H30       1.0  0.26261  0.66688  0.71142  1.0000
  H   H31       1.0  0.05118  0.95515  0.28869  1.0000
  H   H32       1.0  0.73739  0.33313  0.28858  1.0000
  H   H33       1.0  0.92011  0.87745  0.65118  1.0000
  H   H34       1.0  0.23162  0.77421  0.65116  1.0000
  H   H35       1.0  0.07988  0.12254  0.34882  1.0000
  H   H36       1.0  0.76838  0.22579  0.34884  1.0000
  H   H37       1.0  0.76183  0.88430  0.75363  1.0000
  H   H38       1.0  0.49201  0.86913  0.75351  1.0000
  H   H39       1.0  0.23816  0.11570  0.24637  1.0000
  H   H40       1.0  0.50799  0.13088  0.24649  1.0000
  H   H41       1.0  0.68724  0.93338  0.64532  1.0000
  H   H42       1.0  0.45804  0.71152  0.64520  1.0000
  H   H43       1.0  0.31275  0.06662  0.35468  1.0000
  H   H44       1.0  0.54197  0.28850  0.35480  1.0000
  H   H45       1.0  0.65969  0.76596  0.58756  1.0000
  H   H46       1.0  0.42841  0.82139  0.58743  1.0000
  H   H47       1.0  0.34030  0.23404  0.41244  1.0000
  H   H48       1.0  0.57159  0.17861  0.41257  1.0000
  C   C1        1.0  0.50857  0.44836  0.13988  1.0000
  C   C2        1.0  0.13096  0.69104  0.13999  1.0000
  C   C3        1.0  0.49143  0.55164  0.86012  1.0000
  C   C4        1.0  0.86904  0.30896  0.86001  1.0000
  C   C5        1.0  0.52404  0.31606  0.99485  1.0000
  C   C6        1.0  0.97104  0.67859  0.99490  1.0000
  C   C7        1.0  0.47597  0.68394  0.00515  1.0000
  C   C8        1.0  0.02896  0.32141  0.00510  1.0000
  C   C9        1.0  0.45297  0.51810  0.20919  1.0000
  C   C10       1.0  0.25575  0.69064  0.20939  1.0000
  C   C11       1.0  0.54703  0.48190  0.79082  1.0000
  C   C12       1.0  0.74425  0.30935  0.79060  1.0000
  C   C13       1.0  0.41032  0.46344  0.30065  1.0000
  C   C14       1.0  0.38964  0.83680  0.30074  1.0000
  C   C15       1.0  0.58968  0.53655  0.69935  1.0000
  C   C16       1.0  0.61035  0.16320  0.69926  1.0000
  C   C17       1.0  0.84201  0.92762  0.50985  1.0000
  C   C18       1.0  0.16817  0.58241  0.50995  1.0000
  C   C19       1.0  0.15798  0.07237  0.49016  1.0000
  C   C20       1.0  0.83184  0.41759  0.49005  1.0000
  C   C21       1.0  0.79972  0.96801  0.34926  1.0000
  C   C22       1.0  0.04985  0.38137  0.34944  1.0000
  C   C23       1.0  0.20028  0.03200  0.65074  1.0000
  C   C24       1.0  0.95016  0.61864  0.65056  1.0000
  C   C25       1.0  0.87112  0.93557  0.63892  1.0000
  C   C26       1.0  0.26813  0.70363  0.63894  1.0000
  C   C27       1.0  0.12888  0.06442  0.36108  1.0000
  C   C28       1.0  0.73187  0.29638  0.36106  1.0000
  C   C29       1.0  0.73707  0.87623  0.65735  1.0000
  C   C30       1.0  0.42053  0.78096  0.65723  1.0000
  C   C31       1.0  0.26293  0.12377  0.34265  1.0000
  C   C32       1.0  0.57948  0.21905  0.34277  1.0000
  N   N1        1.0  0.63999  0.47797  0.19105  1.0000
  N   N2        1.0  0.05053  0.71261  0.19104  1.0000
  N   N3        1.0  0.36001  0.52203  0.80895  1.0000
  N   N4        1.0  0.94947  0.28739  0.80896  1.0000
  N   N5        1.0  0.64994  0.39238  0.09738  1.0000
  N   N6        1.0  0.94727  0.70471  0.09730  1.0000
  N   N7        1.0  0.35006  0.60762  0.90262  1.0000
  N   N8        1.0  0.05273  0.29530  0.90270  1.0000
  N   N9        1.0  0.43218  0.34674  0.01664  1.0000
  N   N10       1.0  0.08456  0.66959  0.01679  1.0000
  N   N11       1.0  0.56782  0.65326  0.98336  1.0000
  N   N12       1.0  0.91544  0.33042  0.98321  1.0000
  N   N13       1.0  0.81553  0.82126  0.41001  1.0000
  N   N14       1.0  0.09451  0.58879  0.41024  1.0000
  N   N15       1.0  0.18447  0.17874  0.58999  1.0000
  N   N16       1.0  0.90550  0.41121  0.58976  1.0000
  N   N17       1.0  0.78824  0.84696  0.30656  1.0000
  N   N18       1.0  0.01831  0.45958  0.30684  1.0000
  N   N19       1.0  0.21176  0.15304  0.69344  1.0000
  N   N20       1.0  0.98169  0.54042  0.69316  1.0000
  N   N21       1.0  0.83306  0.02272  0.47523  1.0000
  N   N22       1.0  0.14268  0.45276  0.47531  1.0000
  N   N23       1.0  0.16693  0.97728  0.52477  1.0000
  N   N24       1.0  0.85732  0.54724  0.52469  1.0000
