data_image0
_chemical_formula_structural       Ag4H16C12N12
_chemical_formula_sum              "Ag4 H16 C12 N12"
_cell_length_a       3.70403
_cell_length_b       11.0274
_cell_length_c       11.0634
_cell_angle_alpha    90.0001
_cell_angle_beta     90.0001
_cell_angle_gamma    89.9994

_space_group_name_H-M_alt    "P 1"
_space_group_IT_number       1

loop_
  _space_group_symop_operation_xyz
  'x, y, z'

loop_
  _atom_site_type_symbol
  _atom_site_label
  _atom_site_symmetry_multiplicity
  _atom_site_fract_x
  _atom_site_fract_y
  _atom_site_fract_z
  _atom_site_occupancy
  Ag  Ag1       1.0  0.48826  0.59582  0.11864  1.0000
  Ag  Ag2       1.0  0.98825  0.40417  0.88136  1.0000
  Ag  Ag3       1.0  0.48824  0.90417  0.61864  1.0000
  Ag  Ag4       1.0  0.98822  0.09583  0.38137  1.0000
  H   H1        1.0  0.84513  0.61284  0.65321  1.0000
  H   H2        1.0  0.34508  0.38716  0.34678  1.0000
  H   H3        1.0  0.84510  0.88716  0.15321  1.0000
  H   H4        1.0  0.34511  0.11283  0.84679  1.0000
  H   H5        1.0  0.25492  0.83547  0.02755  1.0000
  H   H6        1.0  0.75495  0.16453  0.97246  1.0000
  H   H7        1.0  0.25493  0.66453  0.52755  1.0000
  H   H8        1.0  0.75493  0.33547  0.47246  1.0000
  H   H9        1.0  0.10049  0.89428  0.88539  1.0000
  H   H10       1.0  0.60048  0.10571  0.11461  1.0000
  H   H11       1.0  0.10047  0.60572  0.38539  1.0000
  H   H12       1.0  0.60047  0.39428  0.61461  1.0000
  H   H13       1.0  0.52561  0.93902  0.94353  1.0000
  H   H14       1.0  0.02561  0.06099  0.05646  1.0000
  H   H15       1.0  0.52560  0.56098  0.44353  1.0000
  H   H16       1.0  0.02559  0.43902  0.55647  1.0000
  C   C1        1.0  0.50696  0.75841  0.87358  1.0000
  C   C2        1.0  0.00695  0.24160  0.12641  1.0000
  C   C3        1.0  0.50695  0.74160  0.37358  1.0000
  C   C4        1.0  0.00696  0.25840  0.62642  1.0000
  C   C5        1.0  0.74217  0.64629  0.73851  1.0000
  C   C6        1.0  0.24217  0.35372  0.26151  1.0000
  C   C7        1.0  0.74216  0.85371  0.23851  1.0000
  C   C8        1.0  0.24216  0.14629  0.76149  1.0000
  C   C9        1.0  0.33660  0.86255  0.93616  1.0000
  C   C10       1.0  0.83659  0.13745  0.06384  1.0000
  C   C11       1.0  0.33659  0.63745  0.43617  1.0000
  C   C12       1.0  0.83659  0.36256  0.56384  1.0000
  N   N1        1.0  0.59724  0.65446  0.92794  1.0000
  N   N2        1.0  0.09723  0.34554  0.07206  1.0000
  N   N3        1.0  0.59721  0.84554  0.42794  1.0000
  N   N4        1.0  0.09723  0.15446  0.57206  1.0000
  N   N5        1.0  0.74812  0.58156  0.84033  1.0000
  N   N6        1.0  0.24811  0.41844  0.15966  1.0000
  N   N7        1.0  0.74810  0.91844  0.34033  1.0000
  N   N8        1.0  0.24812  0.08156  0.65967  1.0000
  N   N9        1.0  0.59490  0.75737  0.75414  1.0000
  N   N10       1.0  0.09488  0.24262  0.24585  1.0000
  N   N11       1.0  0.59490  0.74262  0.25415  1.0000
  N   N12       1.0  0.09489  0.25738  0.74585  1.0000
