data_image0
_chemical_formula_structural       Ag8H64C40N24
_chemical_formula_sum              "Ag8 H64 C40 N24"
_cell_length_a       11.9461
_cell_length_b       12.0261
_cell_length_c       12.5233
_cell_angle_alpha    107.884
_cell_angle_beta     107.649
_cell_angle_gamma    111.269

_space_group_name_H-M_alt    "P 1"
_space_group_IT_number       1

loop_
  _space_group_symop_operation_xyz
  'x, y, z'

loop_
  _atom_site_type_symbol
  _atom_site_label
  _atom_site_symmetry_multiplicity
  _atom_site_fract_x
  _atom_site_fract_y
  _atom_site_fract_z
  _atom_site_occupancy
  Ag  Ag1       1.0  0.81401  0.62193  0.39734  1.0000
  Ag  Ag2       1.0  0.08343  0.77550  0.39736  1.0000
  Ag  Ag3       1.0  0.18599  0.37807  0.60266  1.0000
  Ag  Ag4       1.0  0.91657  0.22450  0.60264  1.0000
  Ag  Ag5       1.0  0.86086  0.40386  0.11370  1.0000
  Ag  Ag6       1.0  0.75302  0.71003  0.11375  1.0000
  Ag  Ag7       1.0  0.13914  0.59614  0.88630  1.0000
  Ag  Ag8       1.0  0.24698  0.28996  0.88625  1.0000
  H   H1        1.0  0.52600  0.25006  0.89549  1.0000
  H   H2        1.0  0.86943  0.64557  0.89569  1.0000
  H   H3        1.0  0.47400  0.74994  0.10451  1.0000
  H   H4        1.0  0.13057  0.35443  0.10431  1.0000
  H   H5        1.0  0.38800  0.51035  0.14581  1.0000
  H   H6        1.0  0.25789  0.63535  0.14588  1.0000
  H   H7        1.0  0.61201  0.48965  0.85419  1.0000
  H   H8        1.0  0.74211  0.36465  0.85412  1.0000
  H   H9        1.0  0.55364  0.61865  0.27654  1.0000
  H   H10       1.0  0.22318  0.65802  0.27668  1.0000
  H   H11       1.0  0.44636  0.38135  0.72347  1.0000
  H   H12       1.0  0.77682  0.34198  0.72332  1.0000
  H   H13       1.0  0.35093  0.33641  0.22052  1.0000
  H   H14       1.0  0.36978  0.88399  0.22035  1.0000
  H   H15       1.0  0.64907  0.66359  0.77948  1.0000
  H   H16       1.0  0.63022  0.11601  0.77965  1.0000
  H   H17       1.0  0.51923  0.43664  0.34453  1.0000
  H   H18       1.0  0.32544  0.90799  0.34427  1.0000
  H   H19       1.0  0.48077  0.56336  0.65547  1.0000
  H   H20       1.0  0.67456  0.09201  0.65573  1.0000
  H   H21       1.0  0.35601  0.45949  0.42539  1.0000
  H   H22       1.0  0.56964  0.96614  0.42557  1.0000
  H   H23       1.0  0.64399  0.54051  0.57461  1.0000
  H   H24       1.0  0.43036  0.03386  0.57443  1.0000
  H   H25       1.0  0.30084  0.52060  0.32015  1.0000
  H   H26       1.0  0.51963  0.79975  0.32045  1.0000
  H   H27       1.0  0.69916  0.47940  0.67985  1.0000
  H   H28       1.0  0.48037  0.20025  0.67955  1.0000
  H   H29       1.0  0.47019  0.61680  0.44437  1.0000
  H   H30       1.0  0.47432  0.82778  0.44447  1.0000
  H   H31       1.0  0.52981  0.38320  0.55563  1.0000
  H   H32       1.0  0.52568  0.17222  0.55553  1.0000
  H   H33       1.0  0.77369  0.00216  0.29778  1.0000
  H   H34       1.0  0.02453  0.29592  0.29769  1.0000
  H   H35       1.0  0.22631  0.99784  0.70222  1.0000
  H   H36       1.0  0.97547  0.70408  0.70232  1.0000
  H   H37       1.0  0.95555  0.87666  0.65502  1.0000
  H   H38       1.0  0.19931  0.77822  0.65543  1.0000
  H   H39       1.0  0.04445  0.12334  0.34498  1.0000
  H   H40       1.0  0.80069  0.22178  0.34457  1.0000
  H   H41       1.0  0.98045  0.04250  0.71411  1.0000
  H   H42       1.0  0.23332  0.67129  0.71433  1.0000
  H   H43       1.0  0.01955  0.95750  0.28589  1.0000
  H   H44       1.0  0.76668  0.32871  0.28567  1.0000
  H   H45       1.0  0.73157  0.94136  0.66454  1.0000
  H   H46       1.0  0.43277  0.72293  0.66506  1.0000
  H   H47       1.0  0.26843  0.05864  0.33546  1.0000
  H   H48       1.0  0.56724  0.27707  0.33494  1.0000
  H   H49       1.0  0.71902  0.78158  0.62282  1.0000
  H   H50       1.0  0.40357  0.84090  0.62319  1.0000
  H   H51       1.0  0.28098  0.21842  0.37718  1.0000
  H   H52       1.0  0.59643  0.15910  0.37681  1.0000
  H   H53       1.0  0.76438  0.89374  0.85005  1.0000
  H   H54       1.0  0.58569  0.95628  0.85026  1.0000
  H   H55       1.0  0.23562  0.10626  0.14995  1.0000
  H   H56       1.0  0.41431  0.04373  0.14974  1.0000
  H   H57       1.0  0.90378  0.87438  0.84625  1.0000
  H   H58       1.0  0.44258  0.97194  0.84651  1.0000
  H   H59       1.0  0.09622  0.12562  0.15375  1.0000
  H   H60       1.0  0.55742  0.02806  0.15349  1.0000
  H   H61       1.0  0.91537  0.03442  0.88522  1.0000
  H   H62       1.0  0.47013  0.85110  0.88586  1.0000
  H   H63       1.0  0.08463  0.96557  0.11477  1.0000
  H   H64       1.0  0.52987  0.14891  0.11415  1.0000
  C   C1        1.0  0.53023  0.44756  0.13619  1.0000
  C   C2        1.0  0.10604  0.68856  0.13623  1.0000
  C   C3        1.0  0.46977  0.55244  0.86381  1.0000
  C   C4        1.0  0.89396  0.31144  0.86377  1.0000
  C   C5        1.0  0.54811  0.32200  0.98728  1.0000
  C   C6        1.0  0.93917  0.66538  0.98746  1.0000
  C   C7        1.0  0.45189  0.67800  0.01272  1.0000
  C   C8        1.0  0.06083  0.33461  0.01254  1.0000
  C   C9        1.0  0.47520  0.51209  0.21118  1.0000
  C   C10       1.0  0.23613  0.69905  0.21121  1.0000
  C   C11       1.0  0.52480  0.48791  0.78882  1.0000
  C   C12       1.0  0.76387  0.30095  0.78879  1.0000
  C   C13       1.0  0.43254  0.44170  0.28722  1.0000
  C   C14       1.0  0.35487  0.84555  0.28713  1.0000
  C   C15       1.0  0.56746  0.55830  0.71278  1.0000
  C   C16       1.0  0.64513  0.15445  0.71287  1.0000
  C   C17       1.0  0.38740  0.51327  0.37373  1.0000
  C   C18       1.0  0.48658  0.86067  0.37388  1.0000
  C   C19       1.0  0.61260  0.48673  0.62627  1.0000
  C   C20       1.0  0.51342  0.13933  0.62612  1.0000
  C   C21       1.0  0.85663  0.91989  0.51605  1.0000
  C   C22       1.0  0.15929  0.59616  0.51627  1.0000
  C   C23       1.0  0.14338  0.08012  0.48395  1.0000
  C   C24       1.0  0.84071  0.40384  0.48373  1.0000
  C   C25       1.0  0.79598  0.95501  0.35642  1.0000
  C   C26       1.0  0.06078  0.40164  0.35643  1.0000
  C   C27       1.0  0.20402  0.04499  0.64357  1.0000
  C   C28       1.0  0.93922  0.59836  0.64357  1.0000
  C   C29       1.0  0.90412  0.93566  0.64704  1.0000
  C   C30       1.0  0.24267  0.71119  0.64739  1.0000
  C   C31       1.0  0.09587  0.06434  0.35296  1.0000
  C   C32       1.0  0.75733  0.28881  0.35261  1.0000
  C   C33       1.0  0.79009  0.89096  0.68404  1.0000
  C   C34       1.0  0.39378  0.79287  0.68450  1.0000
  C   C35       1.0  0.20991  0.10904  0.31596  1.0000
  C   C36       1.0  0.60622  0.20713  0.31550  1.0000
  C   C37       1.0  0.84620  0.92498  0.82388  1.0000
  C   C38       1.0  0.47774  0.89890  0.82430  1.0000
  C   C39       1.0  0.15380  0.07502  0.17612  1.0000
  C   C40       1.0  0.52226  0.10110  0.17570  1.0000
  N   N1        1.0  0.65884  0.47420  0.18517  1.0000
  N   N2        1.0  0.02652  0.71099  0.18529  1.0000
  N   N3        1.0  0.34116  0.52580  0.81483  1.0000
  N   N4        1.0  0.97348  0.28901  0.81471  1.0000
  N   N5        1.0  0.67042  0.39314  0.08922  1.0000
  N   N6        1.0  0.91894  0.69620  0.08941  1.0000
  N   N7        1.0  0.32958  0.60686  0.91078  1.0000
  N   N8        1.0  0.08106  0.30380  0.91059  1.0000
  N   N9        1.0  0.45716  0.35208  0.01209  1.0000
  N   N10       1.0  0.05488  0.65996  0.01215  1.0000
  N   N11       1.0  0.54284  0.64792  0.98792  1.0000
  N   N12       1.0  0.94512  0.34004  0.98785  1.0000
  N   N13       1.0  0.81843  0.80896  0.41292  1.0000
  N   N14       1.0  0.09456  0.60412  0.41317  1.0000
  N   N15       1.0  0.18157  0.19104  0.58708  1.0000
  N   N16       1.0  0.90544  0.39588  0.58683  1.0000
  N   N17       1.0  0.77923  0.83150  0.31020  1.0000
  N   N18       1.0  0.03128  0.47900  0.31031  1.0000
  N   N19       1.0  0.22077  0.16850  0.68980  1.0000
  N   N20       1.0  0.96872  0.52100  0.68969  1.0000
  N   N21       1.0  0.84422  0.01463  0.48395  1.0000
  N   N22       1.0  0.13977  0.46935  0.48402  1.0000
  N   N23       1.0  0.15578  0.98537  0.51605  1.0000
  N   N24       1.0  0.86023  0.53065  0.51598  1.0000
