data_image0
_chemical_formula_structural       Hg2H32C44N8Cl4
_chemical_formula_sum              "Hg2 H32 C44 N8 Cl4"
_cell_length_a       5.07719
_cell_length_b       7.41836
_cell_length_c       26.5995
_cell_angle_alpha    91.9019
_cell_angle_beta     89.9992
_cell_angle_gamma    89.9996

_space_group_name_H-M_alt    "P 1"
_space_group_IT_number       1

loop_
  _space_group_symop_operation_xyz
  'x, y, z'

loop_
  _atom_site_type_symbol
  _atom_site_label
  _atom_site_symmetry_multiplicity
  _atom_site_fract_x
  _atom_site_fract_y
  _atom_site_fract_z
  _atom_site_occupancy
  Hg  Hg1       1.0  0.89437  0.75000  0.75000  1.0000
  Hg  Hg2       1.0  0.10563  0.24999  0.25000  1.0000
  H   H1        1.0  0.61566  0.36954  0.78765  1.0000
  H   H2        1.0  0.61565  0.13045  0.71235  1.0000
  H   H3        1.0  0.38434  0.63045  0.21236  1.0000
  H   H4        1.0  0.38438  0.86954  0.28765  1.0000
  H   H5        1.0  0.25956  0.25810  0.84381  1.0000
  H   H6        1.0  0.25954  0.24189  0.65620  1.0000
  H   H7        1.0  0.74044  0.74188  0.15620  1.0000
  H   H8        1.0  0.74050  0.75812  0.34380  1.0000
  H   H9        1.0  0.01563  0.48463  0.89988  1.0000
  H   H10       1.0  0.01561  0.01537  0.60013  1.0000
  H   H11       1.0  0.98437  0.51537  0.10013  1.0000
  H   H12       1.0  0.98441  0.98465  0.39988  1.0000
  H   H13       1.0  0.51789  0.89604  0.84096  1.0000
  H   H14       1.0  0.51789  0.60395  0.65904  1.0000
  H   H15       1.0  0.48210  0.10395  0.15904  1.0000
  H   H16       1.0  0.48210  0.39605  0.34096  1.0000
  H   H17       1.0  0.20696  0.98279  0.90494  1.0000
  H   H18       1.0  0.20695  0.51720  0.59506  1.0000
  H   H19       1.0  0.79303  0.01720  0.09506  1.0000
  H   H20       1.0  0.79302  0.48281  0.40494  1.0000
  H   H21       1.0  0.87595  0.16201  0.89580  1.0000
  H   H22       1.0  0.87592  0.33799  0.60420  1.0000
  H   H23       1.0  0.12405  0.83798  0.10420  1.0000
  H   H24       1.0  0.12406  0.66203  0.39580  1.0000
  H   H25       1.0  0.61360  0.41165  0.93535  1.0000
  H   H26       1.0  0.61357  0.08835  0.56465  1.0000
  H   H27       1.0  0.38639  0.58833  0.06465  1.0000
  H   H28       1.0  0.38642  0.91167  0.43535  1.0000
  H   H29       1.0  0.31606  0.35337  0.00716  1.0000
  H   H30       1.0  0.31604  0.14664  0.49284  1.0000
  H   H31       1.0  0.68394  0.64661  0.99284  1.0000
  H   H32       1.0  0.68395  0.85338  0.50716  1.0000
  C   C1        1.0  0.50737  0.46166  0.81297  1.0000
  C   C2        1.0  0.50735  0.03834  0.68703  1.0000
  C   C3        1.0  0.49263  0.53834  0.18704  1.0000
  C   C4        1.0  0.49267  0.96166  0.31297  1.0000
  C   C5        1.0  0.30842  0.40104  0.84439  1.0000
  C   C6        1.0  0.30840  0.09896  0.65561  1.0000
  C   C7        1.0  0.69157  0.59896  0.15561  1.0000
  C   C8        1.0  0.69162  0.90105  0.34439  1.0000
  C   C9        1.0  0.17441  0.52524  0.87513  1.0000
  C   C10       1.0  0.17440  0.97476  0.62487  1.0000
  C   C11       1.0  0.82559  0.47476  0.12488  1.0000
  C   C12       1.0  0.82562  0.02525  0.37513  1.0000
  C   C13       1.0  0.24673  0.70773  0.87465  1.0000
  C   C14       1.0  0.24672  0.79226  0.62535  1.0000
  C   C15       1.0  0.75327  0.29226  0.12535  1.0000
  C   C16       1.0  0.75327  0.20774  0.37465  1.0000
  C   C17       1.0  0.45340  0.75596  0.84278  1.0000
  C   C18       1.0  0.45340  0.74404  0.65722  1.0000
  C   C19       1.0  0.54660  0.24403  0.15722  1.0000
  C   C20       1.0  0.54661  0.25596  0.34278  1.0000
  C   C21       1.0  0.11153  0.84925  0.90394  1.0000
  C   C22       1.0  0.11153  0.65074  0.59606  1.0000
  C   C23       1.0  0.88849  0.15075  0.09606  1.0000
  C   C24       1.0  0.88849  0.34926  0.40394  1.0000
  C   C25       1.0  0.75170  0.96504  0.94820  1.0000
  C   C26       1.0  0.75169  0.53496  0.55180  1.0000
  C   C27       1.0  0.24831  0.03495  0.05180  1.0000
  C   C28       1.0  0.24830  0.46506  0.44820  1.0000
  C   C29       1.0  0.75784  0.13770  0.92913  1.0000
  C   C30       1.0  0.75783  0.36230  0.57086  1.0000
  C   C31       1.0  0.24215  0.86229  0.07087  1.0000
  C   C32       1.0  0.24216  0.63772  0.42913  1.0000
  C   C33       1.0  0.60459  0.27769  0.95088  1.0000
  C   C34       1.0  0.60457  0.22231  0.54912  1.0000
  C   C35       1.0  0.39541  0.72229  0.04912  1.0000
  C   C36       1.0  0.39541  0.77771  0.45088  1.0000
  C   C37       1.0  0.43815  0.24620  0.99071  1.0000
  C   C38       1.0  0.43813  0.25380  0.50929  1.0000
  C   C39       1.0  0.56185  0.75379  0.00929  1.0000
  C   C40       1.0  0.56186  0.74622  0.49070  1.0000
  C   C41       1.0  0.57908  0.92810  0.98941  1.0000
  C   C42       1.0  0.57908  0.57191  0.51059  1.0000
  C   C43       1.0  0.42092  0.07190  0.01059  1.0000
  C   C44       1.0  0.42092  0.42812  0.48941  1.0000
  N   N1        1.0  0.57717  0.63638  0.81234  1.0000
  N   N2        1.0  0.57716  0.86362  0.68766  1.0000
  N   N3        1.0  0.42283  0.36360  0.18767  1.0000
  N   N4        1.0  0.42285  0.13639  0.31234  1.0000
  N   N5        1.0  0.89118  0.82065  0.92621  1.0000
  N   N6        1.0  0.89116  0.67934  0.57378  1.0000
  N   N7        1.0  0.10883  0.17933  0.07379  1.0000
  N   N8        1.0  0.10881  0.32067  0.42621  1.0000
  Cl  Cl1       1.0  0.97869  0.03816  0.78974  1.0000
  Cl  Cl2       1.0  0.97867  0.46183  0.71026  1.0000
  Cl  Cl3       1.0  0.02132  0.96183  0.21027  1.0000
  Cl  Cl4       1.0  0.02130  0.53816  0.28974  1.0000
