data_image0
_chemical_formula_structural       Cd2H24C24Br4N4F4
_chemical_formula_sum              "Cd2 H24 C24 Br4 N4 F4"
_cell_length_a       6.81144
_cell_length_b       7.4052
_cell_length_c       14.9559
_cell_angle_alpha    84.8167
_cell_angle_beta     80.0514
_cell_angle_gamma    73.7251

_space_group_name_H-M_alt    "P 1"
_space_group_IT_number       1

loop_
  _space_group_symop_operation_xyz
  'x, y, z'

loop_
  _atom_site_type_symbol
  _atom_site_label
  _atom_site_symmetry_multiplicity
  _atom_site_fract_x
  _atom_site_fract_y
  _atom_site_fract_z
  _atom_site_occupancy
  Cd  Cd1       1.0  0.23880  0.43466  0.05953  1.0000
  Cd  Cd2       1.0  0.76122  0.56536  0.94047  1.0000
  H   H1        1.0  0.50378  0.02903  0.17426  1.0000
  H   H2        1.0  0.49624  0.97098  0.82574  1.0000
  H   H3        1.0  0.25288  0.79701  0.42808  1.0000
  H   H4        1.0  0.74717  0.20301  0.57192  1.0000
  H   H5        1.0  0.90099  0.89266  0.37986  1.0000
  H   H6        1.0  0.09905  0.10735  0.62015  1.0000
  H   H7        1.0  0.85229  0.05411  0.22965  1.0000
  H   H8        1.0  0.14774  0.94589  0.77035  1.0000
  H   H9        1.0  0.99828  0.17338  0.09398  1.0000
  H   H10       1.0  0.00174  0.82662  0.90602  1.0000
  H   H11       1.0  0.23944  0.06253  0.05459  1.0000
  H   H12       1.0  0.76057  0.93748  0.94541  1.0000
  H   H13       1.0  0.97905  0.48695  0.29921  1.0000
  H   H14       1.0  0.02092  0.51310  0.70079  1.0000
  H   H15       1.0  0.98968  0.31784  0.44985  1.0000
  H   H16       1.0  0.01025  0.68217  0.55014  1.0000
  H   H17       1.0  0.32646  0.20324  0.51250  1.0000
  H   H18       1.0  0.67346  0.79672  0.48750  1.0000
  H   H19       1.0  0.63693  0.42428  0.26991  1.0000
  H   H20       1.0  0.36305  0.57568  0.73011  1.0000
  H   H21       1.0  0.43473  0.60330  0.16624  1.0000
  H   H22       1.0  0.56528  0.39669  0.83377  1.0000
  H   H23       1.0  0.17994  0.68551  0.19288  1.0000
  H   H24       1.0  0.82007  0.31451  0.80712  1.0000
  C   C1        1.0  0.30659  0.46554  0.27492  1.0000
  C   C2        1.0  0.69339  0.53446  0.72508  1.0000
  C   C3        1.0  0.12485  0.43524  0.32596  1.0000
  C   C4        1.0  0.87512  0.56477  0.67403  1.0000
  C   C5        1.0  0.13142  0.34123  0.41081  1.0000
  C   C6        1.0  0.86853  0.65876  0.58918  1.0000
  C   C7        1.0  0.31696  0.27644  0.44627  1.0000
  C   C8        1.0  0.68297  0.72353  0.55372  1.0000
  C   C9        1.0  0.49342  0.30813  0.39335  1.0000
  C   C10       1.0  0.50653  0.69182  0.60665  1.0000
  C   C11       1.0  0.49480  0.39954  0.30819  1.0000
  C   C12       1.0  0.50517  0.60043  0.69182  1.0000
  C   C13       1.0  0.17351  0.05393  0.19242  1.0000
  C   C14       1.0  0.82652  0.94608  0.80758  1.0000
  C   C15       1.0  0.37033  0.00050  0.21866  1.0000
  C   C16       1.0  0.62969  0.99951  0.78134  1.0000
  C   C17       1.0  0.39057  0.91041  0.30322  1.0000
  C   C18       1.0  0.60946  0.08961  0.69677  1.0000
  C   C19       1.0  0.22681  0.86973  0.36295  1.0000
  C   C20       1.0  0.77323  0.13029  0.63705  1.0000
  C   C21       1.0  0.03265  0.92363  0.33535  1.0000
  C   C22       1.0  0.96738  0.07638  0.66465  1.0000
  C   C23       1.0  0.00463  0.01494  0.25072  1.0000
  C   C24       1.0  0.99540  0.98507  0.74928  1.0000
  Br  Br1       1.0  0.17437  0.35826  0.88925  1.0000
  Br  Br2       1.0  0.82564  0.64174  0.11074  1.0000
  Br  Br3       1.0  0.34225  0.76476  0.97109  1.0000
  Br  Br4       1.0  0.65777  0.23525  0.02891  1.0000
  N   N1        1.0  0.30033  0.56528  0.18896  1.0000
  N   N2        1.0  0.69967  0.43473  0.81105  1.0000
  N   N3        1.0  0.14844  0.14711  0.10553  1.0000
  N   N4        1.0  0.85158  0.85290  0.89447  1.0000
  F   F1        1.0  0.67729  0.24793  0.42696  1.0000
  F   F2        1.0  0.32265  0.75200  0.57304  1.0000
  F   F3        1.0  0.58322  0.85793  0.32893  1.0000
  F   F4        1.0  0.41682  0.14209  0.67106  1.0000
