data_image0
_chemical_formula_structural       Hg2H32C44Br4N8
_chemical_formula_sum              "Hg2 H32 C44 Br4 N8"
_cell_length_a       5.07566
_cell_length_b       7.54992
_cell_length_c       26.8379
_cell_angle_alpha    91.9822
_cell_angle_beta     90.0004
_cell_angle_gamma    89.9985

_space_group_name_H-M_alt    "P 1"
_space_group_IT_number       1

loop_
  _space_group_symop_operation_xyz
  'x, y, z'

loop_
  _atom_site_type_symbol
  _atom_site_label
  _atom_site_symmetry_multiplicity
  _atom_site_fract_x
  _atom_site_fract_y
  _atom_site_fract_z
  _atom_site_occupancy
  Hg  Hg1       1.0  0.61902  0.25003  0.25000  1.0000
  Hg  Hg2       1.0  0.38097  0.74999  0.75000  1.0000
  H   H1        1.0  0.88391  0.87551  0.29119  1.0000
  H   H2        1.0  0.88393  0.62454  0.20881  1.0000
  H   H3        1.0  0.11606  0.12453  0.70881  1.0000
  H   H4        1.0  0.11609  0.37547  0.79119  1.0000
  H   H5        1.0  0.21916  0.76754  0.35127  1.0000
  H   H6        1.0  0.21919  0.73248  0.14873  1.0000
  H   H7        1.0  0.78081  0.23246  0.64872  1.0000
  H   H8        1.0  0.78084  0.26752  0.85127  1.0000
  H   H9        1.0  0.46261  0.99257  0.40618  1.0000
  H   H10       1.0  0.46262  0.50743  0.09382  1.0000
  H   H11       1.0  0.53740  0.00742  0.59382  1.0000
  H   H12       1.0  0.53738  0.49256  0.90618  1.0000
  H   H13       1.0  0.98331  0.39636  0.34146  1.0000
  H   H14       1.0  0.98329  0.10368  0.15854  1.0000
  H   H15       1.0  0.01672  0.60366  0.65854  1.0000
  H   H16       1.0  0.01669  0.89632  0.84147  1.0000
  H   H17       1.0  0.28433  0.48348  0.40677  1.0000
  H   H18       1.0  0.28432  0.01652  0.09323  1.0000
  H   H19       1.0  0.71570  0.51651  0.59323  1.0000
  H   H20       1.0  0.71567  0.98347  0.90677  1.0000
  H   H21       1.0  0.82137  0.15165  0.49197  1.0000
  H   H22       1.0  0.82136  0.34835  0.00803  1.0000
  H   H23       1.0  0.17866  0.84834  0.50804  1.0000
  H   H24       1.0  0.17863  0.65165  0.99197  1.0000
  H   H25       1.0  0.13181  0.09209  0.56105  1.0000
  H   H26       1.0  0.13180  0.40792  0.93895  1.0000
  H   H27       1.0  0.86821  0.90789  0.43895  1.0000
  H   H28       1.0  0.86819  0.59209  0.06105  1.0000
  H   H29       1.0  0.39743  0.33626  0.59974  1.0000
  H   H30       1.0  0.39743  0.16373  0.90026  1.0000
  H   H31       1.0  0.60261  0.66372  0.40026  1.0000
  H   H32       1.0  0.60256  0.83628  0.09974  1.0000
  C   C1        1.0  0.98858  0.96739  0.31653  1.0000
  C   C2        1.0  0.98860  0.53263  0.18347  1.0000
  C   C3        1.0  0.01139  0.03262  0.68347  1.0000
  C   C4        1.0  0.01142  0.46738  0.81654  1.0000
  C   C5        1.0  0.17788  0.90874  0.34985  1.0000
  C   C6        1.0  0.17791  0.59128  0.15015  1.0000
  C   C7        1.0  0.82210  0.09126  0.65014  1.0000
  C   C8        1.0  0.82211  0.40873  0.84985  1.0000
  C   C9        1.0  0.31055  0.03210  0.38016  1.0000
  C   C10       1.0  0.31055  0.46791  0.11984  1.0000
  C   C11       1.0  0.68945  0.96789  0.61983  1.0000
  C   C12       1.0  0.68944  0.53210  0.88017  1.0000
  C   C13       1.0  0.24456  0.21200  0.37765  1.0000
  C   C14       1.0  0.24453  0.28801  0.12234  1.0000
  C   C15       1.0  0.75545  0.78799  0.62234  1.0000
  C   C16       1.0  0.75544  0.71200  0.87766  1.0000
  C   C17       1.0  0.04436  0.25840  0.34454  1.0000
  C   C18       1.0  0.04434  0.24162  0.15546  1.0000
  C   C19       1.0  0.95566  0.74160  0.65546  1.0000
  C   C20       1.0  0.95565  0.75838  0.84454  1.0000
  C   C21       1.0  0.37980  0.35233  0.40624  1.0000
  C   C22       1.0  0.37977  0.14768  0.09376  1.0000
  C   C23       1.0  0.62024  0.64767  0.59376  1.0000
  C   C24       1.0  0.62022  0.85232  0.90624  1.0000
  C   C25       1.0  0.74031  0.46694  0.44997  1.0000
  C   C26       1.0  0.74028  0.03305  0.05003  1.0000
  C   C27       1.0  0.25972  0.53304  0.55003  1.0000
  C   C28       1.0  0.25970  0.96695  0.94997  1.0000
  C   C29       1.0  0.92042  0.42947  0.48956  1.0000
  C   C30       1.0  0.92039  0.07052  0.01044  1.0000
  C   C31       1.0  0.07962  0.57052  0.51044  1.0000
  C   C32       1.0  0.07958  0.92947  0.98956  1.0000
  C   C33       1.0  0.94403  0.25693  0.50817  1.0000
  C   C34       1.0  0.94402  0.24306  0.99183  1.0000
  C   C35       1.0  0.05600  0.74305  0.49183  1.0000
  C   C36       1.0  0.05597  0.75694  0.00817  1.0000
  C   C37       1.0  0.11779  0.22466  0.54641  1.0000
  C   C38       1.0  0.11779  0.27534  0.95360  1.0000
  C   C39       1.0  0.88221  0.77533  0.45359  1.0000
  C   C40       1.0  0.88218  0.72466  0.04640  1.0000
  C   C41       1.0  0.27251  0.36197  0.56776  1.0000
  C   C42       1.0  0.27251  0.13802  0.93225  1.0000
  C   C43       1.0  0.72751  0.63801  0.43224  1.0000
  C   C44       1.0  0.72747  0.86198  0.06776  1.0000
  Br  Br1       1.0  0.51553  0.54872  0.29072  1.0000
  Br  Br2       1.0  0.51550  0.95132  0.20928  1.0000
  Br  Br3       1.0  0.48451  0.45131  0.70928  1.0000
  Br  Br4       1.0  0.48444  0.04870  0.79072  1.0000
  N   N1        1.0  0.92383  0.13960  0.31425  1.0000
  N   N2        1.0  0.92383  0.36043  0.18575  1.0000
  N   N3        1.0  0.07616  0.86042  0.68575  1.0000
  N   N4        1.0  0.07616  0.63958  0.81425  1.0000
  N   N5        1.0  0.60025  0.32482  0.42833  1.0000
  N   N6        1.0  0.60023  0.17517  0.07167  1.0000
  N   N7        1.0  0.39975  0.67516  0.57167  1.0000
  N   N8        1.0  0.39975  0.82483  0.92834  1.0000
