data_image0
_chemical_formula_structural       Cd4H48C48Br8N8F8
_chemical_formula_sum              "Cd4 H48 C48 Br8 N8 F8"
_cell_length_a       6.87204
_cell_length_b       13.2399
_cell_length_c       15.6304
_cell_angle_alpha    90.0006
_cell_angle_beta     89.9996
_cell_angle_gamma    89.9997

_space_group_name_H-M_alt    "P 1"
_space_group_IT_number       1

loop_
  _space_group_symop_operation_xyz
  'x, y, z'

loop_
  _atom_site_type_symbol
  _atom_site_label
  _atom_site_symmetry_multiplicity
  _atom_site_fract_x
  _atom_site_fract_y
  _atom_site_fract_z
  _atom_site_occupancy
  Cd  Cd1       1.0  0.24999  1.00000  0.05903  1.0000
  Cd  Cd2       1.0  0.25000  0.50000  0.94098  1.0000
  Cd  Cd3       1.0  0.75000  0.00000  0.94098  1.0000
  Cd  Cd4       1.0  0.75000  0.50000  0.05903  1.0000
  H   H1        1.0  0.94662  0.00065  0.41408  1.0000
  H   H2        1.0  0.94662  0.49935  0.58593  1.0000
  H   H3        1.0  0.55338  0.99935  0.41408  1.0000
  H   H4        1.0  0.55338  0.50065  0.58593  1.0000
  H   H5        1.0  0.05337  0.99936  0.58591  1.0000
  H   H6        1.0  0.05338  0.50065  0.41408  1.0000
  H   H7        1.0  0.44663  0.00065  0.58592  1.0000
  H   H8        1.0  0.44663  0.49935  0.41408  1.0000
  H   H9        1.0  0.34928  0.75299  0.39311  1.0000
  H   H10       1.0  0.34927  0.74700  0.60690  1.0000
  H   H11       1.0  0.15073  0.24700  0.39310  1.0000
  H   H12       1.0  0.15073  0.25300  0.60689  1.0000
  H   H13       1.0  0.65072  0.24700  0.60689  1.0000
  H   H14       1.0  0.65072  0.25300  0.39311  1.0000
  H   H15       1.0  0.84929  0.75300  0.60690  1.0000
  H   H16       1.0  0.84928  0.74700  0.39310  1.0000
  H   H17       1.0  0.30988  0.75443  0.23415  1.0000
  H   H18       1.0  0.30986  0.74557  0.76585  1.0000
  H   H19       1.0  0.19012  0.24557  0.23415  1.0000
  H   H20       1.0  0.19013  0.25443  0.76585  1.0000
  H   H21       1.0  0.69011  0.24557  0.76585  1.0000
  H   H22       1.0  0.69011  0.25444  0.23415  1.0000
  H   H23       1.0  0.80988  0.75443  0.76586  1.0000
  H   H24       1.0  0.80988  0.74557  0.23414  1.0000
  H   H25       1.0  0.91259  0.00469  0.25473  1.0000
  H   H26       1.0  0.91260  0.49530  0.74529  1.0000
  H   H27       1.0  0.58740  0.99530  0.25472  1.0000
  H   H28       1.0  0.58741  0.50469  0.74528  1.0000
  H   H29       1.0  0.08740  0.99531  0.74527  1.0000
  H   H30       1.0  0.08739  0.50470  0.25472  1.0000
  H   H31       1.0  0.41260  0.00470  0.74527  1.0000
  H   H32       1.0  0.41259  0.49530  0.25473  1.0000
  H   H33       1.0  0.94021  0.89446  0.12712  1.0000
  H   H34       1.0  0.94021  0.60554  0.87288  1.0000
  H   H35       1.0  0.55978  0.10554  0.12712  1.0000
  H   H36       1.0  0.55979  0.39446  0.87288  1.0000
  H   H37       1.0  0.05979  0.10554  0.87287  1.0000
  H   H38       1.0  0.05978  0.39446  0.12712  1.0000
  H   H39       1.0  0.44022  0.89447  0.87288  1.0000
  H   H40       1.0  0.44021  0.60554  0.12712  1.0000
  H   H41       1.0  0.11812  0.81136  0.11694  1.0000
  H   H42       1.0  0.11812  0.68864  0.88307  1.0000
  H   H43       1.0  0.38187  0.18865  0.11693  1.0000
  H   H44       1.0  0.38188  0.31135  0.88307  1.0000
  H   H45       1.0  0.88188  0.18864  0.88306  1.0000
  H   H46       1.0  0.88187  0.31136  0.11694  1.0000
  H   H47       1.0  0.61812  0.81136  0.88306  1.0000
  H   H48       1.0  0.61812  0.68864  0.11693  1.0000
  C   C1        1.0  0.02409  0.94685  0.37397  1.0000
  C   C2        1.0  0.02409  0.55314  0.62603  1.0000
  C   C3        1.0  0.47590  0.05316  0.37397  1.0000
  C   C4        1.0  0.47590  0.44685  0.62603  1.0000
  C   C5        1.0  0.97591  0.05316  0.62602  1.0000
  C   C6        1.0  0.97590  0.44685  0.37397  1.0000
  C   C7        1.0  0.52410  0.94684  0.62603  1.0000
  C   C8        1.0  0.52410  0.55316  0.37397  1.0000
  C   C9        1.0  0.25286  0.80687  0.36211  1.0000
  C   C10       1.0  0.25285  0.69312  0.63790  1.0000
  C   C11       1.0  0.24714  0.19313  0.36210  1.0000
  C   C12       1.0  0.24714  0.30687  0.63790  1.0000
  C   C13       1.0  0.74713  0.19313  0.63789  1.0000
  C   C14       1.0  0.74713  0.30687  0.36211  1.0000
  C   C15       1.0  0.75287  0.80686  0.63790  1.0000
  C   C16       1.0  0.75287  0.69313  0.36210  1.0000
  C   C17       1.0  0.23051  0.80841  0.27341  1.0000
  C   C18       1.0  0.23049  0.69158  0.72660  1.0000
  C   C19       1.0  0.26950  0.19157  0.27340  1.0000
  C   C20       1.0  0.26950  0.30842  0.72660  1.0000
  C   C21       1.0  0.76948  0.19158  0.72659  1.0000
  C   C22       1.0  0.76949  0.30843  0.27340  1.0000
  C   C23       1.0  0.73050  0.80843  0.72660  1.0000
  C   C24       1.0  0.73051  0.69157  0.27340  1.0000
  C   C25       1.0  0.10553  0.87821  0.23487  1.0000
  C   C26       1.0  0.10553  0.62178  0.76514  1.0000
  C   C27       1.0  0.39445  0.12179  0.23486  1.0000
  C   C28       1.0  0.39446  0.37821  0.76513  1.0000
  C   C29       1.0  0.89446  0.12179  0.76513  1.0000
  C   C30       1.0  0.89446  0.37822  0.23487  1.0000
  C   C31       1.0  0.60554  0.87821  0.76513  1.0000
  C   C32       1.0  0.60555  0.62179  0.23486  1.0000
  C   C33       1.0  0.00468  0.94819  0.28528  1.0000
  C   C34       1.0  0.00468  0.55180  0.71473  1.0000
  C   C35       1.0  0.49533  0.05179  0.28528  1.0000
  C   C36       1.0  0.49533  0.44821  0.71473  1.0000
  C   C37       1.0  0.99532  0.05180  0.71471  1.0000
  C   C38       1.0  0.99532  0.44820  0.28528  1.0000
  C   C39       1.0  0.50467  0.94821  0.71472  1.0000
  C   C40       1.0  0.50467  0.55180  0.28528  1.0000
  C   C41       1.0  0.14773  0.87575  0.41038  1.0000
  C   C42       1.0  0.14773  0.62424  0.58963  1.0000
  C   C43       1.0  0.35228  0.12424  0.41038  1.0000
  C   C44       1.0  0.35228  0.37576  0.58962  1.0000
  C   C45       1.0  0.85228  0.12425  0.58962  1.0000
  C   C46       1.0  0.85227  0.37576  0.41038  1.0000
  C   C47       1.0  0.64773  0.87576  0.58962  1.0000
  C   C48       1.0  0.64772  0.62424  0.41038  1.0000
  Br  Br1       1.0  0.58895  0.88087  0.07452  1.0000
  Br  Br2       1.0  0.58896  0.61913  0.92549  1.0000
  Br  Br3       1.0  0.91106  0.11915  0.07449  1.0000
  Br  Br4       1.0  0.91107  0.38085  0.92549  1.0000
  Br  Br5       1.0  0.41106  0.11914  0.92548  1.0000
  Br  Br6       1.0  0.41106  0.38085  0.07451  1.0000
  Br  Br7       1.0  0.08895  0.88087  0.92548  1.0000
  Br  Br8       1.0  0.08896  0.61913  0.07451  1.0000
  N   N1        1.0  0.08185  0.87939  0.14407  1.0000
  N   N2        1.0  0.08185  0.62061  0.85593  1.0000
  N   N3        1.0  0.41815  0.12061  0.14407  1.0000
  N   N4        1.0  0.41815  0.37939  0.85593  1.0000
  N   N5        1.0  0.91815  0.12061  0.85593  1.0000
  N   N6        1.0  0.91815  0.37939  0.14407  1.0000
  N   N7        1.0  0.58185  0.87940  0.85593  1.0000
  N   N8        1.0  0.58184  0.62061  0.14407  1.0000
  F   F1        1.0  0.16814  0.87426  0.49785  1.0000
  F   F2        1.0  0.16813  0.62573  0.50216  1.0000
  F   F3        1.0  0.33187  0.12573  0.49784  1.0000
  F   F4        1.0  0.33186  0.37427  0.50216  1.0000
  F   F5        1.0  0.83186  0.12574  0.50216  1.0000
  F   F6        1.0  0.83187  0.37427  0.49785  1.0000
  F   F7        1.0  0.66815  0.87426  0.50216  1.0000
  F   F8        1.0  0.66813  0.62574  0.49785  1.0000
