data_image0
_chemical_formula_structural       U4Ag4H36C48O32
_chemical_formula_sum              "U4 Ag4 H36 C48 O32"
_cell_length_a       8.17471
_cell_length_b       10.1733
_cell_length_c       18.3246
_cell_angle_alpha    82.6374
_cell_angle_beta     77.1205
_cell_angle_gamma    66.3218

_space_group_name_H-M_alt    "P 1"
_space_group_IT_number       1

loop_
  _space_group_symop_operation_xyz
  'x, y, z'

loop_
  _atom_site_type_symbol
  _atom_site_label
  _atom_site_symmetry_multiplicity
  _atom_site_fract_x
  _atom_site_fract_y
  _atom_site_fract_z
  _atom_site_occupancy
  U   U1        1.0  0.66424  0.70761  0.02497  1.0000
  U   U2        1.0  0.39705  0.79218  0.47505  1.0000
  U   U3        1.0  0.33575  0.29239  0.97503  1.0000
  U   U4        1.0  0.60295  0.20782  0.52494  1.0000
  Ag  Ag1       1.0  0.11044  0.00222  0.07313  1.0000
  Ag  Ag2       1.0  0.18585  0.49773  0.42683  1.0000
  Ag  Ag3       1.0  0.88956  0.99778  0.92688  1.0000
  Ag  Ag4       1.0  0.81415  0.50226  0.57317  1.0000
  H   H1        1.0  0.17060  0.86142  0.30336  1.0000
  H   H2        1.0  0.33549  0.63863  0.19661  1.0000
  H   H3        1.0  0.82940  0.13858  0.69664  1.0000
  H   H4        1.0  0.66451  0.36137  0.80339  1.0000
  H   H5        1.0  0.63450  0.05320  0.25118  1.0000
  H   H6        1.0  0.93872  0.44692  0.24880  1.0000
  H   H7        1.0  0.36551  0.94680  0.74882  1.0000
  H   H8        1.0  0.06129  0.55308  0.75120  1.0000
  H   H9        1.0  0.03852  0.22324  0.14473  1.0000
  H   H10       1.0  0.40647  0.27665  0.35516  1.0000
  H   H11       1.0  0.96148  0.77677  0.85527  1.0000
  H   H12       1.0  0.59353  0.72334  0.64484  1.0000
  H   H13       1.0  0.38391  0.98337  0.25475  1.0000
  H   H14       1.0  0.62217  0.51645  0.24531  1.0000
  H   H15       1.0  0.61609  0.01663  0.74525  1.0000
  H   H16       1.0  0.37783  0.48355  0.75469  1.0000
  H   H17       1.0  0.34680  0.11324  0.17936  1.0000
  H   H18       1.0  0.63917  0.38659  0.32068  1.0000
  H   H19       1.0  0.65320  0.88676  0.82064  1.0000
  H   H20       1.0  0.36084  0.61341  0.67932  1.0000
  H   H21       1.0  0.95477  0.75923  0.35820  1.0000
  H   H22       1.0  0.07211  0.74093  0.14182  1.0000
  H   H23       1.0  0.04524  0.24077  0.64180  1.0000
  H   H24       1.0  0.92789  0.25907  0.85819  1.0000
  H   H25       1.0  0.75926  0.80115  0.32108  1.0000
  H   H26       1.0  0.88146  0.69892  0.17890  1.0000
  H   H27       1.0  0.24075  0.19884  0.67892  1.0000
  H   H28       1.0  0.11854  0.30108  0.82110  1.0000
  H   H29       1.0  0.70201  0.35484  0.13507  1.0000
  H   H30       1.0  0.19147  0.14524  0.36489  1.0000
  H   H31       1.0  0.29799  0.64516  0.86494  1.0000
  H   H32       1.0  0.80853  0.85475  0.63511  1.0000
  H   H33       1.0  0.54680  0.27546  0.17626  1.0000
  H   H34       1.0  0.99815  0.22475  0.32369  1.0000
  H   H35       1.0  0.45320  0.72455  0.82375  1.0000
  H   H36       1.0  0.00185  0.77524  0.67631  1.0000
  C   C1        1.0  0.13160  0.03315  0.21837  1.0000
  C   C2        1.0  0.38314  0.46679  0.28153  1.0000
  C   C3        1.0  0.86840  0.96685  0.78163  1.0000
  C   C4        1.0  0.61686  0.53321  0.71847  1.0000
  C   C5        1.0  0.07472  0.94043  0.27103  1.0000
  C   C6        1.0  0.28618  0.55965  0.22892  1.0000
  C   C7        1.0  0.92528  0.05957  0.72897  1.0000
  C   C8        1.0  0.71382  0.44035  0.77109  1.0000
  C   C9        1.0  0.89613  0.94841  0.28405  1.0000
  C   C10       1.0  0.12850  0.55173  0.21593  1.0000
  C   C11       1.0  0.10388  0.05159  0.71595  1.0000
  C   C12       1.0  0.87150  0.44827  0.78408  1.0000
  C   C13       1.0  0.77290  0.04908  0.24230  1.0000
  C   C14       1.0  0.06419  0.45104  0.25763  1.0000
  C   C15       1.0  0.22710  0.95092  0.75770  1.0000
  C   C16       1.0  0.93581  0.54896  0.74236  1.0000
  C   C17       1.0  0.82213  0.14535  0.18973  1.0000
  C   C18       1.0  0.15720  0.35466  0.31016  1.0000
  C   C19       1.0  0.17787  0.85465  0.81027  1.0000
  C   C20       1.0  0.84281  0.64534  0.68984  1.0000
  C   C21       1.0  0.00327  0.13816  0.17854  1.0000
  C   C22       1.0  0.32002  0.36173  0.32131  1.0000
  C   C23       1.0  0.99673  0.86185  0.82146  1.0000
  C   C24       1.0  0.67998  0.63827  0.67869  1.0000
  C   C25       1.0  0.32895  0.01366  0.20270  1.0000
  C   C26       1.0  0.54526  0.48621  0.29731  1.0000
  C   C27       1.0  0.67105  0.98634  0.79730  1.0000
  C   C28       1.0  0.45474  0.51379  0.70269  1.0000
  C   C29       1.0  0.45102  0.89809  0.14698  1.0000
  C   C30       1.0  0.49607  0.60172  0.35306  1.0000
  C   C31       1.0  0.54898  0.10190  0.85302  1.0000
  C   C32       1.0  0.50394  0.39828  0.64694  1.0000
  C   C33       1.0  0.83672  0.85032  0.34205  1.0000
  C   C34       1.0  0.02903  0.64980  0.15793  1.0000
  C   C35       1.0  0.16329  0.14967  0.65795  1.0000
  C   C36       1.0  0.97096  0.35021  0.84208  1.0000
  C   C37       1.0  0.72042  0.92091  0.41432  1.0000
  C   C38       1.0  0.05566  0.57915  0.08567  1.0000
  C   C39       1.0  0.27958  0.07908  0.58568  1.0000
  C   C40       1.0  0.94434  0.42086  0.91433  1.0000
  C   C41       1.0  0.68639  0.25100  0.14529  1.0000
  C   C42       1.0  0.08245  0.24916  0.35462  1.0000
  C   C43       1.0  0.31361  0.74900  0.85471  1.0000
  C   C44       1.0  0.91755  0.75084  0.64537  1.0000
  C   C45       1.0  0.69342  0.20720  0.06768  1.0000
  C   C46       1.0  0.96822  0.29304  0.43224  1.0000
  C   C47       1.0  0.30657  0.79281  0.93232  1.0000
  C   C48       1.0  0.03179  0.70696  0.56776  1.0000
  O   O1        1.0  0.66492  0.55730  0.09000  1.0000
  O   O2        1.0  0.31243  0.94248  0.41003  1.0000
  O   O3        1.0  0.33508  0.44270  0.90999  1.0000
  O   O4        1.0  0.68757  0.05751  0.58997  1.0000
  O   O5        1.0  0.67318  0.86143  0.96366  1.0000
  O   O6        1.0  0.49854  0.63837  0.53636  1.0000
  O   O7        1.0  0.32680  0.13859  0.03634  1.0000
  O   O8        1.0  0.50146  0.36162  0.46364  1.0000
  O   O9        1.0  0.38047  0.84098  0.11013  1.0000
  O   O10       1.0  0.33151  0.65895  0.38981  1.0000
  O   O11       1.0  0.61953  0.15902  0.88988  1.0000
  O   O12       1.0  0.66850  0.34106  0.61019  1.0000
  O   O13       1.0  0.62257  0.85716  0.13512  1.0000
  O   O14       1.0  0.61484  0.64256  0.36502  1.0000
  O   O15       1.0  0.37743  0.14283  0.86489  1.0000
  O   O16       1.0  0.38517  0.35743  0.63499  1.0000
  O   O17       1.0  0.65092  0.84449  0.46187  1.0000
  O   O18       1.0  0.95722  0.65548  0.03812  1.0000
  O   O19       1.0  0.34909  0.15551  0.53813  1.0000
  O   O20       1.0  0.04278  0.34453  0.96188  1.0000
  O   O21       1.0  0.69837  0.04761  0.42523  1.0000
  O   O22       1.0  0.17133  0.45251  0.07475  1.0000
  O   O23       1.0  0.30163  0.95238  0.57477  1.0000
  O   O24       1.0  0.82866  0.54750  0.92525  1.0000
  O   O25       1.0  0.56056  0.28434  0.03469  1.0000
  O   O26       1.0  0.87904  0.21619  0.46518  1.0000
  O   O27       1.0  0.43944  0.71566  0.96531  1.0000
  O   O28       1.0  0.12096  0.78381  0.53482  1.0000
  O   O29       1.0  0.82744  0.10202  0.03774  1.0000
  O   O30       1.0  0.96758  0.39797  0.46224  1.0000
  O   O31       1.0  0.17256  0.89799  0.96226  1.0000
  O   O32       1.0  0.03242  0.60203  0.53776  1.0000
