data_image0
_chemical_formula_structural       Ag4H24C24O14
_chemical_formula_sum              "Ag4 H24 C24 O14"
_cell_length_a       4.58959
_cell_length_b       11.7385
_cell_length_c       12.9499
_cell_angle_alpha    72.3831
_cell_angle_beta     85.668
_cell_angle_gamma    84.1379

_space_group_name_H-M_alt    "P 1"
_space_group_IT_number       1

loop_
  _space_group_symop_operation_xyz
  'x, y, z'

loop_
  _atom_site_type_symbol
  _atom_site_label
  _atom_site_symmetry_multiplicity
  _atom_site_fract_x
  _atom_site_fract_y
  _atom_site_fract_z
  _atom_site_occupancy
  Ag  Ag1       1.0  0.61898  0.83745  0.08467  1.0000
  Ag  Ag2       1.0  0.38102  0.16256  0.91533  1.0000
  Ag  Ag3       1.0  0.34882  0.61238  0.97579  1.0000
  Ag  Ag4       1.0  0.65119  0.38762  0.02421  1.0000
  H   H1        1.0  0.55123  0.77697  0.72004  1.0000
  H   H2        1.0  0.44877  0.22303  0.27996  1.0000
  H   H3        1.0  0.84302  0.65128  0.82324  1.0000
  H   H4        1.0  0.15697  0.34872  0.17676  1.0000
  H   H5        1.0  0.81537  0.76509  0.86524  1.0000
  H   H6        1.0  0.18464  0.23491  0.13477  1.0000
  H   H7        1.0  0.12741  0.79254  0.17631  1.0000
  H   H8        1.0  0.87260  0.20746  0.82369  1.0000
  H   H9        1.0  0.55654  0.97149  0.36888  1.0000
  H   H10       1.0  0.44347  0.02851  0.63112  1.0000
  H   H11       1.0  0.50807  0.59479  0.41168  1.0000
  H   H12       1.0  0.49194  0.40521  0.58832  1.0000
  H   H13       1.0  0.90612  0.49089  0.32752  1.0000
  H   H14       1.0  0.09389  0.50910  0.67248  1.0000
  H   H15       1.0  0.16441  0.57176  0.23485  1.0000
  H   H16       1.0  0.83559  0.42823  0.76515  1.0000
  H   H17       1.0  0.97349  0.06809  0.26225  1.0000
  H   H18       1.0  0.02652  0.93191  0.73775  1.0000
  H   H19       1.0  0.22022  0.99329  0.18860  1.0000
  H   H20       1.0  0.77978  0.00671  0.81139  1.0000
  H   H21       1.0  0.16666  0.86552  0.48470  1.0000
  H   H22       1.0  0.83334  0.13448  0.51530  1.0000
  H   H23       1.0  0.11820  0.71427  0.49275  1.0000
  H   H24       1.0  0.88180  0.28573  0.50724  1.0000
  C   C1        1.0  0.81777  0.68244  0.28718  1.0000
  C   C2        1.0  0.18222  0.31756  0.71282  1.0000
  C   C3        1.0  0.93510  0.79263  0.23215  1.0000
  C   C4        1.0  0.06490  0.20737  0.76785  1.0000
  C   C5        1.0  0.84404  0.89757  0.26159  1.0000
  C   C6        1.0  0.15596  0.10243  0.73841  1.0000
  C   C7        1.0  0.62648  0.89123  0.34455  1.0000
  C   C8        1.0  0.37352  0.10877  0.65545  1.0000
  C   C9        1.0  0.50335  0.78325  0.39825  1.0000
  C   C10       1.0  0.49666  0.21675  0.60175  1.0000
  C   C11       1.0  0.60046  0.67948  0.36929  1.0000
  C   C12       1.0  0.39955  0.32052  0.63071  1.0000
  C   C13       1.0  0.92914  0.57116  0.25785  1.0000
  C   C14       1.0  0.07086  0.42884  0.74214  1.0000
  C   C15       1.0  0.77854  0.54969  0.16551  1.0000
  C   C16       1.0  0.22146  0.45031  0.83449  1.0000
  C   C17       1.0  0.98526  0.01190  0.20750  1.0000
  C   C18       1.0  0.01474  0.98811  0.79250  1.0000
  C   C19       1.0  0.85890  0.09166  0.10116  1.0000
  C   C20       1.0  0.14110  0.90834  0.89885  1.0000
  C   C21       1.0  0.28128  0.77715  0.49157  1.0000
  C   C22       1.0  0.71872  0.22285  0.50842  1.0000
  C   C23       1.0  0.43758  0.73092  0.59772  1.0000
  C   C24       1.0  0.56242  0.26908  0.40228  1.0000
  O   O1        1.0  0.57050  0.62425  0.11961  1.0000
  O   O2        1.0  0.42950  0.37575  0.88039  1.0000
  O   O3        1.0  0.87198  0.45589  0.13928  1.0000
  O   O4        1.0  0.12802  0.54411  0.86072  1.0000
  O   O5        1.0  0.65748  0.05641  0.05944  1.0000
  O   O6        1.0  0.34251  0.94360  0.94057  1.0000
  O   O7        1.0  0.96969  0.19221  0.05905  1.0000
  O   O8        1.0  0.03031  0.80780  0.94096  1.0000
  O   O9        1.0  0.55762  0.62881  0.62999  1.0000
  O   O10       1.0  0.44237  0.37118  0.37001  1.0000
  O   O11       1.0  0.43721  0.81337  0.64979  1.0000
  O   O12       1.0  0.56278  0.18663  0.35020  1.0000
  O   O13       1.0  0.70524  0.72174  0.82632  1.0000
  O   O14       1.0  0.29476  0.27826  0.17368  1.0000
