data_image0
_chemical_formula_structural       Tb4P4H44C36S4N4O36
_chemical_formula_sum              "Tb4 P4 H44 C36 S4 N4 O36"
_cell_length_a       6.73699
_cell_length_b       13.3798
_cell_length_c       15.0043
_cell_angle_alpha    90.5795
_cell_angle_beta     90
_cell_angle_gamma    90

_space_group_name_H-M_alt    "P 1"
_space_group_IT_number       1

loop_
  _space_group_symop_operation_xyz
  'x, y, z'

loop_
  _atom_site_type_symbol
  _atom_site_label
  _atom_site_symmetry_multiplicity
  _atom_site_fract_x
  _atom_site_fract_y
  _atom_site_fract_z
  _atom_site_occupancy
  Tb  Tb1       1.0  0.87506  0.54816  0.61927  1.0000
  Tb  Tb2       1.0  0.37506  0.45184  0.88073  1.0000
  Tb  Tb3       1.0  0.12494  0.45184  0.38073  1.0000
  Tb  Tb4       1.0  0.62493  0.54816  0.11927  1.0000
  P   P1        1.0  0.86891  0.37751  0.80314  1.0000
  P   P2        1.0  0.36891  0.62249  0.69687  1.0000
  P   P3        1.0  0.13108  0.62249  0.19686  1.0000
  P   P4        1.0  0.63109  0.37751  0.30314  1.0000
  H   H1        1.0  0.85246  0.22482  0.94300  1.0000
  H   H2        1.0  0.35246  0.77518  0.55700  1.0000
  H   H3        1.0  0.14753  0.77517  0.05699  1.0000
  H   H4        1.0  0.64754  0.22482  0.44300  1.0000
  H   H5        1.0  0.85390  0.03815  0.93621  1.0000
  H   H6        1.0  0.35390  0.96185  0.56380  1.0000
  H   H7        1.0  0.14611  0.96185  0.06379  1.0000
  H   H8        1.0  0.64611  0.03815  0.43621  1.0000
  H   H9        1.0  0.85142  0.87932  0.84282  1.0000
  H   H10       1.0  0.35141  0.12068  0.65718  1.0000
  H   H11       1.0  0.14859  0.12068  0.15718  1.0000
  H   H12       1.0  0.64858  0.87932  0.34282  1.0000
  H   H13       1.0  0.85728  0.80021  0.69264  1.0000
  H   H14       1.0  0.35728  0.19979  0.80736  1.0000
  H   H15       1.0  0.14272  0.19979  0.30735  1.0000
  H   H16       1.0  0.64272  0.80021  0.19264  1.0000
  H   H17       1.0  0.86168  0.90266  0.55780  1.0000
  H   H18       1.0  0.36169  0.09735  0.94220  1.0000
  H   H19       1.0  0.13832  0.09734  0.44220  1.0000
  H   H20       1.0  0.63832  0.90266  0.05780  1.0000
  H   H21       1.0  0.86386  0.09092  0.56957  1.0000
  H   H22       1.0  0.36387  0.90909  0.93043  1.0000
  H   H23       1.0  0.13613  0.90908  0.43043  1.0000
  H   H24       1.0  0.63614  0.09092  0.06957  1.0000
  H   H25       1.0  0.86327  0.23233  0.66189  1.0000
  H   H26       1.0  0.36327  0.76767  0.83811  1.0000
  H   H27       1.0  0.13673  0.76767  0.33811  1.0000
  H   H28       1.0  0.63674  0.23233  0.16189  1.0000
  H   H29       1.0  0.05529  0.61085  0.79215  1.0000
  H   H30       1.0  0.55529  0.38915  0.70785  1.0000
  H   H31       1.0  0.94471  0.38915  0.20785  1.0000
  H   H32       1.0  0.44470  0.61085  0.29215  1.0000
  H   H33       1.0  0.83696  0.65196  0.81029  1.0000
  H   H34       1.0  0.33696  0.34804  0.68971  1.0000
  H   H35       1.0  0.16304  0.34804  0.18971  1.0000
  H   H36       1.0  0.66304  0.65196  0.31029  1.0000
  H   H37       1.0  0.70920  0.36825  0.55031  1.0000
  H   H38       1.0  0.20920  0.63175  0.94969  1.0000
  H   H39       1.0  0.29080  0.63175  0.44970  1.0000
  H   H40       1.0  0.79080  0.36825  0.05031  1.0000
  H   H41       1.0  0.66393  0.44373  0.47622  1.0000
  H   H42       1.0  0.16393  0.55627  0.02378  1.0000
  H   H43       1.0  0.33607  0.55627  0.52378  1.0000
  H   H44       1.0  0.83607  0.44373  0.97622  1.0000
  C   C1        1.0  0.85830  0.24030  0.80025  1.0000
  C   C2        1.0  0.35830  0.75970  0.69975  1.0000
  C   C3        1.0  0.14169  0.75969  0.19975  1.0000
  C   C4        1.0  0.64169  0.24030  0.30025  1.0000
  C   C5        1.0  0.85692  0.18488  0.87958  1.0000
  C   C6        1.0  0.35691  0.81512  0.62042  1.0000
  C   C7        1.0  0.14308  0.81512  0.12041  1.0000
  C   C8        1.0  0.64308  0.18488  0.37958  1.0000
  C   C9        1.0  0.85597  0.08195  0.87525  1.0000
  C   C10       1.0  0.35597  0.91805  0.62475  1.0000
  C   C11       1.0  0.14403  0.91804  0.12475  1.0000
  C   C12       1.0  0.64403  0.08196  0.37525  1.0000
  C   C13       1.0  0.85687  0.03099  0.79218  1.0000
  C   C14       1.0  0.35687  0.96901  0.70783  1.0000
  C   C15       1.0  0.14314  0.96900  0.20782  1.0000
  C   C16       1.0  0.64313  0.03100  0.29218  1.0000
  C   C17       1.0  0.85607  0.92546  0.78330  1.0000
  C   C18       1.0  0.35607  0.07454  0.71670  1.0000
  C   C19       1.0  0.14394  0.07454  0.21669  1.0000
  C   C20       1.0  0.64394  0.92546  0.28330  1.0000
  C   C21       1.0  0.85754  0.88123  0.69992  1.0000
  C   C22       1.0  0.35754  0.11877  0.80008  1.0000
  C   C23       1.0  0.14246  0.11877  0.30007  1.0000
  C   C24       1.0  0.64246  0.88124  0.19993  1.0000
  C   C25       1.0  0.86003  0.94059  0.62243  1.0000
  C   C26       1.0  0.36004  0.05942  0.87758  1.0000
  C   C27       1.0  0.13997  0.05941  0.37757  1.0000
  C   C28       1.0  0.63997  0.94059  0.12242  1.0000
  C   C29       1.0  0.86034  0.04366  0.62822  1.0000
  C   C30       1.0  0.36034  0.95634  0.87178  1.0000
  C   C31       1.0  0.13966  0.95634  0.37178  1.0000
  C   C32       1.0  0.63967  0.04366  0.12822  1.0000
  C   C33       1.0  0.85845  0.08956  0.71335  1.0000
  C   C34       1.0  0.35846  0.91045  0.78665  1.0000
  C   C35       1.0  0.14155  0.91044  0.28664  1.0000
  C   C36       1.0  0.64155  0.08955  0.21335  1.0000
  S   S1        1.0  0.91319  0.69268  0.46144  1.0000
  S   S2        1.0  0.41318  0.30732  0.03856  1.0000
  S   S3        1.0  0.08682  0.30732  0.53856  1.0000
  S   S4        1.0  0.58681  0.69268  0.96144  1.0000
  N   N1        1.0  0.85832  0.19177  0.72192  1.0000
  N   N2        1.0  0.35832  0.80823  0.77808  1.0000
  N   N3        1.0  0.14167  0.80823  0.27808  1.0000
  N   N4        1.0  0.64168  0.19177  0.22192  1.0000
  O   O1        1.0  0.82612  0.40979  0.70735  1.0000
  O   O2        1.0  0.32612  0.59021  0.79265  1.0000
  O   O3        1.0  0.17387  0.59021  0.29265  1.0000
  O   O4        1.0  0.67388  0.40979  0.20735  1.0000
  O   O5        1.0  0.70833  0.40968  0.86929  1.0000
  O   O6        1.0  0.20833  0.59032  0.63071  1.0000
  O   O7        1.0  0.29166  0.59032  0.13071  1.0000
  O   O8        1.0  0.79167  0.40967  0.36929  1.0000
  O   O9        1.0  0.07676  0.39999  0.83517  1.0000
  O   O10       1.0  0.57676  0.60001  0.66483  1.0000
  O   O11       1.0  0.92323  0.60001  0.16482  1.0000
  O   O12       1.0  0.42324  0.39999  0.33518  1.0000
  O   O13       1.0  0.84723  0.71570  0.55409  1.0000
  O   O14       1.0  0.34722  0.28430  0.94591  1.0000
  O   O15       1.0  0.15278  0.28430  0.44591  1.0000
  O   O16       1.0  0.65277  0.71570  0.05410  1.0000
  O   O17       1.0  0.92672  0.57929  0.45937  1.0000
  O   O18       1.0  0.42672  0.42071  0.04063  1.0000
  O   O19       1.0  0.07328  0.42071  0.54063  1.0000
  O   O20       1.0  0.57328  0.57929  0.95937  1.0000
  O   O21       1.0  0.11572  0.73516  0.44528  1.0000
  O   O22       1.0  0.61572  0.26484  0.05472  1.0000
  O   O23       1.0  0.88429  0.26484  0.55472  1.0000
  O   O24       1.0  0.38428  0.73516  0.94529  1.0000
  O   O25       1.0  0.77396  0.72844  0.39366  1.0000
  O   O26       1.0  0.27396  0.27156  0.10634  1.0000
  O   O27       1.0  0.22604  0.27156  0.60634  1.0000
  O   O28       1.0  0.72604  0.72844  0.89366  1.0000
  O   O29       1.0  0.92639  0.62483  0.76355  1.0000
  O   O30       1.0  0.42639  0.37517  0.73645  1.0000
  O   O31       1.0  0.07361  0.37517  0.23645  1.0000
  O   O32       1.0  0.57361  0.62483  0.26355  1.0000
  O   O33       1.0  0.64890  0.43486  0.54124  1.0000
  O   O34       1.0  0.14889  0.56514  0.95876  1.0000
  O   O35       1.0  0.35111  0.56514  0.45876  1.0000
  O   O36       1.0  0.85110  0.43486  0.04124  1.0000
