data_image0
_chemical_formula_structural       Gd2P2H22C18S2N2O18
_chemical_formula_sum              "Gd2 P2 H22 C18 S2 N2 O18"
_cell_length_a       6.78689
_cell_length_b       7.54442
_cell_length_c       13.3563
_cell_angle_alpha    90.6862
_cell_angle_beta     93.2279
_cell_angle_gamma    101.867

_space_group_name_H-M_alt    "P 1"
_space_group_IT_number       1

loop_
  _space_group_symop_operation_xyz
  'x, y, z'

loop_
  _atom_site_type_symbol
  _atom_site_label
  _atom_site_symmetry_multiplicity
  _atom_site_fract_x
  _atom_site_fract_y
  _atom_site_fract_z
  _atom_site_occupancy
  Gd  Gd1       1.0  0.28510  0.76857  0.45497  1.0000
  Gd  Gd2       1.0  0.71490  0.23143  0.54502  1.0000
  P   P1        1.0  0.25015  0.38519  0.62225  1.0000
  P   P2        1.0  0.74985  0.61481  0.37775  1.0000
  H   H1        1.0  0.16140  0.10604  0.77580  1.0000
  H   H2        1.0  0.83860  0.89397  0.22420  1.0000
  H   H3        1.0  0.16387  0.12614  0.96281  1.0000
  H   H4        1.0  0.83613  0.87386  0.03719  1.0000
  H   H5        1.0  0.21032  0.32022  0.12099  1.0000
  H   H6        1.0  0.78967  0.67977  0.87901  1.0000
  H   H7        1.0  0.27388  0.62776  0.19971  1.0000
  H   H8        1.0  0.72611  0.37224  0.80029  1.0000
  H   H9        1.0  0.33649  0.89878  0.09653  1.0000
  H   H10       1.0  0.66351  0.10122  0.90348  1.0000
  H   H11       1.0  0.33802  0.86980  0.90839  1.0000
  H   H12       1.0  0.66198  0.13020  0.09161  1.0000
  H   H13       1.0  0.31276  0.67608  0.76741  1.0000
  H   H14       1.0  0.68725  0.32393  0.23259  1.0000
  H   H15       1.0  0.22878  0.38880  0.34307  1.0000
  H   H16       1.0  0.77122  0.61120  0.65693  1.0000
  H   H17       1.0  0.02255  0.41787  0.38385  1.0000
  H   H18       1.0  0.97745  0.58214  0.61615  1.0000
  H   H19       1.0  0.22803  0.91899  0.64657  1.0000
  H   H20       1.0  0.77197  0.08100  0.35343  1.0000
  H   H21       1.0  0.10730  0.03777  0.57922  1.0000
  H   H22       1.0  0.89270  0.96222  0.42078  1.0000
  C   C1        1.0  0.23808  0.39538  0.75956  1.0000
  C   C2        1.0  0.76193  0.60463  0.24044  1.0000
  C   C3        1.0  0.19404  0.23628  0.81545  1.0000
  C   C4        1.0  0.80597  0.76372  0.18455  1.0000
  C   C5        1.0  0.19454  0.24838  0.91848  1.0000
  C   C6        1.0  0.80546  0.75162  0.08152  1.0000
  C   C7        1.0  0.23373  0.41896  0.96897  1.0000
  C   C8        1.0  0.76627  0.58105  0.03103  1.0000
  C   C9        1.0  0.23568  0.43986  0.07458  1.0000
  C   C10       1.0  0.76432  0.56014  0.92542  1.0000
  C   C11       1.0  0.27291  0.61050  0.11867  1.0000
  C   C12       1.0  0.72709  0.38950  0.88133  1.0000
  C   C13       1.0  0.30846  0.76612  0.05892  1.0000
  C   C14       1.0  0.69154  0.23388  0.94108  1.0000
  C   C15       1.0  0.30884  0.75165  0.95569  1.0000
  C   C16       1.0  0.69117  0.24835  0.04431  1.0000
  C   C17       1.0  0.27236  0.57728  0.91000  1.0000
  C   C18       1.0  0.72764  0.42272  0.09000  1.0000
  S   S1        1.0  0.39823  0.08154  0.30840  1.0000
  S   S2        1.0  0.60177  0.91846  0.69160  1.0000
  N   N1        1.0  0.27388  0.55632  0.80779  1.0000
  N   N2        1.0  0.72612  0.44368  0.19221  1.0000
  O   O1        1.0  0.24615  0.57804  0.58956  1.0000
  O   O2        1.0  0.75385  0.42196  0.41044  1.0000
  O   O3        1.0  0.44254  0.32050  0.60516  1.0000
  O   O4        1.0  0.55746  0.67950  0.39484  1.0000
  O   O5        1.0  0.05922  0.24842  0.58629  1.0000
  O   O6        1.0  0.94078  0.75158  0.41371  1.0000
  O   O7        1.0  0.27124  0.89846  0.28631  1.0000
  O   O8        1.0  0.72876  0.10154  0.71369  1.0000
  O   O9        1.0  0.43439  0.08793  0.42202  1.0000
  O   O10       1.0  0.56561  0.91207  0.57798  1.0000
  O   O11       1.0  0.29952  0.22725  0.27387  1.0000
  O   O12       1.0  0.70047  0.77275  0.72612  1.0000
  O   O13       1.0  0.59653  0.09967  0.26131  1.0000
  O   O14       1.0  0.40347  0.90033  0.73869  1.0000
  O   O15       1.0  0.15910  0.48200  0.36916  1.0000
  O   O16       1.0  0.84090  0.51800  0.63084  1.0000
  O   O17       1.0  0.13864  0.91459  0.58470  1.0000
  O   O18       1.0  0.86136  0.08541  0.41530  1.0000
