data_image0
_chemical_formula_structural       Gd4P4H44C36S4N4O36
_chemical_formula_sum              "Gd4 P4 H44 C36 S4 N4 O36"
_cell_length_a       6.75272
_cell_length_b       13.3419
_cell_length_c       15.0411
_cell_angle_alpha    90.5198
_cell_angle_beta     90
_cell_angle_gamma    90

_space_group_name_H-M_alt    "P 1"
_space_group_IT_number       1

loop_
  _space_group_symop_operation_xyz
  'x, y, z'

loop_
  _atom_site_type_symbol
  _atom_site_label
  _atom_site_symmetry_multiplicity
  _atom_site_fract_x
  _atom_site_fract_y
  _atom_site_fract_z
  _atom_site_occupancy
  Gd  Gd1       1.0  0.87265  0.54800  0.61925  1.0000
  Gd  Gd2       1.0  0.37265  0.45200  0.88075  1.0000
  Gd  Gd3       1.0  0.12735  0.45200  0.38075  1.0000
  Gd  Gd4       1.0  0.62735  0.54800  0.11925  1.0000
  P   P1        1.0  0.86634  0.37555  0.80329  1.0000
  P   P2        1.0  0.36634  0.62445  0.69671  1.0000
  P   P3        1.0  0.13366  0.62445  0.19671  1.0000
  P   P4        1.0  0.63366  0.37555  0.30329  1.0000
  H   H1        1.0  0.84895  0.22196  0.94265  1.0000
  H   H2        1.0  0.34896  0.77804  0.55735  1.0000
  H   H3        1.0  0.15104  0.77804  0.05735  1.0000
  H   H4        1.0  0.65105  0.22196  0.44265  1.0000
  H   H5        1.0  0.85240  0.03462  0.93561  1.0000
  H   H6        1.0  0.35240  0.96538  0.56439  1.0000
  H   H7        1.0  0.14760  0.96538  0.06439  1.0000
  H   H8        1.0  0.64760  0.03462  0.43561  1.0000
  H   H9        1.0  0.85184  0.87569  0.84237  1.0000
  H   H10       1.0  0.35184  0.12431  0.65763  1.0000
  H   H11       1.0  0.14816  0.12431  0.15763  1.0000
  H   H12       1.0  0.64816  0.87569  0.34237  1.0000
  H   H13       1.0  0.85734  0.79669  0.69270  1.0000
  H   H14       1.0  0.35734  0.20331  0.80730  1.0000
  H   H15       1.0  0.14266  0.20331  0.30730  1.0000
  H   H16       1.0  0.64266  0.79669  0.19270  1.0000
  H   H17       1.0  0.86250  0.89954  0.55820  1.0000
  H   H18       1.0  0.36249  0.10046  0.94180  1.0000
  H   H19       1.0  0.13751  0.10046  0.44180  1.0000
  H   H20       1.0  0.63750  0.89954  0.05820  1.0000
  H   H21       1.0  0.86582  0.08841  0.56999  1.0000
  H   H22       1.0  0.36582  0.91159  0.93001  1.0000
  H   H23       1.0  0.13419  0.91160  0.43001  1.0000
  H   H24       1.0  0.63418  0.08840  0.06999  1.0000
  H   H25       1.0  0.86535  0.23025  0.66238  1.0000
  H   H26       1.0  0.36535  0.76975  0.83762  1.0000
  H   H27       1.0  0.13465  0.76975  0.33762  1.0000
  H   H28       1.0  0.63465  0.23025  0.16238  1.0000
  H   H29       1.0  0.83576  0.65124  0.81074  1.0000
  H   H30       1.0  0.33576  0.34876  0.68927  1.0000
  H   H31       1.0  0.16424  0.34876  0.18927  1.0000
  H   H32       1.0  0.66424  0.65124  0.31073  1.0000
  H   H33       1.0  0.05406  0.61070  0.79156  1.0000
  H   H34       1.0  0.55406  0.38930  0.70844  1.0000
  H   H35       1.0  0.94594  0.38930  0.20844  1.0000
  H   H36       1.0  0.44593  0.61070  0.29156  1.0000
  H   H37       1.0  0.70940  0.36626  0.55055  1.0000
  H   H38       1.0  0.20940  0.63374  0.94945  1.0000
  H   H39       1.0  0.29060  0.63374  0.44945  1.0000
  H   H40       1.0  0.79060  0.36626  0.05055  1.0000
  H   H41       1.0  0.66583  0.44095  0.47577  1.0000
  H   H42       1.0  0.16583  0.55905  0.02423  1.0000
  H   H43       1.0  0.33416  0.55905  0.52423  1.0000
  H   H44       1.0  0.83416  0.44095  0.97577  1.0000
  C   C1        1.0  0.85782  0.23783  0.80031  1.0000
  C   C2        1.0  0.35782  0.76217  0.69969  1.0000
  C   C3        1.0  0.14218  0.76217  0.19969  1.0000
  C   C4        1.0  0.64218  0.23783  0.30031  1.0000
  C   C5        1.0  0.85525  0.18205  0.87937  1.0000
  C   C6        1.0  0.35525  0.81795  0.62063  1.0000
  C   C7        1.0  0.14475  0.81795  0.12063  1.0000
  C   C8        1.0  0.64476  0.18205  0.37938  1.0000
  C   C9        1.0  0.85531  0.07882  0.87492  1.0000
  C   C10       1.0  0.35531  0.92118  0.62508  1.0000
  C   C11       1.0  0.14469  0.92118  0.12508  1.0000
  C   C12       1.0  0.64469  0.07882  0.37492  1.0000
  C   C13       1.0  0.85761  0.02791  0.79199  1.0000
  C   C14       1.0  0.35761  0.97209  0.70800  1.0000
  C   C15       1.0  0.14239  0.97209  0.20800  1.0000
  C   C16       1.0  0.64239  0.02791  0.29200  1.0000
  C   C17       1.0  0.85680  0.92208  0.78308  1.0000
  C   C18       1.0  0.35680  0.07792  0.71692  1.0000
  C   C19       1.0  0.14321  0.07792  0.21692  1.0000
  C   C20       1.0  0.64320  0.92208  0.28308  1.0000
  C   C21       1.0  0.85812  0.87787  0.69991  1.0000
  C   C22       1.0  0.35812  0.12213  0.80009  1.0000
  C   C23       1.0  0.14189  0.12213  0.30009  1.0000
  C   C24       1.0  0.64188  0.87787  0.19991  1.0000
  C   C25       1.0  0.86097  0.93753  0.62265  1.0000
  C   C26       1.0  0.36097  0.06247  0.87735  1.0000
  C   C27       1.0  0.13904  0.06247  0.37735  1.0000
  C   C28       1.0  0.63903  0.93753  0.12265  1.0000
  C   C29       1.0  0.86188  0.04089  0.62846  1.0000
  C   C30       1.0  0.36188  0.95911  0.87153  1.0000
  C   C31       1.0  0.13813  0.95912  0.37153  1.0000
  C   C32       1.0  0.63812  0.04089  0.12847  1.0000
  C   C33       1.0  0.85973  0.08686  0.71341  1.0000
  C   C34       1.0  0.35973  0.91314  0.78659  1.0000
  C   C35       1.0  0.14028  0.91314  0.28659  1.0000
  C   C36       1.0  0.64027  0.08686  0.21341  1.0000
  S   S1        1.0  0.91056  0.69296  0.46047  1.0000
  S   S2        1.0  0.41057  0.30704  0.03953  1.0000
  S   S3        1.0  0.08943  0.30704  0.53953  1.0000
  S   S4        1.0  0.58944  0.69296  0.96047  1.0000
  N   N1        1.0  0.85945  0.18937  0.72209  1.0000
  N   N2        1.0  0.35945  0.81063  0.77791  1.0000
  N   N3        1.0  0.14055  0.81063  0.27791  1.0000
  N   N4        1.0  0.64055  0.18937  0.22209  1.0000
  O   O1        1.0  0.82197  0.40775  0.70776  1.0000
  O   O2        1.0  0.32197  0.59225  0.79224  1.0000
  O   O3        1.0  0.17803  0.59225  0.29224  1.0000
  O   O4        1.0  0.67803  0.40775  0.20776  1.0000
  O   O5        1.0  0.70599  0.40672  0.86962  1.0000
  O   O6        1.0  0.20599  0.59328  0.63038  1.0000
  O   O7        1.0  0.29401  0.59328  0.13038  1.0000
  O   O8        1.0  0.79400  0.40672  0.36962  1.0000
  O   O9        1.0  0.07342  0.39936  0.83492  1.0000
  O   O10       1.0  0.57342  0.60064  0.66508  1.0000
  O   O11       1.0  0.92658  0.60064  0.16508  1.0000
  O   O12       1.0  0.42657  0.39936  0.33492  1.0000
  O   O13       1.0  0.84181  0.71563  0.55250  1.0000
  O   O14       1.0  0.34181  0.28437  0.94750  1.0000
  O   O15       1.0  0.15818  0.28437  0.44750  1.0000
  O   O16       1.0  0.65819  0.71563  0.05250  1.0000
  O   O17       1.0  0.92643  0.57936  0.45843  1.0000
  O   O18       1.0  0.42643  0.42064  0.04157  1.0000
  O   O19       1.0  0.07357  0.42064  0.54157  1.0000
  O   O20       1.0  0.57358  0.57936  0.95843  1.0000
  O   O21       1.0  0.11171  0.73684  0.44518  1.0000
  O   O22       1.0  0.61171  0.26316  0.05482  1.0000
  O   O23       1.0  0.88829  0.26316  0.55482  1.0000
  O   O24       1.0  0.38829  0.73684  0.94518  1.0000
  O   O25       1.0  0.77217  0.72806  0.39227  1.0000
  O   O26       1.0  0.27218  0.27194  0.10773  1.0000
  O   O27       1.0  0.22782  0.27194  0.60773  1.0000
  O   O28       1.0  0.72783  0.72806  0.89227  1.0000
  O   O29       1.0  0.92373  0.62323  0.76396  1.0000
  O   O30       1.0  0.42373  0.37677  0.73604  1.0000
  O   O31       1.0  0.07627  0.37677  0.23604  1.0000
  O   O32       1.0  0.57627  0.62323  0.26395  1.0000
  O   O33       1.0  0.64859  0.43272  0.54062  1.0000
  O   O34       1.0  0.14859  0.56728  0.95938  1.0000
  O   O35       1.0  0.35141  0.56728  0.45938  1.0000
  O   O36       1.0  0.85141  0.43272  0.04062  1.0000
