data_image0
_chemical_formula_structural       Tb2P2H22C18S2N2O18
_chemical_formula_sum              "Tb2 P2 H22 C18 S2 N2 O18"
_cell_length_a       6.7632
_cell_length_b       7.54355
_cell_length_c       13.3418
_cell_angle_alpha    90.5354
_cell_angle_beta     93.258
_cell_angle_gamma    101.653

_space_group_name_H-M_alt    "P 1"
_space_group_IT_number       1

loop_
  _space_group_symop_operation_xyz
  'x, y, z'

loop_
  _atom_site_type_symbol
  _atom_site_label
  _atom_site_symmetry_multiplicity
  _atom_site_fract_x
  _atom_site_fract_y
  _atom_site_fract_z
  _atom_site_occupancy
  Tb  Tb1       1.0  0.28537  0.76919  0.45454  1.0000
  Tb  Tb2       1.0  0.71463  0.23080  0.54546  1.0000
  P   P1        1.0  0.25008  0.38661  0.62177  1.0000
  P   P2        1.0  0.74992  0.61339  0.37823  1.0000
  H   H1        1.0  0.17617  0.10959  0.77765  1.0000
  H   H2        1.0  0.82383  0.89041  0.22235  1.0000
  H   H3        1.0  0.17728  0.13230  0.96472  1.0000
  H   H4        1.0  0.82271  0.86770  0.03528  1.0000
  H   H5        1.0  0.22294  0.32870  0.12206  1.0000
  H   H6        1.0  0.77706  0.67130  0.87794  1.0000
  H   H7        1.0  0.27560  0.63690  0.19854  1.0000
  H   H8        1.0  0.72440  0.36311  0.80146  1.0000
  H   H9        1.0  0.32172  0.90555  0.09304  1.0000
  H   H10       1.0  0.67828  0.09445  0.90696  1.0000
  H   H11       1.0  0.32390  0.87362  0.90494  1.0000
  H   H12       1.0  0.67610  0.12638  0.09506  1.0000
  H   H13       1.0  0.30515  0.67882  0.76540  1.0000
  H   H14       1.0  0.69486  0.32118  0.23460  1.0000
  H   H15       1.0  0.02564  0.41816  0.38577  1.0000
  H   H16       1.0  0.97435  0.58184  0.61423  1.0000
  H   H17       1.0  0.23257  0.39192  0.34365  1.0000
  H   H18       1.0  0.76743  0.60808  0.65635  1.0000
  H   H19       1.0  0.22739  0.92107  0.64464  1.0000
  H   H20       1.0  0.77262  0.07893  0.35536  1.0000
  H   H21       1.0  0.10871  0.04041  0.57630  1.0000
  H   H22       1.0  0.89129  0.95959  0.42370  1.0000
  C   C1        1.0  0.23933  0.39822  0.75927  1.0000
  C   C2        1.0  0.76067  0.60178  0.24074  1.0000
  C   C3        1.0  0.20225  0.24012  0.81641  1.0000
  C   C4        1.0  0.79775  0.75988  0.18359  1.0000
  C   C5        1.0  0.20322  0.25366  0.91949  1.0000
  C   C6        1.0  0.79678  0.74634  0.08051  1.0000
  C   C7        1.0  0.23709  0.42461  0.96893  1.0000
  C   C8        1.0  0.76291  0.57539  0.03107  1.0000
  C   C9        1.0  0.24143  0.44719  0.07461  1.0000
  C   C10       1.0  0.75857  0.55281  0.92539  1.0000
  C   C11       1.0  0.27245  0.61821  0.11748  1.0000
  C   C12       1.0  0.72755  0.38179  0.88252  1.0000
  C   C13       1.0  0.29955  0.77257  0.05644  1.0000
  C   C14       1.0  0.70045  0.22743  0.94356  1.0000
  C   C15       1.0  0.29918  0.75650  0.95320  1.0000
  C   C16       1.0  0.70082  0.24350  0.04680  1.0000
  C   C17       1.0  0.26858  0.58180  0.90872  1.0000
  C   C18       1.0  0.73142  0.41820  0.09128  1.0000
  S   S1        1.0  0.39917  0.08227  0.30908  1.0000
  S   S2        1.0  0.60083  0.91773  0.69092  1.0000
  N   N1        1.0  0.26925  0.55955  0.80649  1.0000
  N   N2        1.0  0.73075  0.44045  0.19351  1.0000
  O   O1        1.0  0.24557  0.57928  0.58833  1.0000
  O   O2        1.0  0.75443  0.42072  0.41167  1.0000
  O   O3        1.0  0.44268  0.32073  0.60463  1.0000
  O   O4        1.0  0.55732  0.67926  0.39537  1.0000
  O   O5        1.0  0.05875  0.25012  0.58631  1.0000
  O   O6        1.0  0.94125  0.74988  0.41369  1.0000
  O   O7        1.0  0.26886  0.90095  0.28701  1.0000
  O   O8        1.0  0.73114  0.09905  0.71299  1.0000
  O   O9        1.0  0.43475  0.08752  0.42272  1.0000
  O   O10       1.0  0.56525  0.91248  0.57728  1.0000
  O   O11       1.0  0.30373  0.23043  0.27426  1.0000
  O   O12       1.0  0.69627  0.76957  0.72574  1.0000
  O   O13       1.0  0.59802  0.09674  0.26229  1.0000
  O   O14       1.0  0.40198  0.90327  0.73771  1.0000
  O   O15       1.0  0.16107  0.48386  0.36999  1.0000
  O   O16       1.0  0.83893  0.51614  0.63001  1.0000
  O   O17       1.0  0.13911  0.91673  0.58220  1.0000
  O   O18       1.0  0.86088  0.08327  0.41780  1.0000
