data_image0
_chemical_formula_structural       Ho2P2H22C18S2N2O18
_chemical_formula_sum              "Ho2 P2 H22 C18 S2 N2 O18"
_cell_length_a       6.73161
_cell_length_b       7.50346
_cell_length_c       13.329
_cell_angle_alpha    90.6862
_cell_angle_beta     93.0129
_cell_angle_gamma    101.79

_space_group_name_H-M_alt    "P 1"
_space_group_IT_number       1

loop_
  _space_group_symop_operation_xyz
  'x, y, z'

loop_
  _atom_site_type_symbol
  _atom_site_label
  _atom_site_symmetry_multiplicity
  _atom_site_fract_x
  _atom_site_fract_y
  _atom_site_fract_z
  _atom_site_occupancy
  Ho  Ho1       1.0  0.28580  0.76875  0.45532  1.0000
  Ho  Ho2       1.0  0.71420  0.23125  0.54468  1.0000
  P   P1        1.0  0.25000  0.38652  0.62026  1.0000
  P   P2        1.0  0.74999  0.61347  0.37974  1.0000
  H   H1        1.0  0.16769  0.10617  0.77419  1.0000
  H   H2        1.0  0.83231  0.89383  0.22581  1.0000
  H   H3        1.0  0.16949  0.12566  0.96156  1.0000
  H   H4        1.0  0.83052  0.87435  0.03845  1.0000
  H   H5        1.0  0.21541  0.32021  0.12017  1.0000
  H   H6        1.0  0.78461  0.67979  0.87983  1.0000
  H   H7        1.0  0.27247  0.62892  0.19902  1.0000
  H   H8        1.0  0.72755  0.37108  0.80098  1.0000
  H   H9        1.0  0.32793  0.90146  0.09557  1.0000
  H   H10       1.0  0.67208  0.09854  0.90443  1.0000
  H   H11       1.0  0.33096  0.87292  0.90713  1.0000
  H   H12       1.0  0.66905  0.12708  0.09287  1.0000
  H   H13       1.0  0.30875  0.67923  0.76583  1.0000
  H   H14       1.0  0.69124  0.32077  0.23417  1.0000
  H   H15       1.0  0.02673  0.41845  0.38656  1.0000
  H   H16       1.0  0.97327  0.58154  0.61344  1.0000
  H   H17       1.0  0.23423  0.39171  0.34441  1.0000
  H   H18       1.0  0.76577  0.60828  0.65559  1.0000
  H   H19       1.0  0.22817  0.92076  0.64429  1.0000
  H   H20       1.0  0.77183  0.07924  0.35571  1.0000
  H   H21       1.0  0.10772  0.03909  0.57564  1.0000
  H   H22       1.0  0.89228  0.96090  0.42436  1.0000
  C   C1        1.0  0.23843  0.39686  0.75787  1.0000
  C   C2        1.0  0.76156  0.60314  0.24213  1.0000
  C   C3        1.0  0.19730  0.23682  0.81395  1.0000
  C   C4        1.0  0.80270  0.76318  0.18605  1.0000
  C   C5        1.0  0.19805  0.24866  0.91717  1.0000
  C   C6        1.0  0.80195  0.75134  0.08283  1.0000
  C   C7        1.0  0.23486  0.41985  0.96781  1.0000
  C   C8        1.0  0.76514  0.58015  0.03219  1.0000
  C   C9        1.0  0.23763  0.44053  0.07364  1.0000
  C   C10       1.0  0.76238  0.55947  0.92636  1.0000
  C   C11       1.0  0.27130  0.61179  0.11784  1.0000
  C   C12       1.0  0.72871  0.38822  0.88216  1.0000
  C   C13       1.0  0.30317  0.76829  0.05793  1.0000
  C   C14       1.0  0.69684  0.23172  0.94207  1.0000
  C   C15       1.0  0.30376  0.75404  0.95450  1.0000
  C   C16       1.0  0.69624  0.24596  0.04550  1.0000
  C   C17       1.0  0.27019  0.57905  0.90868  1.0000
  C   C18       1.0  0.72981  0.42095  0.09132  1.0000
  S   S1        1.0  0.39814  0.07894  0.30960  1.0000
  S   S2        1.0  0.60185  0.92106  0.69040  1.0000
  N   N1        1.0  0.27140  0.55843  0.80622  1.0000
  N   N2        1.0  0.72859  0.44157  0.19378  1.0000
  O   O1        1.0  0.24777  0.58093  0.58768  1.0000
  O   O2        1.0  0.75223  0.41907  0.41232  1.0000
  O   O3        1.0  0.44261  0.31930  0.60256  1.0000
  O   O4        1.0  0.55738  0.68070  0.39744  1.0000
  O   O5        1.0  0.05689  0.25054  0.58437  1.0000
  O   O6        1.0  0.94310  0.74945  0.41563  1.0000
  O   O7        1.0  0.27047  0.89467  0.28828  1.0000
  O   O8        1.0  0.72952  0.10534  0.71171  1.0000
  O   O9        1.0  0.43359  0.08586  0.42329  1.0000
  O   O10       1.0  0.56640  0.91415  0.57671  1.0000
  O   O11       1.0  0.29890  0.22512  0.27432  1.0000
  O   O12       1.0  0.70107  0.77488  0.72568  1.0000
  O   O13       1.0  0.59840  0.09642  0.26241  1.0000
  O   O14       1.0  0.40160  0.90360  0.73759  1.0000
  O   O15       1.0  0.16305  0.48465  0.37086  1.0000
  O   O16       1.0  0.83696  0.51535  0.62915  1.0000
  O   O17       1.0  0.14013  0.91563  0.58173  1.0000
  O   O18       1.0  0.85988  0.08436  0.41828  1.0000
