data_image0
_chemical_formula_structural       Yb2P2H22C18S2N2O18
_chemical_formula_sum              "Yb2 P2 H22 C18 S2 N2 O18"
_cell_length_a       6.68701
_cell_length_b       7.45683
_cell_length_c       13.2806
_cell_angle_alpha    90.6495
_cell_angle_beta     93.3141
_cell_angle_gamma    101.994

_space_group_name_H-M_alt    "P 1"
_space_group_IT_number       1

loop_
  _space_group_symop_operation_xyz
  'x, y, z'

loop_
  _atom_site_type_symbol
  _atom_site_label
  _atom_site_symmetry_multiplicity
  _atom_site_fract_x
  _atom_site_fract_y
  _atom_site_fract_z
  _atom_site_occupancy
  Yb  Yb1       1.0  0.28380  0.76872  0.45580  1.0000
  Yb  Yb2       1.0  0.71620  0.23128  0.54420  1.0000
  P   P1        1.0  0.25367  0.38545  0.61875  1.0000
  P   P2        1.0  0.74633  0.61455  0.38125  1.0000
  H   H1        1.0  0.16730  0.10316  0.77306  1.0000
  H   H2        1.0  0.83269  0.89684  0.22694  1.0000
  H   H3        1.0  0.16619  0.12228  0.96086  1.0000
  H   H4        1.0  0.83381  0.87773  0.03914  1.0000
  H   H5        1.0  0.21413  0.31804  0.12048  1.0000
  H   H6        1.0  0.78587  0.68197  0.87952  1.0000
  H   H7        1.0  0.27223  0.62876  0.19982  1.0000
  H   H8        1.0  0.72777  0.37124  0.80018  1.0000
  H   H9        1.0  0.32786  0.90329  0.09609  1.0000
  H   H10       1.0  0.67214  0.09671  0.90391  1.0000
  H   H11       1.0  0.33415  0.87504  0.90722  1.0000
  H   H12       1.0  0.66586  0.12496  0.09278  1.0000
  H   H13       1.0  0.31299  0.68042  0.76537  1.0000
  H   H14       1.0  0.68701  0.31958  0.23463  1.0000
  H   H15       1.0  0.23099  0.39448  0.34559  1.0000
  H   H16       1.0  0.76901  0.60552  0.65441  1.0000
  H   H17       1.0  0.02273  0.41939  0.38813  1.0000
  H   H18       1.0  0.97726  0.58061  0.61187  1.0000
  H   H19       1.0  0.23445  0.92137  0.64440  1.0000
  H   H20       1.0  0.76555  0.07863  0.35560  1.0000
  H   H21       1.0  0.10993  0.03686  0.57455  1.0000
  H   H22       1.0  0.89007  0.96314  0.42545  1.0000
  C   C1        1.0  0.24059  0.39597  0.75687  1.0000
  C   C2        1.0  0.75941  0.60403  0.24313  1.0000
  C   C3        1.0  0.19752  0.23471  0.81299  1.0000
  C   C4        1.0  0.80248  0.76529  0.18701  1.0000
  C   C5        1.0  0.19683  0.24635  0.91655  1.0000
  C   C6        1.0  0.80317  0.75365  0.08345  1.0000
  C   C7        1.0  0.23464  0.41858  0.96755  1.0000
  C   C8        1.0  0.76536  0.58142  0.03245  1.0000
  C   C9        1.0  0.23705  0.43930  0.07383  1.0000
  C   C10       1.0  0.76294  0.56071  0.92617  1.0000
  C   C11       1.0  0.27115  0.61169  0.11829  1.0000
  C   C12       1.0  0.72885  0.38832  0.88171  1.0000
  C   C13       1.0  0.30356  0.76937  0.05824  1.0000
  C   C14       1.0  0.69644  0.23063  0.94176  1.0000
  C   C15       1.0  0.30543  0.75520  0.95453  1.0000
  C   C16       1.0  0.69457  0.24481  0.04547  1.0000
  C   C17       1.0  0.27150  0.57903  0.90834  1.0000
  C   C18       1.0  0.72850  0.42097  0.09166  1.0000
  S   S1        1.0  0.39049  0.07712  0.31076  1.0000
  S   S2        1.0  0.60951  0.92288  0.68924  1.0000
  N   N1        1.0  0.27390  0.55855  0.80555  1.0000
  N   N2        1.0  0.72610  0.44145  0.19445  1.0000
  O   O1        1.0  0.25415  0.58147  0.58574  1.0000
  O   O2        1.0  0.74584  0.41853  0.41426  1.0000
  O   O3        1.0  0.44674  0.31623  0.60239  1.0000
  O   O4        1.0  0.55326  0.68377  0.39761  1.0000
  O   O5        1.0  0.05807  0.24956  0.58196  1.0000
  O   O6        1.0  0.94193  0.75044  0.41804  1.0000
  O   O7        1.0  0.26083  0.89140  0.29010  1.0000
  O   O8        1.0  0.73917  0.10860  0.70990  1.0000
  O   O9        1.0  0.42980  0.08393  0.42473  1.0000
  O   O10       1.0  0.57020  0.91607  0.57527  1.0000
  O   O11       1.0  0.29006  0.22412  0.27590  1.0000
  O   O12       1.0  0.70993  0.77588  0.72410  1.0000
  O   O13       1.0  0.59043  0.09431  0.26220  1.0000
  O   O14       1.0  0.40957  0.90569  0.73780  1.0000
  O   O15       1.0  0.15886  0.48761  0.37163  1.0000
  O   O16       1.0  0.84114  0.51239  0.62837  1.0000
  O   O17       1.0  0.14384  0.91340  0.58183  1.0000
  O   O18       1.0  0.85616  0.08660  0.41817  1.0000
