data_image0
_chemical_formula_structural       Ho4P4H44C36S4N4O36
_chemical_formula_sum              "Ho4 P4 H44 C36 S4 N4 O36"
_cell_length_a       6.70127
_cell_length_b       13.3253
_cell_length_c       14.9437
_cell_angle_alpha    90.5333
_cell_angle_beta     89.9999
_cell_angle_gamma    89.9998

_space_group_name_H-M_alt    "P 1"
_space_group_IT_number       1

loop_
  _space_group_symop_operation_xyz
  'x, y, z'

loop_
  _atom_site_type_symbol
  _atom_site_label
  _atom_site_symmetry_multiplicity
  _atom_site_fract_x
  _atom_site_fract_y
  _atom_site_fract_z
  _atom_site_occupancy
  Ho  Ho1       1.0  0.87536  0.54725  0.61906  1.0000
  Ho  Ho2       1.0  0.37536  0.45275  0.88094  1.0000
  Ho  Ho3       1.0  0.12464  0.45275  0.38094  1.0000
  Ho  Ho4       1.0  0.62464  0.54725  0.11906  1.0000
  P   P1        1.0  0.87022  0.37814  0.80336  1.0000
  P   P2        1.0  0.37023  0.62186  0.69663  1.0000
  P   P3        1.0  0.12977  0.62186  0.19664  1.0000
  P   P4        1.0  0.62977  0.37814  0.30337  1.0000
  H   H1        1.0  0.85850  0.22531  0.94458  1.0000
  H   H2        1.0  0.35850  0.77469  0.55542  1.0000
  H   H3        1.0  0.14150  0.77468  0.05542  1.0000
  H   H4        1.0  0.64150  0.22532  0.44458  1.0000
  H   H5        1.0  0.86032  0.03784  0.93866  1.0000
  H   H6        1.0  0.36032  0.96217  0.56134  1.0000
  H   H7        1.0  0.13968  0.96216  0.06134  1.0000
  H   H8        1.0  0.63968  0.03784  0.43866  1.0000
  H   H9        1.0  0.85701  0.87790  0.84568  1.0000
  H   H10       1.0  0.35702  0.12210  0.65432  1.0000
  H   H11       1.0  0.14299  0.12210  0.15432  1.0000
  H   H12       1.0  0.64299  0.87790  0.34568  1.0000
  H   H13       1.0  0.86168  0.79772  0.69538  1.0000
  H   H14       1.0  0.36168  0.20228  0.80462  1.0000
  H   H15       1.0  0.13832  0.20228  0.30462  1.0000
  H   H16       1.0  0.63832  0.79772  0.19538  1.0000
  H   H17       1.0  0.86469  0.89979  0.55944  1.0000
  H   H18       1.0  0.36468  0.10021  0.94056  1.0000
  H   H19       1.0  0.13531  0.10021  0.44056  1.0000
  H   H20       1.0  0.63531  0.89979  0.05944  1.0000
  H   H21       1.0  0.86698  0.08894  0.57020  1.0000
  H   H22       1.0  0.36698  0.91106  0.92980  1.0000
  H   H23       1.0  0.13302  0.91106  0.42980  1.0000
  H   H24       1.0  0.63302  0.08894  0.07020  1.0000
  H   H25       1.0  0.86651  0.23143  0.66224  1.0000
  H   H26       1.0  0.36651  0.76857  0.83776  1.0000
  H   H27       1.0  0.13349  0.76857  0.33776  1.0000
  H   H28       1.0  0.63349  0.23143  0.16224  1.0000
  H   H29       1.0  0.05593  0.60960  0.79096  1.0000
  H   H30       1.0  0.55593  0.39040  0.70904  1.0000
  H   H31       1.0  0.94407  0.39040  0.20904  1.0000
  H   H32       1.0  0.44407  0.60960  0.29097  1.0000
  H   H33       1.0  0.83652  0.65046  0.80951  1.0000
  H   H34       1.0  0.33653  0.34954  0.69049  1.0000
  H   H35       1.0  0.16348  0.34954  0.19049  1.0000
  H   H36       1.0  0.66347  0.65046  0.30951  1.0000
  H   H37       1.0  0.71009  0.36790  0.55109  1.0000
  H   H38       1.0  0.21009  0.63210  0.94891  1.0000
  H   H39       1.0  0.28991  0.63210  0.44891  1.0000
  H   H40       1.0  0.78992  0.36790  0.05109  1.0000
  H   H41       1.0  0.66586  0.44349  0.47634  1.0000
  H   H42       1.0  0.16586  0.55651  0.02366  1.0000
  H   H43       1.0  0.33415  0.55651  0.52366  1.0000
  H   H44       1.0  0.83414  0.44350  0.97634  1.0000
  C   C1        1.0  0.86213  0.24019  0.80115  1.0000
  C   C2        1.0  0.36214  0.75981  0.69885  1.0000
  C   C3        1.0  0.13786  0.75981  0.19885  1.0000
  C   C4        1.0  0.63787  0.24019  0.30115  1.0000
  C   C5        1.0  0.86204  0.18494  0.88109  1.0000
  C   C6        1.0  0.36205  0.81506  0.61891  1.0000
  C   C7        1.0  0.13795  0.81506  0.11891  1.0000
  C   C8        1.0  0.63796  0.18494  0.38109  1.0000
  C   C9        1.0  0.86165  0.08156  0.87727  1.0000
  C   C10       1.0  0.36165  0.91844  0.62273  1.0000
  C   C11       1.0  0.13835  0.91844  0.12273  1.0000
  C   C12       1.0  0.63835  0.08156  0.37727  1.0000
  C   C13       1.0  0.86226  0.02998  0.79408  1.0000
  C   C14       1.0  0.36226  0.97002  0.70592  1.0000
  C   C15       1.0  0.13774  0.97001  0.20592  1.0000
  C   C16       1.0  0.63775  0.02998  0.29408  1.0000
  C   C17       1.0  0.86148  0.92394  0.78570  1.0000
  C   C18       1.0  0.36148  0.07606  0.71430  1.0000
  C   C19       1.0  0.13852  0.07606  0.21430  1.0000
  C   C20       1.0  0.63853  0.92394  0.28570  1.0000
  C   C21       1.0  0.86218  0.87907  0.70219  1.0000
  C   C22       1.0  0.36218  0.12093  0.79781  1.0000
  C   C23       1.0  0.13782  0.12093  0.29781  1.0000
  C   C24       1.0  0.63782  0.87907  0.20219  1.0000
  C   C25       1.0  0.86405  0.93828  0.62412  1.0000
  C   C26       1.0  0.36404  0.06172  0.87588  1.0000
  C   C27       1.0  0.13595  0.06172  0.37588  1.0000
  C   C28       1.0  0.63595  0.93828  0.12412  1.0000
  C   C29       1.0  0.86436  0.04180  0.62939  1.0000
  C   C30       1.0  0.36436  0.95820  0.87061  1.0000
  C   C31       1.0  0.13564  0.95820  0.37061  1.0000
  C   C32       1.0  0.63564  0.04180  0.12939  1.0000
  C   C33       1.0  0.86292  0.08840  0.71465  1.0000
  C   C34       1.0  0.36291  0.91160  0.78535  1.0000
  C   C35       1.0  0.13708  0.91160  0.28535  1.0000
  C   C36       1.0  0.63709  0.08840  0.21465  1.0000
  S   S1        1.0  0.91069  0.69211  0.46203  1.0000
  S   S2        1.0  0.41069  0.30789  0.03797  1.0000
  S   S3        1.0  0.08931  0.30789  0.53797  1.0000
  S   S4        1.0  0.58931  0.69211  0.96203  1.0000
  N   N1        1.0  0.86203  0.19107  0.72273  1.0000
  N   N2        1.0  0.36203  0.80893  0.77727  1.0000
  N   N3        1.0  0.13797  0.80893  0.27727  1.0000
  N   N4        1.0  0.63797  0.19107  0.22273  1.0000
  O   O1        1.0  0.82817  0.40979  0.70683  1.0000
  O   O2        1.0  0.32818  0.59021  0.79317  1.0000
  O   O3        1.0  0.17181  0.59021  0.29317  1.0000
  O   O4        1.0  0.67182  0.40979  0.20683  1.0000
  O   O5        1.0  0.70701  0.41014  0.86904  1.0000
  O   O6        1.0  0.20702  0.58987  0.63096  1.0000
  O   O7        1.0  0.29298  0.58986  0.13096  1.0000
  O   O8        1.0  0.79298  0.41013  0.36904  1.0000
  O   O9        1.0  0.07817  0.40189  0.83600  1.0000
  O   O10       1.0  0.57817  0.59811  0.66400  1.0000
  O   O11       1.0  0.92183  0.59811  0.16401  1.0000
  O   O12       1.0  0.42183  0.40189  0.33600  1.0000
  O   O13       1.0  0.84470  0.71415  0.55527  1.0000
  O   O14       1.0  0.34471  0.28585  0.94472  1.0000
  O   O15       1.0  0.15530  0.28585  0.44472  1.0000
  O   O16       1.0  0.65530  0.71415  0.05528  1.0000
  O   O17       1.0  0.92678  0.57839  0.45976  1.0000
  O   O18       1.0  0.42679  0.42161  0.04024  1.0000
  O   O19       1.0  0.07322  0.42161  0.54024  1.0000
  O   O20       1.0  0.57322  0.57839  0.95976  1.0000
  O   O21       1.0  0.11288  0.73619  0.44555  1.0000
  O   O22       1.0  0.61289  0.26382  0.05445  1.0000
  O   O23       1.0  0.88712  0.26381  0.55445  1.0000
  O   O24       1.0  0.38712  0.73619  0.94555  1.0000
  O   O25       1.0  0.76903  0.72736  0.39435  1.0000
  O   O26       1.0  0.26904  0.27265  0.10565  1.0000
  O   O27       1.0  0.23097  0.27265  0.60564  1.0000
  O   O28       1.0  0.73097  0.72735  0.89436  1.0000
  O   O29       1.0  0.92608  0.62343  0.76239  1.0000
  O   O30       1.0  0.42608  0.37657  0.73761  1.0000
  O   O31       1.0  0.07392  0.37657  0.23761  1.0000
  O   O32       1.0  0.57392  0.62343  0.26239  1.0000
  O   O33       1.0  0.65047  0.43490  0.54165  1.0000
  O   O34       1.0  0.15047  0.56511  0.95835  1.0000
  O   O35       1.0  0.34953  0.56510  0.45835  1.0000
  O   O36       1.0  0.84953  0.43490  0.04165  1.0000
