data_image0
_chemical_formula_structural       Er2P2H22C18S2N2O18
_chemical_formula_sum              "Er2 P2 H22 C18 S2 N2 O18"
_cell_length_a       6.72306
_cell_length_b       7.48505
_cell_length_c       13.3145
_cell_angle_alpha    90.6245
_cell_angle_beta     93.1314
_cell_angle_gamma    102.103

_space_group_name_H-M_alt    "P 1"
_space_group_IT_number       1

loop_
  _space_group_symop_operation_xyz
  'x, y, z'

loop_
  _atom_site_type_symbol
  _atom_site_label
  _atom_site_symmetry_multiplicity
  _atom_site_fract_x
  _atom_site_fract_y
  _atom_site_fract_z
  _atom_site_occupancy
  Er  Er1       1.0  0.28500  0.76830  0.45588  1.0000
  Er  Er2       1.0  0.71500  0.23170  0.54412  1.0000
  P   P1        1.0  0.25100  0.38353  0.61961  1.0000
  P   P2        1.0  0.74900  0.61648  0.38039  1.0000
  H   H1        1.0  0.16246  0.10221  0.77407  1.0000
  H   H2        1.0  0.83754  0.89778  0.22593  1.0000
  H   H3        1.0  0.16291  0.12214  0.96141  1.0000
  H   H4        1.0  0.83708  0.87786  0.03858  1.0000
  H   H5        1.0  0.21061  0.31848  0.12029  1.0000
  H   H6        1.0  0.78938  0.68150  0.87971  1.0000
  H   H7        1.0  0.27187  0.62877  0.19864  1.0000
  H   H8        1.0  0.72813  0.37120  0.80137  1.0000
  H   H9        1.0  0.33234  0.90173  0.09465  1.0000
  H   H10       1.0  0.66767  0.09825  0.90536  1.0000
  H   H11       1.0  0.33900  0.87203  0.90623  1.0000
  H   H12       1.0  0.66100  0.12797  0.09378  1.0000
  H   H13       1.0  0.31364  0.67741  0.76539  1.0000
  H   H14       1.0  0.68636  0.32259  0.23462  1.0000
  H   H15       1.0  0.02326  0.41911  0.38625  1.0000
  H   H16       1.0  0.97674  0.58090  0.61375  1.0000
  H   H17       1.0  0.23092  0.39296  0.34449  1.0000
  H   H18       1.0  0.76909  0.60706  0.65551  1.0000
  H   H19       1.0  0.23110  0.91910  0.64558  1.0000
  H   H20       1.0  0.76889  0.08091  0.35441  1.0000
  H   H21       1.0  0.10739  0.03482  0.57646  1.0000
  H   H22       1.0  0.89262  0.96519  0.42353  1.0000
  C   C1        1.0  0.23875  0.39399  0.75741  1.0000
  C   C2        1.0  0.76125  0.60600  0.24259  1.0000
  C   C3        1.0  0.19449  0.23355  0.81366  1.0000
  C   C4        1.0  0.80551  0.76645  0.18634  1.0000
  C   C5        1.0  0.19428  0.24559  0.91697  1.0000
  C   C6        1.0  0.80572  0.75441  0.08302  1.0000
  C   C7        1.0  0.23351  0.41754  0.96758  1.0000
  C   C8        1.0  0.76649  0.58245  0.03242  1.0000
  C   C9        1.0  0.23539  0.43893  0.07348  1.0000
  C   C10       1.0  0.76461  0.56105  0.92652  1.0000
  C   C11       1.0  0.27144  0.61107  0.11745  1.0000
  C   C12       1.0  0.72856  0.38891  0.88256  1.0000
  C   C13       1.0  0.30649  0.76790  0.05729  1.0000
  C   C14       1.0  0.69351  0.23209  0.94271  1.0000
  C   C15       1.0  0.30879  0.75314  0.95388  1.0000
  C   C16       1.0  0.69122  0.24685  0.04613  1.0000
  C   C17       1.0  0.27258  0.57720  0.90829  1.0000
  C   C18       1.0  0.72742  0.42279  0.09171  1.0000
  S   S1        1.0  0.39358  0.07804  0.31000  1.0000
  S   S2        1.0  0.60642  0.92196  0.69000  1.0000
  N   N1        1.0  0.27437  0.55619  0.80577  1.0000
  N   N2        1.0  0.72563  0.44381  0.19423  1.0000
  O   O1        1.0  0.25004  0.57860  0.58669  1.0000
  O   O2        1.0  0.74996  0.42141  0.41331  1.0000
  O   O3        1.0  0.44372  0.31631  0.60242  1.0000
  O   O4        1.0  0.55627  0.68370  0.39758  1.0000
  O   O5        1.0  0.05691  0.24698  0.58353  1.0000
  O   O6        1.0  0.94309  0.75302  0.41646  1.0000
  O   O7        1.0  0.26611  0.89250  0.28891  1.0000
  O   O8        1.0  0.73387  0.10751  0.71109  1.0000
  O   O9        1.0  0.43140  0.08483  0.42378  1.0000
  O   O10       1.0  0.56860  0.91518  0.57622  1.0000
  O   O11       1.0  0.29279  0.22379  0.27536  1.0000
  O   O12       1.0  0.70723  0.77622  0.72465  1.0000
  O   O13       1.0  0.59344  0.09730  0.26199  1.0000
  O   O14       1.0  0.40655  0.90269  0.73801  1.0000
  O   O15       1.0  0.15966  0.48625  0.37027  1.0000
  O   O16       1.0  0.84034  0.51377  0.62972  1.0000
  O   O17       1.0  0.14162  0.91197  0.58314  1.0000
  O   O18       1.0  0.85838  0.08804  0.41686  1.0000
