data_image0
_chemical_formula_structural       Ag4H24C48O16
_chemical_formula_sum              "Ag4 H24 C48 O16"
_cell_length_a       6.65892
_cell_length_b       12.1344
_cell_length_c       12.8206
_cell_angle_alpha    90.0003
_cell_angle_beta     89.9971
_cell_angle_gamma    90.0043

_space_group_name_H-M_alt    "P 1"
_space_group_IT_number       1

loop_
  _space_group_symop_operation_xyz
  'x, y, z'

loop_
  _atom_site_type_symbol
  _atom_site_label
  _atom_site_symmetry_multiplicity
  _atom_site_fract_x
  _atom_site_fract_y
  _atom_site_fract_z
  _atom_site_occupancy
  Ag  Ag1       1.0  0.46773  0.72423  0.05520  1.0000
  Ag  Ag2       1.0  0.96772  0.27569  0.94490  1.0000
  Ag  Ag3       1.0  0.46770  0.22423  0.94480  1.0000
  Ag  Ag4       1.0  0.96778  0.77570  0.05509  1.0000
  H   H1        1.0  0.70623  0.60274  0.38692  1.0000
  H   H2        1.0  0.20590  0.39740  0.61295  1.0000
  H   H3        1.0  0.70620  0.10273  0.61307  1.0000
  H   H4        1.0  0.20595  0.89741  0.38706  1.0000
  H   H5        1.0  0.69850  0.55683  0.57388  1.0000
  H   H6        1.0  0.19839  0.44319  0.42622  1.0000
  H   H7        1.0  0.69849  0.05683  0.42612  1.0000
  H   H8        1.0  0.19841  0.94321  0.57380  1.0000
  H   H9        1.0  0.76704  0.42384  0.71675  1.0000
  H   H10       1.0  0.26701  0.57633  0.28341  1.0000
  H   H11       1.0  0.76703  0.92383  0.28323  1.0000
  H   H12       1.0  0.26703  0.07634  0.71659  1.0000
  H   H13       1.0  0.90422  0.23903  0.67578  1.0000
  H   H14       1.0  0.40410  0.76105  0.32458  1.0000
  H   H15       1.0  0.90426  0.73903  0.32421  1.0000
  H   H16       1.0  0.40410  0.26108  0.67542  1.0000
  H   H17       1.0  0.95455  0.18044  0.49244  1.0000
  H   H18       1.0  0.45460  0.81958  0.50787  1.0000
  H   H19       1.0  0.95460  0.68045  0.50755  1.0000
  H   H20       1.0  0.45458  0.31960  0.49213  1.0000
  H   H21       1.0  0.92973  0.22333  0.30024  1.0000
  H   H22       1.0  0.43005  0.77657  0.70005  1.0000
  H   H23       1.0  0.92974  0.72333  0.69976  1.0000
  H   H24       1.0  0.43004  0.27658  0.29995  1.0000
  C   C1        1.0  0.78346  0.58710  0.18801  1.0000
  C   C2        1.0  0.28330  0.41267  0.81191  1.0000
  C   C3        1.0  0.78343  0.08710  0.81198  1.0000
  C   C4        1.0  0.28336  0.91267  0.18810  1.0000
  C   C5        1.0  0.89114  0.34506  0.13261  1.0000
  C   C6        1.0  0.39102  0.65508  0.86757  1.0000
  C   C7        1.0  0.89113  0.84507  0.86739  1.0000
  C   C8        1.0  0.39103  0.15508  0.13244  1.0000
  C   C9        1.0  0.80450  0.49407  0.26593  1.0000
  C   C10       1.0  0.30450  0.50587  0.73420  1.0000
  C   C11       1.0  0.80448  0.99406  0.73405  1.0000
  C   C12       1.0  0.30454  0.00587  0.26582  1.0000
  C   C13       1.0  0.75983  0.52047  0.36824  1.0000
  C   C14       1.0  0.25990  0.47953  0.63184  1.0000
  C   C15       1.0  0.75981  0.02047  0.63175  1.0000
  C   C16       1.0  0.25994  0.97954  0.36816  1.0000
  C   C17       1.0  0.78655  0.44459  0.45074  1.0000
  C   C18       1.0  0.28661  0.55544  0.54943  1.0000
  C   C19       1.0  0.78654  0.94459  0.54926  1.0000
  C   C20       1.0  0.28663  0.05545  0.45058  1.0000
  C   C21       1.0  0.75243  0.47418  0.55630  1.0000
  C   C22       1.0  0.25248  0.52581  0.44387  1.0000
  C   C23       1.0  0.75242  0.97417  0.44370  1.0000
  C   C24       1.0  0.25250  0.02582  0.55614  1.0000
  C   C25       1.0  0.79066  0.40040  0.63571  1.0000
  C   C26       1.0  0.29075  0.59963  0.36452  1.0000
  C   C27       1.0  0.79067  0.90038  0.36429  1.0000
  C   C28       1.0  0.29076  0.09965  0.63550  1.0000
  C   C29       1.0  0.86599  0.29455  0.61212  1.0000
  C   C30       1.0  0.36607  0.70548  0.38819  1.0000
  C   C31       1.0  0.86601  0.79454  0.38788  1.0000
  C   C32       1.0  0.36607  0.20549  0.61181  1.0000
  C   C33       1.0  0.89651  0.26230  0.51003  1.0000
  C   C34       1.0  0.39659  0.73773  0.49025  1.0000
  C   C35       1.0  0.89653  0.76229  0.48996  1.0000
  C   C36       1.0  0.39658  0.23775  0.50974  1.0000
  C   C37       1.0  0.85668  0.33582  0.42671  1.0000
  C   C38       1.0  0.35669  0.66418  0.57354  1.0000
  C   C39       1.0  0.85667  0.83581  0.57327  1.0000
  C   C40       1.0  0.35670  0.16420  0.42647  1.0000
  C   C41       1.0  0.88565  0.30717  0.32073  1.0000
  C   C42       1.0  0.38551  0.69280  0.67953  1.0000
  C   C43       1.0  0.88564  0.80718  0.67927  1.0000
  C   C44       1.0  0.38551  0.19281  0.32046  1.0000
  C   C45       1.0  0.86170  0.38378  0.24112  1.0000
  C   C46       1.0  0.36144  0.61621  0.75915  1.0000
  C   C47       1.0  0.86170  0.88378  0.75889  1.0000
  C   C48       1.0  0.36145  0.11622  0.24087  1.0000
  O   O1        1.0  0.60310  0.61634  0.17197  1.0000
  O   O2        1.0  0.10290  0.38347  0.82795  1.0000
  O   O3        1.0  0.60306  0.11634  0.82803  1.0000
  O   O4        1.0  0.10296  0.88348  0.17205  1.0000
  O   O5        1.0  0.94460  0.63114  0.15478  1.0000
  O   O6        1.0  0.44438  0.36841  0.84498  1.0000
  O   O7        1.0  0.94458  0.13114  0.84521  1.0000
  O   O8        1.0  0.44444  0.86840  0.15504  1.0000
  O   O9        1.0  0.95897  0.40952  0.06186  1.0000
  O   O10       1.0  0.45918  0.59070  0.93828  1.0000
  O   O11       1.0  0.95897  0.90953  0.93812  1.0000
  O   O12       1.0  0.45917  0.09070  0.06172  1.0000
  O   O13       1.0  0.84958  0.24478  0.10890  1.0000
  O   O14       1.0  0.34947  0.75535  0.89125  1.0000
  O   O15       1.0  0.84957  0.74481  0.89111  1.0000
  O   O16       1.0  0.34951  0.25537  0.10876  1.0000
