data_image0
_chemical_formula_structural       Hg4H16C16S2O8
_chemical_formula_sum              "Hg4 H16 C16 S2 O8"
_cell_length_a       5.20874
_cell_length_b       6.52899
_cell_length_c       17.0314
_cell_angle_alpha    90.0003
_cell_angle_beta     90.0004
_cell_angle_gamma    105.58

_space_group_name_H-M_alt    "P 1"
_space_group_IT_number       1

loop_
  _space_group_symop_operation_xyz
  'x, y, z'

loop_
  _atom_site_type_symbol
  _atom_site_label
  _atom_site_symmetry_multiplicity
  _atom_site_fract_x
  _atom_site_fract_y
  _atom_site_fract_z
  _atom_site_occupancy
  Hg  Hg1       1.0  0.89704  0.73458  0.56218  1.0000
  Hg  Hg2       1.0  0.10296  0.26543  0.06219  1.0000
  Hg  Hg3       1.0  0.10296  0.26543  0.43782  1.0000
  Hg  Hg4       1.0  0.89704  0.73457  0.93782  1.0000
  H   H1        1.0  0.24056  0.46843  0.67223  1.0000
  H   H2        1.0  0.75943  0.53157  0.17223  1.0000
  H   H3        1.0  0.75944  0.53157  0.32777  1.0000
  H   H4        1.0  0.24056  0.46843  0.82777  1.0000
  H   H5        1.0  0.22764  0.81090  0.35994  1.0000
  H   H6        1.0  0.77236  0.18910  0.85994  1.0000
  H   H7        1.0  0.77236  0.18910  0.64006  1.0000
  H   H8        1.0  0.22764  0.81090  0.14006  1.0000
  H   H9        1.0  0.52826  0.78256  0.31552  1.0000
  H   H10       1.0  0.47175  0.21744  0.81553  1.0000
  H   H11       1.0  0.47175  0.21744  0.68448  1.0000
  H   H12       1.0  0.52825  0.78256  0.18447  1.0000
  H   H13       1.0  0.52575  0.02789  0.35768  1.0000
  H   H14       1.0  0.47425  0.97211  0.85768  1.0000
  H   H15       1.0  0.47425  0.97211  0.64232  1.0000
  H   H16       1.0  0.52574  0.02789  0.14232  1.0000
  C   C1        1.0  0.98344  0.68130  0.67642  1.0000
  C   C2        1.0  0.01656  0.31870  0.17642  1.0000
  C   C3        1.0  0.01656  0.31870  0.32358  1.0000
  C   C4        1.0  0.98343  0.68130  0.82357  1.0000
  C   C5        1.0  0.13471  0.55704  0.70813  1.0000
  C   C6        1.0  0.86528  0.44295  0.20813  1.0000
  C   C7        1.0  0.86528  0.44295  0.29187  1.0000
  C   C8        1.0  0.13471  0.55705  0.79187  1.0000
  C   C9        1.0  0.53414  0.78789  0.44159  1.0000
  C   C10       1.0  0.46586  0.21211  0.94159  1.0000
  C   C11       1.0  0.46586  0.21211  0.55841  1.0000
  C   C12       1.0  0.53414  0.78789  0.05841  1.0000
  C   C13       1.0  0.44492  0.85484  0.36401  1.0000
  C   C14       1.0  0.55508  0.14516  0.86401  1.0000
  C   C15       1.0  0.55508  0.14517  0.63599  1.0000
  C   C16       1.0  0.44492  0.85483  0.13599  1.0000
  S   S1        1.0  0.84539  0.79754  0.75000  1.0000
  S   S2        1.0  0.15461  0.20246  0.25000  1.0000
  O   O1        1.0  0.79218  0.81192  0.44731  1.0000
  O   O2        1.0  0.20783  0.18808  0.94731  1.0000
  O   O3        1.0  0.20782  0.18808  0.55269  1.0000
  O   O4        1.0  0.79218  0.81192  0.05269  1.0000
  O   O5        1.0  0.37628  0.71619  0.49656  1.0000
  O   O6        1.0  0.62372  0.28382  0.99656  1.0000
  O   O7        1.0  0.62371  0.28381  0.50344  1.0000
  O   O8        1.0  0.37629  0.71618  0.00344  1.0000
