data_image0
_chemical_formula_structural       Hg4H20C24S4O8
_chemical_formula_sum              "Hg4 H20 C24 S4 O8"
_cell_length_a       5.18688
_cell_length_b       8.36754
_cell_length_c       17.0758
_cell_angle_alpha    98.8501
_cell_angle_beta     89.9994
_cell_angle_gamma    89.9993

_space_group_name_H-M_alt    "P 1"
_space_group_IT_number       1

loop_
  _space_group_symop_operation_xyz
  'x, y, z'

loop_
  _atom_site_type_symbol
  _atom_site_label
  _atom_site_symmetry_multiplicity
  _atom_site_fract_x
  _atom_site_fract_y
  _atom_site_fract_z
  _atom_site_occupancy
  Hg  Hg1       1.0  0.23453  0.13017  0.23639  1.0000
  Hg  Hg2       1.0  0.73451  0.36983  0.76361  1.0000
  Hg  Hg3       1.0  0.76547  0.86983  0.76362  1.0000
  Hg  Hg4       1.0  0.26547  0.63018  0.23639  1.0000
  H   H1        1.0  0.76256  0.39204  0.27310  1.0000
  H   H2        1.0  0.26255  0.10796  0.72690  1.0000
  H   H3        1.0  0.23746  0.60796  0.72690  1.0000
  H   H4        1.0  0.73743  0.89204  0.27310  1.0000
  H   H5        1.0  0.66935  0.57536  0.40902  1.0000
  H   H6        1.0  0.16933  0.92465  0.59099  1.0000
  H   H7        1.0  0.33068  0.42466  0.59098  1.0000
  H   H8        1.0  0.83067  0.07535  0.40901  1.0000
  H   H9        1.0  0.93594  0.91884  0.05026  1.0000
  H   H10       1.0  0.43591  0.58113  0.94972  1.0000
  H   H11       1.0  0.06406  0.08115  0.94973  1.0000
  H   H12       1.0  0.56407  0.41886  0.05028  1.0000
  H   H13       1.0  0.62527  0.87745  0.00444  1.0000
  H   H14       1.0  0.12526  0.62254  0.99556  1.0000
  H   H15       1.0  0.37472  0.12254  0.99555  1.0000
  H   H16       1.0  0.87474  0.37746  0.00445  1.0000
  H   H17       1.0  0.73868  0.75780  0.07402  1.0000
  H   H18       1.0  0.23868  0.74219  0.92597  1.0000
  H   H19       1.0  0.26131  0.24220  0.92597  1.0000
  H   H20       1.0  0.76132  0.25781  0.07403  1.0000
  C   C1        1.0  0.09116  0.29103  0.32852  1.0000
  C   C2        1.0  0.59114  0.20896  0.67149  1.0000
  C   C3        1.0  0.90886  0.70896  0.67149  1.0000
  C   C4        1.0  0.40884  0.79105  0.32852  1.0000
  C   C5        1.0  0.87862  0.39084  0.32603  1.0000
  C   C6        1.0  0.37862  0.10916  0.67398  1.0000
  C   C7        1.0  0.12140  0.60916  0.67398  1.0000
  C   C8        1.0  0.62138  0.89085  0.32602  1.0000
  C   C9        1.0  0.82704  0.48854  0.39971  1.0000
  C   C10       1.0  0.32702  0.01146  0.60030  1.0000
  C   C11       1.0  0.17299  0.51147  0.60029  1.0000
  C   C12       1.0  0.67297  0.98854  0.39970  1.0000
  C   C13       1.0  0.99719  0.46222  0.45915  1.0000
  C   C14       1.0  0.49719  0.03779  0.54086  1.0000
  C   C15       1.0  0.00284  0.53778  0.54086  1.0000
  C   C16       1.0  0.50281  0.96222  0.45914  1.0000
  C   C17       1.0  0.61465  0.98979  0.12688  1.0000
  C   C18       1.0  0.11459  0.51022  0.87311  1.0000
  C   C19       1.0  0.38536  0.01022  0.87311  1.0000
  C   C20       1.0  0.88538  0.48979  0.12689  1.0000
  C   C21       1.0  0.73779  0.88056  0.05893  1.0000
  C   C22       1.0  0.23776  0.61942  0.94106  1.0000
  C   C23       1.0  0.26221  0.11944  0.94106  1.0000
  C   C24       1.0  0.76223  0.38058  0.05894  1.0000
  S   S1        1.0  0.22343  0.31681  0.42212  1.0000
  S   S2        1.0  0.72341  0.18317  0.57788  1.0000
  S   S3        1.0  0.77659  0.68318  0.57789  1.0000
  S   S4        1.0  0.27658  0.81682  0.42212  1.0000
  O   O1        1.0  0.36759  0.96564  0.13720  1.0000
  O   O2        1.0  0.86755  0.53437  0.86279  1.0000
  O   O3        1.0  0.63241  0.03438  0.86279  1.0000
  O   O4        1.0  0.13242  0.46563  0.13721  1.0000
  O   O5        1.0  0.73970  0.09580  0.17086  1.0000
  O   O6        1.0  0.23966  0.40418  0.82913  1.0000
  O   O7        1.0  0.26031  0.90418  0.82914  1.0000
  O   O8        1.0  0.76032  0.59582  0.17087  1.0000
