data_image0
_chemical_formula_structural       Ag2H8C32N16Cl8
_chemical_formula_sum              "Ag2 H8 C32 N16 Cl8"
_cell_length_a       3.75475
_cell_length_b       15.8104
_cell_length_c       15.8083
_cell_angle_alpha    89.2119
_cell_angle_beta     83.168
_cell_angle_gamma    83.1673

_space_group_name_H-M_alt    "P 1"
_space_group_IT_number       1

loop_
  _space_group_symop_operation_xyz
  'x, y, z'

loop_
  _atom_site_type_symbol
  _atom_site_label
  _atom_site_symmetry_multiplicity
  _atom_site_fract_x
  _atom_site_fract_y
  _atom_site_fract_z
  _atom_site_occupancy
  Ag  Ag1       1.0  0.12565  0.25016  0.75037  1.0000
  Ag  Ag2       1.0  0.87434  0.74984  0.24963  1.0000
  H   H1        1.0  0.27943  0.43625  0.86053  1.0000
  H   H2        1.0  0.21591  0.86054  0.06362  1.0000
  H   H3        1.0  0.57676  0.06348  0.63961  1.0000
  H   H4        1.0  0.14048  0.63951  0.43655  1.0000
  H   H5        1.0  0.72058  0.56375  0.13947  1.0000
  H   H6        1.0  0.78409  0.13946  0.93638  1.0000
  H   H7        1.0  0.42324  0.93651  0.36040  1.0000
  H   H8        1.0  0.85953  0.36049  0.56345  1.0000
  C   C1        1.0  0.64189  0.31394  0.93255  1.0000
  C   C2        1.0  0.45710  0.93256  0.18582  1.0000
  C   C3        1.0  0.88897  0.18591  0.56757  1.0000
  C   C4        1.0  0.57529  0.56744  0.31408  1.0000
  C   C5        1.0  0.35811  0.68606  0.06745  1.0000
  C   C6        1.0  0.54289  0.06744  0.81418  1.0000
  C   C7        1.0  0.11102  0.81409  0.43243  1.0000
  C   C8        1.0  0.42471  0.43256  0.68591  1.0000
  C   C9        1.0  0.24632  0.42380  0.99813  1.0000
  C   C10       1.0  0.17003  0.99813  0.07619  1.0000
  C   C11       1.0  0.66794  0.07618  0.50199  1.0000
  C   C12       1.0  0.24430  0.50193  0.42381  1.0000
  C   C13       1.0  0.75368  0.57620  0.00187  1.0000
  C   C14       1.0  0.82997  0.00187  0.92381  1.0000
  C   C15       1.0  0.33205  0.92382  0.49801  1.0000
  C   C16       1.0  0.75571  0.49807  0.57619  1.0000
  C   C17       1.0  0.15697  0.46503  0.92095  1.0000
  C   C18       1.0  0.12231  0.92095  0.03484  1.0000
  C   C19       1.0  0.54343  0.03475  0.57917  1.0000
  C   C20       1.0  0.07840  0.57910  0.46526  1.0000
  C   C21       1.0  0.84303  0.53497  0.07905  1.0000
  C   C22       1.0  0.87770  0.07905  0.96516  1.0000
  C   C23       1.0  0.45658  0.96524  0.42083  1.0000
  C   C24       1.0  0.92160  0.42090  0.53474  1.0000
  C   C25       1.0  0.07693  0.46160  0.07824  1.0000
  C   C26       1.0  0.03825  0.07828  0.03850  1.0000
  C   C27       1.0  0.61655  0.03853  0.42175  1.0000
  C   C28       1.0  0.15481  0.42176  0.46141  1.0000
  C   C29       1.0  0.92307  0.53840  0.92175  1.0000
  C   C30       1.0  0.96173  0.92172  0.96150  1.0000
  C   C31       1.0  0.38345  0.96147  0.57825  1.0000
  C   C32       1.0  0.84520  0.57824  0.53859  1.0000
  N   N1        1.0  0.80120  0.26957  0.87749  1.0000
  N   N2        1.0  0.57478  0.87764  0.22990  1.0000
  N   N3        1.0  0.95259  0.22986  0.62251  1.0000
  N   N4        1.0  0.68211  0.62238  0.27006  1.0000
  N   N5        1.0  0.19880  0.73043  0.12251  1.0000
  N   N6        1.0  0.42522  0.12236  0.77010  1.0000
  N   N7        1.0  0.04739  0.77014  0.37750  1.0000
  N   N8        1.0  0.31789  0.37762  0.72994  1.0000
  N   N9        1.0  0.48161  0.35374  0.00007  1.0000
  N   N10       1.0  0.33502  0.00006  0.14624  1.0000
  N   N11       1.0  0.83384  0.14634  0.50007  1.0000
  N   N12       1.0  0.48081  0.49996  0.35364  1.0000
  N   N13       1.0  0.51839  0.64626  0.99993  1.0000
  N   N14       1.0  0.66497  0.99995  0.85376  1.0000
  N   N15       1.0  0.16615  0.85366  0.49994  1.0000
  N   N16       1.0  0.51920  0.50004  0.64636  1.0000
  Cl  Cl1       1.0  0.17173  0.41258  0.17144  1.0000
  Cl  Cl2       1.0  0.08415  0.17146  0.08755  1.0000
  Cl  Cl3       1.0  0.75542  0.08773  0.32868  1.0000
  Cl  Cl4       1.0  0.34269  0.32865  0.41215  1.0000
  Cl  Cl5       1.0  0.82827  0.58742  0.82856  1.0000
  Cl  Cl6       1.0  0.91585  0.82854  0.91245  1.0000
  Cl  Cl7       1.0  0.24459  0.91227  0.67132  1.0000
  Cl  Cl8       1.0  0.65732  0.67135  0.58785  1.0000
