data_image0
_chemical_formula_structural       La2H58C66N2O22
_chemical_formula_sum              "La2 H58 C66 N2 O22"
_cell_length_a       9.45937
_cell_length_b       12.1323
_cell_length_c       16.0978
_cell_angle_alpha    80.8294
_cell_angle_beta     79.9627
_cell_angle_gamma    67.0496

_space_group_name_H-M_alt    "P 1"
_space_group_IT_number       1

loop_
  _space_group_symop_operation_xyz
  'x, y, z'

loop_
  _atom_site_type_symbol
  _atom_site_label
  _atom_site_symmetry_multiplicity
  _atom_site_fract_x
  _atom_site_fract_y
  _atom_site_fract_z
  _atom_site_occupancy
  La  La1       1.0  0.18611  0.04255  0.51056  1.0000
  La  La2       1.0  0.81389  0.95745  0.48945  1.0000
  H   H1        1.0  0.68157  0.21669  0.35627  1.0000
  H   H2        1.0  0.31844  0.78330  0.64372  1.0000
  H   H3        1.0  0.49765  0.38080  0.26798  1.0000
  H   H4        1.0  0.50235  0.61921  0.73202  1.0000
  H   H5        1.0  0.53165  0.57392  0.22675  1.0000
  H   H6        1.0  0.46834  0.42608  0.77326  1.0000
  H   H7        1.0  0.75550  0.60464  0.26977  1.0000
  H   H8        1.0  0.24450  0.39537  0.73024  1.0000
  H   H9        1.0  0.93318  0.44360  0.36064  1.0000
  H   H10       1.0  0.06682  0.55640  0.63937  1.0000
  H   H11       1.0  0.29903  0.05849  0.21506  1.0000
  H   H12       1.0  0.70094  0.94153  0.78494  1.0000
  H   H13       1.0  0.78838  0.73170  0.66547  1.0000
  H   H14       1.0  0.21164  0.26829  0.33452  1.0000
  H   H15       1.0  0.85793  0.62237  0.80597  1.0000
  H   H16       1.0  0.14210  0.37762  0.19402  1.0000
  H   H17       1.0  0.66080  0.66502  0.93385  1.0000
  H   H18       1.0  0.33922  0.33496  0.06614  1.0000
  H   H19       1.0  0.39714  0.81865  0.92113  1.0000
  H   H20       1.0  0.60287  0.18133  0.07886  1.0000
  H   H21       1.0  0.32664  0.92495  0.77908  1.0000
  H   H22       1.0  0.67337  0.07503  0.22091  1.0000
  H   H23       1.0  0.34038  0.06689  0.05731  1.0000
  H   H24       1.0  0.65960  0.93313  0.94270  1.0000
  H   H25       1.0  0.03203  0.87946  0.06768  1.0000
  H   H26       1.0  0.96798  0.12053  0.93233  1.0000
  H   H27       1.0  0.98881  0.87465  0.22543  1.0000
  H   H28       1.0  0.01118  0.12535  0.77458  1.0000
  H   H29       1.0  0.20463  0.97816  0.98373  1.0000
  H   H30       1.0  0.79536  0.02184  0.01628  1.0000
  H   H31       1.0  0.45980  0.88379  0.39519  1.0000
  H   H32       1.0  0.54019  0.11621  0.60481  1.0000
  H   H33       1.0  0.52213  0.86605  0.48374  1.0000
  H   H34       1.0  0.47787  0.13395  0.51626  1.0000
  H   H35       1.0  0.20843  0.16345  0.65331  1.0000
  H   H36       1.0  0.79158  0.83654  0.34670  1.0000
  H   H37       1.0  0.11375  0.28402  0.60108  1.0000
  H   H38       1.0  0.88626  0.71598  0.39893  1.0000
  H   H39       1.0  0.15246  0.73184  0.37143  1.0000
  H   H40       1.0  0.84754  0.26815  0.62857  1.0000
  H   H41       1.0  0.39335  0.69788  0.43071  1.0000
  H   H42       1.0  0.60665  0.30212  0.56929  1.0000
  H   H43       1.0  0.17382  0.38549  0.45567  1.0000
  H   H44       1.0  0.82617  0.61451  0.54434  1.0000
  H   H45       1.0  0.41822  0.33393  0.51764  1.0000
  H   H46       1.0  0.58179  0.66606  0.48236  1.0000
  H   H47       1.0  0.03387  0.61097  0.28544  1.0000
  H   H48       1.0  0.96613  0.38902  0.71456  1.0000
  H   H49       1.0  0.38841  0.59669  0.89582  1.0000
  H   H50       1.0  0.61159  0.40333  0.10418  1.0000
  H   H51       1.0  0.39379  0.58240  0.05256  1.0000
  H   H52       1.0  0.60620  0.41762  0.94743  1.0000
  H   H53       1.0  0.90542  0.65760  0.09536  1.0000
  H   H54       1.0  0.09458  0.34236  0.90463  1.0000
  H   H55       1.0  0.13984  0.64611  0.84006  1.0000
  H   H56       1.0  0.86016  0.35391  0.15993  1.0000
  H   H57       1.0  0.89792  0.67765  0.93958  1.0000
  H   H58       1.0  0.10209  0.32234  0.06041  1.0000
  C   C1        1.0  0.69561  0.30238  0.33767  1.0000
  C   C2        1.0  0.30440  0.69762  0.66233  1.0000
  C   C3        1.0  0.59415  0.39350  0.28788  1.0000
  C   C4        1.0  0.40585  0.60649  0.71212  1.0000
  C   C5        1.0  0.61384  0.50308  0.26439  1.0000
  C   C6        1.0  0.38616  0.49692  0.73561  1.0000
  C   C7        1.0  0.73764  0.52028  0.28922  1.0000
  C   C8        1.0  0.26236  0.47972  0.71078  1.0000
  C   C9        1.0  0.83922  0.42947  0.33912  1.0000
  C   C10       1.0  0.16078  0.57053  0.66089  1.0000
  C   C11       1.0  0.81728  0.32061  0.36474  1.0000
  C   C12       1.0  0.18272  0.67939  0.63525  1.0000
  C   C13       1.0  0.11359  0.96390  0.32448  1.0000
  C   C14       1.0  0.88640  0.03611  0.67552  1.0000
  C   C15       1.0  0.24104  0.01984  0.18210  1.0000
  C   C16       1.0  0.75894  0.98018  0.81790  1.0000
  C   C17       1.0  0.14079  0.96682  0.22974  1.0000
  C   C18       1.0  0.85919  0.03319  0.77027  1.0000
  C   C19       1.0  0.50925  0.89425  0.62878  1.0000
  C   C20       1.0  0.49076  0.10575  0.37121  1.0000
  C   C21       1.0  0.55330  0.83463  0.71396  1.0000
  C   C22       1.0  0.44671  0.16536  0.28603  1.0000
  C   C23       1.0  0.70316  0.74951  0.72164  1.0000
  C   C24       1.0  0.29686  0.25049  0.27836  1.0000
  C   C25       1.0  0.74172  0.68923  0.80062  1.0000
  C   C26       1.0  0.25830  0.31076  0.19938  1.0000
  C   C27       1.0  0.63153  0.71400  0.87229  1.0000
  C   C28       1.0  0.36849  0.28599  0.12771  1.0000
  C   C29       1.0  0.48283  0.80019  0.86513  1.0000
  C   C30       1.0  0.51717  0.19980  0.13487  1.0000
  C   C31       1.0  0.44330  0.86001  0.78616  1.0000
  C   C32       1.0  0.55671  0.13998  0.21384  1.0000
  C   C33       1.0  0.26376  0.02408  0.09390  1.0000
  C   C34       1.0  0.73622  0.97594  0.90610  1.0000
  C   C35       1.0  0.08903  0.92004  0.09984  1.0000
  C   C36       1.0  0.91096  0.07996  0.90016  1.0000
  C   C37       1.0  0.06509  0.91691  0.18792  1.0000
  C   C38       1.0  0.93490  0.08309  0.81209  1.0000
  C   C39       1.0  0.91914  0.22898  0.42374  1.0000
  C   C40       1.0  0.08086  0.77102  0.57626  1.0000
  C   C41       1.0  0.18772  0.97435  0.05274  1.0000
  C   C42       1.0  0.81227  0.02566  0.94726  1.0000
  C   C43       1.0  0.21924  0.64586  0.40345  1.0000
  C   C44       1.0  0.78076  0.35414  0.59655  1.0000
  C   C45       1.0  0.35327  0.62389  0.43705  1.0000
  C   C46       1.0  0.64673  0.37611  0.56295  1.0000
  C   C47       1.0  0.23070  0.44882  0.45241  1.0000
  C   C48       1.0  0.76930  0.55117  0.54760  1.0000
  C   C49       1.0  0.42989  0.51184  0.48075  1.0000
  C   C50       1.0  0.57011  0.48815  0.51925  1.0000
  C   C51       1.0  0.36532  0.42389  0.48637  1.0000
  C   C52       1.0  0.63468  0.57611  0.51364  1.0000
  C   C53       1.0  0.15024  0.61951  0.08301  1.0000
  C   C54       1.0  0.84975  0.38049  0.91698  1.0000
  C   C55       1.0  0.15765  0.60974  0.17559  1.0000
  C   C56       1.0  0.84238  0.39026  0.82441  1.0000
  C   C57       1.0  0.28272  0.61052  0.93968  1.0000
  C   C58       1.0  0.71728  0.38951  0.06032  1.0000
  C   C59       1.0  0.28645  0.60206  0.02668  1.0000
  C   C60       1.0  0.71355  0.39795  0.97331  1.0000
  C   C61       1.0  0.01040  0.64562  0.05127  1.0000
  C   C62       1.0  0.98960  0.35438  0.94872  1.0000
  C   C63       1.0  0.14258  0.63841  0.90820  1.0000
  C   C64       1.0  0.85742  0.36161  0.09179  1.0000
  C   C65       1.0  0.00688  0.65584  0.96413  1.0000
  C   C66       1.0  0.99312  0.34415  0.03586  1.0000
  N   N1        1.0  0.15838  0.55959  0.41279  1.0000
  N   N2        1.0  0.84162  0.44040  0.58722  1.0000
  O   O1        1.0  0.36848  0.96181  0.62257  1.0000
  O   O2        1.0  0.63153  0.03818  0.37742  1.0000
  O   O3        1.0  0.61417  0.87261  0.56453  1.0000
  O   O4        1.0  0.38584  0.12738  0.43547  1.0000
  O   O5        1.0  0.03112  0.24756  0.44516  1.0000
  O   O6        1.0  0.96888  0.75244  0.55485  1.0000
  O   O7        1.0  0.19471  0.99944  0.36127  1.0000
  O   O8        1.0  0.80527  0.00057  0.63873  1.0000
  O   O9        1.0  0.00997  0.92431  0.36334  1.0000
  O   O10       1.0  0.99002  0.07569  0.63667  1.0000
  O   O11       1.0  0.89338  0.13270  0.45377  1.0000
  O   O12       1.0  0.10662  0.86730  0.54624  1.0000
  O   O13       1.0  0.43649  0.86420  0.45572  1.0000
  O   O14       1.0  0.56351  0.13580  0.54428  1.0000
  O   O15       1.0  0.20423  0.20545  0.59643  1.0000
  O   O16       1.0  0.79577  0.79455  0.40358  1.0000
  O   O17       1.0  0.02502  0.58321  0.38375  1.0000
  O   O18       1.0  0.97497  0.41678  0.61625  1.0000
  O   O19       1.0  0.01932  0.62943  0.22239  1.0000
  O   O20       1.0  0.98067  0.37058  0.77760  1.0000
  O   O21       1.0  0.27773  0.58504  0.20675  1.0000
  O   O22       1.0  0.72228  0.41495  0.79324  1.0000
