data_image0
_chemical_formula_structural       In4H16C32O20
_chemical_formula_sum              "In4 H16 C32 O20"
_cell_length_a       12.4481
_cell_length_b       12.6864
_cell_length_c       12.6864
_cell_angle_alpha    76.0702
_cell_angle_beta     60.6192
_cell_angle_gamma    60.6185

_space_group_name_H-M_alt    "P 1"
_space_group_IT_number       1

loop_
  _space_group_symop_operation_xyz
  'x, y, z'

loop_
  _atom_site_type_symbol
  _atom_site_label
  _atom_site_symmetry_multiplicity
  _atom_site_fract_x
  _atom_site_fract_y
  _atom_site_fract_z
  _atom_site_occupancy
  In  In1       1.0  0.18597  1.00000  0.62805  1.0000
  In  In2       1.0  0.56402  0.87197  0.50000  1.0000
  In  In3       1.0  0.81403  0.00001  0.37194  1.0000
  In  In4       1.0  0.93598  0.12805  0.49999  1.0000
  H   H1        1.0  0.37499  0.06542  0.43459  1.0000
  H   H2        1.0  0.55962  0.06537  0.56548  1.0000
  H   H3        1.0  0.87500  0.93457  0.56543  1.0000
  H   H4        1.0  0.19038  0.93452  0.43463  1.0000
  H   H5        1.0  0.12570  0.00000  0.00000  1.0000
  H   H6        1.0  0.87569  0.50000  0.50000  1.0000
  H   H7        1.0  0.62431  0.49999  0.50000  1.0000
  H   H8        1.0  0.87430  0.00000  0.00000  1.0000
  H   H9        1.0  0.54655  0.94106  0.81327  1.0000
  H   H10       1.0  0.10982  0.68673  0.44106  1.0000
  H   H11       1.0  0.30087  0.05893  0.18674  1.0000
  H   H12       1.0  0.23761  0.31326  0.55894  1.0000
  H   H13       1.0  0.20346  0.68672  0.55894  1.0000
  H   H14       1.0  0.51239  0.94106  0.18674  1.0000
  H   H15       1.0  0.44914  0.31327  0.44106  1.0000
  H   H16       1.0  0.64018  0.05894  0.81327  1.0000
  C   C1        1.0  0.34603  0.94823  0.77948  1.0000
  C   C2        1.0  0.87551  0.72053  0.44824  1.0000
  C   C3        1.0  0.07373  0.05177  0.22052  1.0000
  C   C4        1.0  0.04426  0.27947  0.55177  1.0000
  C   C5        1.0  0.40396  0.72053  0.55177  1.0000
  C   C6        1.0  0.70574  0.94823  0.22052  1.0000
  C   C7        1.0  0.67627  0.27948  0.44822  1.0000
  C   C8        1.0  0.87449  0.05176  0.77948  1.0000
  C   C9        1.0  0.33645  0.97221  0.89451  1.0000
  C   C10       1.0  0.98096  0.60549  0.47222  1.0000
  C   C11       1.0  0.20317  0.02779  0.10549  1.0000
  C   C12       1.0  0.05867  0.39451  0.52778  1.0000
  C   C13       1.0  0.41356  0.60549  0.52779  1.0000
  C   C14       1.0  0.69134  0.97221  0.10549  1.0000
  C   C15       1.0  0.54683  0.39451  0.47221  1.0000
  C   C16       1.0  0.76903  0.02779  0.89451  1.0000
  C   C17       1.0  0.21315  0.00000  1.00000  1.0000
  C   C18       1.0  0.96315  0.50000  0.50000  1.0000
  C   C19       1.0  0.53686  0.50000  0.50000  1.0000
  C   C20       1.0  0.78685  1.00000  0.00000  1.0000
  C   C21       1.0  0.44999  0.96903  0.89555  1.0000
  C   C22       1.0  0.09554  0.60444  0.46904  1.0000
  C   C23       1.0  0.31458  0.03096  0.10445  1.0000
  C   C24       1.0  0.16903  0.39555  0.53096  1.0000
  C   C25       1.0  0.30002  0.60444  0.53097  1.0000
  C   C26       1.0  0.58097  0.96904  0.10445  1.0000
  C   C27       1.0  0.43543  0.39555  0.46904  1.0000
  C   C28       1.0  0.65445  0.03096  0.89556  1.0000
  C   C29       1.0  0.44043  1.00000  0.00000  1.0000
  C   C30       1.0  0.19044  0.49999  0.50000  1.0000
  C   C31       1.0  0.30958  0.50000  0.50000  1.0000
  C   C32       1.0  0.55956  0.00000  0.00001  1.0000
  O   O1        1.0  0.37500  0.00341  0.49659  1.0000
  O   O2        1.0  0.62153  0.00350  0.50335  1.0000
  O   O3        1.0  0.87500  0.99658  0.50342  1.0000
  O   O4        1.0  0.12847  0.99665  0.49651  1.0000
  O   O5        1.0  0.23232  0.99547  0.77270  1.0000
  O   O6        1.0  0.75500  0.72733  0.49551  1.0000
  O   O7        1.0  0.00051  0.00449  0.22730  1.0000
  O   O8        1.0  0.97780  0.27269  0.50452  1.0000
  O   O9        1.0  0.51768  0.72731  0.50453  1.0000
  O   O10       1.0  0.77219  0.99549  0.22731  1.0000
  O   O11       1.0  0.74950  0.27269  0.49550  1.0000
  O   O12       1.0  0.99499  0.00449  0.77269  1.0000
  O   O13       1.0  0.46498  0.88546  0.69913  1.0000
  O   O14       1.0  0.91411  0.80086  0.38543  1.0000
  O   O15       1.0  0.04951  0.11458  0.30085  1.0000
  O   O16       1.0  0.10039  0.19914  0.61458  1.0000
  O   O17       1.0  0.28502  0.80086  0.61456  1.0000
  O   O18       1.0  0.64961  0.88542  0.30086  1.0000
  O   O19       1.0  0.70049  0.19916  0.38541  1.0000
  O   O20       1.0  0.83589  0.11457  0.69914  1.0000
