data_image0
_chemical_formula_structural       Sm4H24C12N24O24
_chemical_formula_sum              "Sm4 H24 C12 N24 O24"
_cell_length_a       8.99871
_cell_length_b       10.2042
_cell_length_c       12.7988
_cell_angle_alpha    90.0002
_cell_angle_beta     90.0005
_cell_angle_gamma    106.655

_space_group_name_H-M_alt    "P 1"
_space_group_IT_number       1

loop_
  _space_group_symop_operation_xyz
  'x, y, z'

loop_
  _atom_site_type_symbol
  _atom_site_label
  _atom_site_symmetry_multiplicity
  _atom_site_fract_x
  _atom_site_fract_y
  _atom_site_fract_z
  _atom_site_occupancy
  Sm  Sm1       1.0  0.22073  0.13126  0.32203  1.0000
  Sm  Sm2       1.0  0.72073  0.13126  0.67797  1.0000
  Sm  Sm3       1.0  0.85520  0.57357  0.17415  1.0000
  Sm  Sm4       1.0  0.35519  0.57356  0.82585  1.0000
  H   H1        1.0  0.85815  0.51706  0.42295  1.0000
  H   H2        1.0  0.35815  0.51706  0.57705  1.0000
  H   H3        1.0  0.82138  0.65784  0.39411  1.0000
  H   H4        1.0  0.32137  0.65784  0.60590  1.0000
  H   H5        1.0  0.91934  0.85147  0.26949  1.0000
  H   H6        1.0  0.41934  0.85146  0.73052  1.0000
  H   H7        1.0  0.74252  0.83719  0.24224  1.0000
  H   H8        1.0  0.24252  0.83719  0.75777  1.0000
  H   H9        1.0  0.89652  0.35168  0.00526  1.0000
  H   H10       1.0  0.39653  0.35169  0.99474  1.0000
  H   H11       1.0  0.94180  0.49718  0.95445  1.0000
  H   H12       1.0  0.44180  0.49718  0.04556  1.0000
  H   H13       1.0  0.08239  0.48031  0.30746  1.0000
  H   H14       1.0  0.58238  0.48030  0.69254  1.0000
  H   H15       1.0  0.15827  0.47253  0.19806  1.0000
  H   H16       1.0  0.65826  0.47252  0.80194  1.0000
  H   H17       1.0  0.70115  0.67341  0.98141  1.0000
  H   H18       1.0  0.20115  0.67342  0.01859  1.0000
  H   H19       1.0  0.83352  0.79231  0.02453  1.0000
  H   H20       1.0  0.33353  0.79231  0.97547  1.0000
  H   H21       1.0  0.99656  0.12431  0.13924  1.0000
  H   H22       1.0  0.49657  0.12431  0.86076  1.0000
  H   H23       1.0  0.92157  0.17567  0.23814  1.0000
  H   H24       1.0  0.42157  0.17567  0.76186  1.0000
  C   C1        1.0  0.45983  0.19607  0.52105  1.0000
  C   C2        1.0  0.95982  0.19608  0.47895  1.0000
  C   C3        1.0  0.43068  0.04625  0.50710  1.0000
  C   C4        1.0  0.93068  0.04624  0.49288  1.0000
  C   C5        1.0  0.26507  0.97022  0.09566  1.0000
  C   C6        1.0  0.76507  0.97021  0.90434  1.0000
  C   C7        1.0  0.15362  0.86346  0.15789  1.0000
  C   C8        1.0  0.65362  0.86346  0.84211  1.0000
  C   C9        1.0  0.57462  0.30580  0.24555  1.0000
  C   C10       1.0  0.07462  0.30578  0.75446  1.0000
  C   C11       1.0  0.48679  0.40390  0.21988  1.0000
  C   C12       1.0  0.98680  0.40389  0.78012  1.0000
  N   N1        1.0  0.37881  0.27162  0.47535  1.0000
  N   N2        1.0  0.87881  0.27162  0.52465  1.0000
  N   N3        1.0  0.43719  0.39802  0.51398  1.0000
  N   N4        1.0  0.93719  0.39802  0.48602  1.0000
  N   N5        1.0  0.55116  0.39777  0.57956  1.0000
  N   N6        1.0  0.05116  0.39778  0.42044  1.0000
  N   N7        1.0  0.56699  0.27203  0.58552  1.0000
  N   N8        1.0  0.06699  0.27203  0.41448  1.0000
  N   N9        1.0  0.29013  0.10280  0.12038  1.0000
  N   N10       1.0  0.79013  0.10279  0.87961  1.0000
  N   N11       1.0  0.38485  0.17267  0.04627  1.0000
  N   N12       1.0  0.88485  0.17267  0.95373  1.0000
  N   N13       1.0  0.41831  0.08439  0.98071  1.0000
  N   N14       1.0  0.91831  0.08439  0.01929  1.0000
  N   N15       1.0  0.34371  0.95668  0.00911  1.0000
  N   N16       1.0  0.84370  0.95668  0.99089  1.0000
  N   N17       1.0  0.72643  0.32885  0.22778  1.0000
  N   N18       1.0  0.22642  0.32884  0.77222  1.0000
  N   N19       1.0  0.75750  0.21383  0.25838  1.0000
  N   N20       1.0  0.25751  0.21383  0.74161  1.0000
  N   N21       1.0  0.62966  0.12379  0.29186  1.0000
  N   N22       1.0  0.12966  0.12378  0.70813  1.0000
  N   N23       1.0  0.51282  0.18046  0.28458  1.0000
  N   N24       1.0  0.01282  0.18044  0.71542  1.0000
  O   O1        1.0  0.83238  0.57283  0.36507  1.0000
  O   O2        1.0  0.33237  0.57282  0.63493  1.0000
  O   O3        1.0  0.81708  0.78587  0.25274  1.0000
  O   O4        1.0  0.31708  0.78586  0.74727  1.0000
  O   O5        1.0  0.90140  0.44876  0.01985  1.0000
  O   O6        1.0  0.40140  0.44876  0.98015  1.0000
  O   O7        1.0  0.07902  0.50668  0.23145  1.0000
  O   O8        1.0  0.57902  0.50668  0.76855  1.0000
  O   O9        1.0  0.79460  0.68916  0.02502  1.0000
  O   O10       1.0  0.29459  0.68916  0.97498  1.0000
  O   O11       1.0  0.01443  0.14634  0.21537  1.0000
  O   O12       1.0  0.51444  0.14635  0.78463  1.0000
  O   O13       1.0  0.33141  0.98933  0.43912  1.0000
  O   O14       1.0  0.83140  0.98933  0.56087  1.0000
  O   O15       1.0  0.50828  0.99152  0.56740  1.0000
  O   O16       1.0  0.00827  0.99152  0.43260  1.0000
  O   O17       1.0  0.12356  0.90041  0.24840  1.0000
  O   O18       1.0  0.62355  0.90040  0.75160  1.0000
  O   O19       1.0  0.08861  0.74756  0.11712  1.0000
  O   O20       1.0  0.58860  0.74756  0.88288  1.0000
  O   O21       1.0  0.56510  0.51373  0.17345  1.0000
  O   O22       1.0  0.06509  0.51372  0.82655  1.0000
  O   O23       1.0  0.34380  0.36945  0.24137  1.0000
  O   O24       1.0  0.84381  0.36943  0.75862  1.0000
