data_image0
_chemical_formula_structural       Gd4H24C12N24O24
_chemical_formula_sum              "Gd4 H24 C12 N24 O24"
_cell_length_a       8.89048
_cell_length_b       10.1006
_cell_length_c       12.7618
_cell_angle_alpha    90.0002
_cell_angle_beta     89.9995
_cell_angle_gamma    106.475

_space_group_name_H-M_alt    "P 1"
_space_group_IT_number       1

loop_
  _space_group_symop_operation_xyz
  'x, y, z'

loop_
  _atom_site_type_symbol
  _atom_site_label
  _atom_site_symmetry_multiplicity
  _atom_site_fract_x
  _atom_site_fract_y
  _atom_site_fract_z
  _atom_site_occupancy
  Gd  Gd1       1.0  0.22409  0.12946  0.32218  1.0000
  Gd  Gd2       1.0  0.72410  0.12946  0.67783  1.0000
  Gd  Gd3       1.0  0.85352  0.57778  0.17638  1.0000
  Gd  Gd4       1.0  0.35353  0.57779  0.82361  1.0000
  H   H1        1.0  0.85077  0.51502  0.42217  1.0000
  H   H2        1.0  0.35076  0.51502  0.57782  1.0000
  H   H3        1.0  0.81465  0.65830  0.39479  1.0000
  H   H4        1.0  0.31466  0.65830  0.60520  1.0000
  H   H5        1.0  0.74719  0.84463  0.24243  1.0000
  H   H6        1.0  0.24720  0.84464  0.75756  1.0000
  H   H7        1.0  0.92354  0.85450  0.27304  1.0000
  H   H8        1.0  0.42355  0.85451  0.72696  1.0000
  H   H9        1.0  0.90058  0.35733  0.00866  1.0000
  H   H10       1.0  0.40058  0.35734  0.99133  1.0000
  H   H11       1.0  0.93979  0.50340  0.95722  1.0000
  H   H12       1.0  0.43979  0.50340  0.04277  1.0000
  H   H13       1.0  0.07946  0.48259  0.30912  1.0000
  H   H14       1.0  0.57946  0.48259  0.69087  1.0000
  H   H15       1.0  0.16224  0.48730  0.19968  1.0000
  H   H16       1.0  0.66225  0.48732  0.80032  1.0000
  H   H17       1.0  0.69166  0.67566  0.98842  1.0000
  H   H18       1.0  0.19166  0.67565  0.01159  1.0000
  H   H19       1.0  0.83187  0.79420  0.02708  1.0000
  H   H20       1.0  0.33186  0.79420  0.97291  1.0000
  H   H21       1.0  0.00047  0.12145  0.14092  1.0000
  H   H22       1.0  0.50047  0.12146  0.85908  1.0000
  H   H23       1.0  0.92435  0.17340  0.23967  1.0000
  H   H24       1.0  0.42436  0.17341  0.76034  1.0000
  C   C1        1.0  0.46276  0.19304  0.52018  1.0000
  C   C2        1.0  0.96278  0.19306  0.47982  1.0000
  C   C3        1.0  0.43811  0.04285  0.50437  1.0000
  C   C4        1.0  0.93811  0.04286  0.49565  1.0000
  C   C5        1.0  0.26807  0.97172  0.09521  1.0000
  C   C6        1.0  0.76806  0.97173  0.90479  1.0000
  C   C7        1.0  0.15553  0.86393  0.15767  1.0000
  C   C8        1.0  0.65555  0.86395  0.84233  1.0000
  C   C9        1.0  0.57569  0.30837  0.24592  1.0000
  C   C10       1.0  0.07569  0.30838  0.75407  1.0000
  C   C11       1.0  0.48497  0.40632  0.22078  1.0000
  C   C12       1.0  0.98498  0.40633  0.77921  1.0000
  N   N1        1.0  0.37887  0.26792  0.47447  1.0000
  N   N2        1.0  0.87889  0.26793  0.52554  1.0000
  N   N3        1.0  0.43342  0.39501  0.51487  1.0000
  N   N4        1.0  0.93344  0.39503  0.48514  1.0000
  N   N5        1.0  0.54811  0.39563  0.58139  1.0000
  N   N6        1.0  0.04812  0.39564  0.41861  1.0000
  N   N7        1.0  0.56803  0.26984  0.58648  1.0000
  N   N8        1.0  0.06804  0.26985  0.41352  1.0000
  N   N9        1.0  0.29375  0.10527  0.12097  1.0000
  N   N10       1.0  0.79375  0.10528  0.87904  1.0000
  N   N11       1.0  0.38932  0.17646  0.04669  1.0000
  N   N12       1.0  0.88932  0.17647  0.95331  1.0000
  N   N13       1.0  0.42311  0.08786  0.98039  1.0000
  N   N14       1.0  0.92313  0.08787  0.01961  1.0000
  N   N15       1.0  0.34737  0.95874  0.00813  1.0000
  N   N16       1.0  0.84737  0.95875  0.99187  1.0000
  N   N17       1.0  0.72920  0.33288  0.22751  1.0000
  N   N18       1.0  0.22920  0.33289  0.77249  1.0000
  N   N19       1.0  0.76241  0.21711  0.25728  1.0000
  N   N20       1.0  0.26242  0.21711  0.74272  1.0000
  N   N21       1.0  0.63422  0.12517  0.29089  1.0000
  N   N22       1.0  0.13422  0.12517  0.70913  1.0000
  N   N23       1.0  0.51495  0.18151  0.28455  1.0000
  N   N24       1.0  0.01495  0.18151  0.71545  1.0000
  O   O1        1.0  0.82404  0.57216  0.36496  1.0000
  O   O2        1.0  0.32404  0.57217  0.63504  1.0000
  O   O3        1.0  0.81964  0.79019  0.25521  1.0000
  O   O4        1.0  0.31964  0.79020  0.74479  1.0000
  O   O5        1.0  0.90407  0.45488  0.02364  1.0000
  O   O6        1.0  0.40406  0.45488  0.97636  1.0000
  O   O7        1.0  0.07814  0.51555  0.23409  1.0000
  O   O8        1.0  0.57815  0.51556  0.76590  1.0000
  O   O9        1.0  0.78799  0.69033  0.03010  1.0000
  O   O10       1.0  0.28799  0.69033  0.96990  1.0000
  O   O11       1.0  0.01442  0.13692  0.21831  1.0000
  O   O12       1.0  0.51443  0.13694  0.78170  1.0000
  O   O13       1.0  0.33995  0.98537  0.43507  1.0000
  O   O14       1.0  0.83996  0.98538  0.56492  1.0000
  O   O15       1.0  0.51829  0.98882  0.56479  1.0000
  O   O16       1.0  0.01830  0.98884  0.43521  1.0000
  O   O17       1.0  0.13093  0.89930  0.25015  1.0000
  O   O18       1.0  0.63093  0.89932  0.74984  1.0000
  O   O19       1.0  0.08409  0.74940  0.11525  1.0000
  O   O20       1.0  0.58410  0.74940  0.88475  1.0000
  O   O21       1.0  0.56294  0.51786  0.17483  1.0000
  O   O22       1.0  0.06294  0.51787  0.82517  1.0000
  O   O23       1.0  0.34033  0.36991  0.24241  1.0000
  O   O24       1.0  0.84033  0.36992  0.75759  1.0000
