data_image0
_chemical_formula_structural       Tb4H24C12N24O24
_chemical_formula_sum              "Tb4 H24 C12 N24 O24"
_cell_length_a       8.95272
_cell_length_b       9.21714
_cell_length_c       12.9954
_cell_angle_alpha    90.0014
_cell_angle_beta     89.9982
_cell_angle_gamma    104.971

_space_group_name_H-M_alt    "P 1"
_space_group_IT_number       1

loop_
  _space_group_symop_operation_xyz
  'x, y, z'

loop_
  _atom_site_type_symbol
  _atom_site_label
  _atom_site_symmetry_multiplicity
  _atom_site_fract_x
  _atom_site_fract_y
  _atom_site_fract_z
  _atom_site_occupancy
  Tb  Tb1       1.0  0.22514  0.62871  0.31686  1.0000
  Tb  Tb2       1.0  0.72517  0.62876  0.68315  1.0000
  Tb  Tb3       1.0  0.85400  0.09513  0.20662  1.0000
  Tb  Tb4       1.0  0.35403  0.09516  0.79338  1.0000
  H   H1        1.0  0.88575  0.06478  0.44187  1.0000
  H   H2        1.0  0.38576  0.06476  0.55812  1.0000
  H   H3        1.0  0.89562  0.23704  0.41379  1.0000
  H   H4        1.0  0.39564  0.23704  0.58620  1.0000
  H   H5        1.0  0.68978  0.33112  0.25309  1.0000
  H   H6        1.0  0.18981  0.33113  0.74692  1.0000
  H   H7        1.0  0.85781  0.38953  0.29735  1.0000
  H   H8        1.0  0.35782  0.38953  0.70264  1.0000
  H   H9        1.0  0.92728  0.86893  0.01144  1.0000
  H   H10       1.0  0.42731  0.86897  0.98856  1.0000
  H   H11       1.0  0.04075  0.03309  0.01513  1.0000
  H   H12       1.0  0.54080  0.03312  0.98488  1.0000
  H   H13       1.0  0.09667  0.00575  0.32776  1.0000
  H   H14       1.0  0.59667  0.00575  0.67221  1.0000
  H   H15       1.0  0.14924  0.98276  0.21570  1.0000
  H   H16       1.0  0.64929  0.98281  0.78427  1.0000
  H   H17       1.0  0.81372  0.10230  0.00049  1.0000
  H   H18       1.0  0.31373  0.10229  0.99951  1.0000
  H   H19       1.0  0.76442  0.25207  0.03141  1.0000
  H   H20       1.0  0.26442  0.25207  0.96859  1.0000
  H   H21       1.0  0.99801  0.62555  0.14222  1.0000
  H   H22       1.0  0.49802  0.62557  0.85779  1.0000
  H   H23       1.0  0.92878  0.67585  0.24332  1.0000
  H   H24       1.0  0.42880  0.67587  0.75669  1.0000
  C   C1        1.0  0.44720  0.67766  0.52060  1.0000
  C   C2        1.0  0.94722  0.67770  0.47940  1.0000
  C   C3        1.0  0.39367  0.51205  0.51299  1.0000
  C   C4        1.0  0.89369  0.51209  0.48702  1.0000
  C   C5        1.0  0.24970  0.46805  0.09038  1.0000
  C   C6        1.0  0.74972  0.46807  0.90962  1.0000
  C   C7        1.0  0.13606  0.36051  0.15339  1.0000
  C   C8        1.0  0.63608  0.36053  0.84661  1.0000
  C   C9        1.0  0.57354  0.80495  0.26245  1.0000
  C   C10       1.0  0.07355  0.80499  0.73755  1.0000
  C   C11       1.0  0.48931  0.92244  0.24778  1.0000
  C   C12       1.0  0.98933  0.92249  0.75222  1.0000
  N   N1        1.0  0.37924  0.76918  0.46952  1.0000
  N   N2        1.0  0.87925  0.76923  0.53048  1.0000
  N   N3        1.0  0.45351  0.90841  0.49894  1.0000
  N   N4        1.0  0.95353  0.90845  0.50106  1.0000
  N   N5        1.0  0.56453  0.90011  0.56412  1.0000
  N   N6        1.0  0.06455  0.90014  0.43587  1.0000
  N   N7        1.0  0.56231  0.75589  0.57944  1.0000
  N   N8        1.0  0.06232  0.75593  0.42056  1.0000
  N   N9        1.0  0.30243  0.61149  0.11969  1.0000
  N   N10       1.0  0.80245  0.61151  0.88031  1.0000
  N   N11       1.0  0.39666  0.67755  0.04359  1.0000
  N   N12       1.0  0.89666  0.67756  0.95642  1.0000
  N   N13       1.0  0.40178  0.57491  0.97263  1.0000
  N   N14       1.0  0.90178  0.57492  0.02738  1.0000
  N   N15       1.0  0.30886  0.44222  0.99969  1.0000
  N   N16       1.0  0.80886  0.44223  0.00031  1.0000
  N   N17       1.0  0.72644  0.82941  0.25052  1.0000
  N   N18       1.0  0.22645  0.82945  0.74949  1.0000
  N   N19       1.0  0.75554  0.69654  0.27071  1.0000
  N   N20       1.0  0.25555  0.69657  0.72931  1.0000
  N   N21       1.0  0.62608  0.59556  0.29354  1.0000
  N   N22       1.0  0.12610  0.59560  0.70647  1.0000
  N   N23       1.0  0.50951  0.66226  0.28881  1.0000
  N   N24       1.0  0.00953  0.66230  0.71119  1.0000
  O   O1        1.0  0.86566  0.13208  0.38700  1.0000
  O   O2        1.0  0.36568  0.13207  0.61299  1.0000
  O   O3        1.0  0.79698  0.32978  0.24099  1.0000
  O   O4        1.0  0.29702  0.32980  0.75900  1.0000
  O   O5        1.0  0.94212  0.97042  0.04277  1.0000
  O   O6        1.0  0.44217  0.97045  0.95723  1.0000
  O   O7        1.0  0.08232  0.03212  0.25399  1.0000
  O   O8        1.0  0.58233  0.03215  0.74599  1.0000
  O   O9        1.0  0.74024  0.13955  0.04268  1.0000
  O   O10       1.0  0.24024  0.13954  0.95731  1.0000
  O   O11       1.0  0.02887  0.66366  0.21360  1.0000
  O   O12       1.0  0.52888  0.66368  0.78641  1.0000
  O   O13       1.0  0.29558  0.46156  0.44330  1.0000
  O   O14       1.0  0.79560  0.46159  0.55670  1.0000
  O   O15       1.0  0.45064  0.43841  0.57885  1.0000
  O   O16       1.0  0.95066  0.43845  0.42115  1.0000
  O   O17       1.0  0.13208  0.38861  0.24896  1.0000
  O   O18       1.0  0.63211  0.38865  0.75104  1.0000
  O   O19       1.0  0.04598  0.25053  0.10841  1.0000
  O   O20       1.0  0.54601  0.25055  0.89158  1.0000
  O   O21       1.0  0.57288  0.05158  0.22494  1.0000
  O   O22       1.0  0.07290  0.05163  0.77505  1.0000
  O   O23       1.0  0.34323  0.88121  0.25855  1.0000
  O   O24       1.0  0.84325  0.88125  0.74146  1.0000
