data_image0
_chemical_formula_structural       Dy4H24C12N24O24
_chemical_formula_sum              "Dy4 H24 C12 N24 O24"
_cell_length_a       8.84273
_cell_length_b       10.0873
_cell_length_c       12.6869
_cell_angle_alpha    89.9997
_cell_angle_beta     90.0002
_cell_angle_gamma    106.849

_space_group_name_H-M_alt    "P 1"
_space_group_IT_number       1

loop_
  _space_group_symop_operation_xyz
  'x, y, z'

loop_
  _atom_site_type_symbol
  _atom_site_label
  _atom_site_symmetry_multiplicity
  _atom_site_fract_x
  _atom_site_fract_y
  _atom_site_fract_z
  _atom_site_occupancy
  Dy  Dy1       1.0  0.22166  0.13072  0.32302  1.0000
  Dy  Dy2       1.0  0.72167  0.13071  0.67698  1.0000
  Dy  Dy3       1.0  0.85010  0.57979  0.17631  1.0000
  Dy  Dy4       1.0  0.35010  0.57979  0.82369  1.0000
  H   H1        1.0  0.84791  0.51577  0.42150  1.0000
  H   H2        1.0  0.34792  0.51577  0.57849  1.0000
  H   H3        1.0  0.81077  0.65880  0.39454  1.0000
  H   H4        1.0  0.31077  0.65880  0.60545  1.0000
  H   H5        1.0  0.74257  0.84341  0.24043  1.0000
  H   H6        1.0  0.24256  0.84341  0.75957  1.0000
  H   H7        1.0  0.92013  0.85536  0.27261  1.0000
  H   H8        1.0  0.42012  0.85536  0.72738  1.0000
  H   H9        1.0  0.89804  0.35994  0.01013  1.0000
  H   H10       1.0  0.39804  0.35994  0.98987  1.0000
  H   H11       1.0  0.93452  0.50565  0.95713  1.0000
  H   H12       1.0  0.43454  0.50566  0.04288  1.0000
  H   H13       1.0  0.07619  0.48502  0.30897  1.0000
  H   H14       1.0  0.57620  0.48501  0.69103  1.0000
  H   H15       1.0  0.15728  0.49195  0.19789  1.0000
  H   H16       1.0  0.65728  0.49195  0.80211  1.0000
  H   H17       1.0  0.68780  0.67455  0.98897  1.0000
  H   H18       1.0  0.18780  0.67456  0.01103  1.0000
  H   H19       1.0  0.83018  0.79437  0.02646  1.0000
  H   H20       1.0  0.33019  0.79437  0.97354  1.0000
  H   H21       1.0  0.00016  0.12096  0.14216  1.0000
  H   H22       1.0  0.50016  0.12094  0.85783  1.0000
  H   H23       1.0  0.92313  0.17478  0.24003  1.0000
  H   H24       1.0  0.42313  0.17475  0.75996  1.0000
  C   C1        1.0  0.46080  0.19391  0.52022  1.0000
  C   C2        1.0  0.96080  0.19392  0.47978  1.0000
  C   C3        1.0  0.43678  0.04381  0.50347  1.0000
  C   C4        1.0  0.93677  0.04382  0.49654  1.0000
  C   C5        1.0  0.26687  0.97306  0.09554  1.0000
  C   C6        1.0  0.76687  0.97306  0.90447  1.0000
  C   C7        1.0  0.15287  0.86559  0.15852  1.0000
  C   C8        1.0  0.65288  0.86558  0.84149  1.0000
  C   C9        1.0  0.57277  0.31101  0.24567  1.0000
  C   C10       1.0  0.07278  0.31101  0.75433  1.0000
  C   C11       1.0  0.48160  0.40886  0.22166  1.0000
  C   C12       1.0  0.98160  0.40885  0.77834  1.0000
  N   N1        1.0  0.37598  0.26819  0.47447  1.0000
  N   N2        1.0  0.87597  0.26819  0.52553  1.0000
  N   N3        1.0  0.43116  0.39584  0.51494  1.0000
  N   N4        1.0  0.93115  0.39584  0.48506  1.0000
  N   N5        1.0  0.54703  0.39717  0.58158  1.0000
  N   N6        1.0  0.04703  0.39718  0.41842  1.0000
  N   N7        1.0  0.56717  0.27136  0.58665  1.0000
  N   N8        1.0  0.06717  0.27136  0.41336  1.0000
  N   N9        1.0  0.29280  0.10711  0.12084  1.0000
  N   N10       1.0  0.79280  0.10711  0.87916  1.0000
  N   N11       1.0  0.38953  0.17829  0.04608  1.0000
  N   N12       1.0  0.88953  0.17829  0.95392  1.0000
  N   N13       1.0  0.42349  0.08912  0.97990  1.0000
  N   N14       1.0  0.92349  0.08912  0.02010  1.0000
  N   N15       1.0  0.34692  0.95962  0.00827  1.0000
  N   N16       1.0  0.84691  0.95962  0.99173  1.0000
  N   N17       1.0  0.72693  0.33620  0.22589  1.0000
  N   N18       1.0  0.22694  0.33620  0.77411  1.0000
  N   N19       1.0  0.76033  0.21997  0.25471  1.0000
  N   N20       1.0  0.26033  0.21997  0.74529  1.0000
  N   N21       1.0  0.63149  0.12734  0.28920  1.0000
  N   N22       1.0  0.13150  0.12734  0.71081  1.0000
  N   N23       1.0  0.51166  0.18360  0.28435  1.0000
  N   N24       1.0  0.01166  0.18359  0.71565  1.0000
  O   O1        1.0  0.82091  0.57303  0.36415  1.0000
  O   O2        1.0  0.32092  0.57303  0.63584  1.0000
  O   O3        1.0  0.81559  0.78979  0.25471  1.0000
  O   O4        1.0  0.31558  0.78978  0.74528  1.0000
  O   O5        1.0  0.90010  0.45746  0.02436  1.0000
  O   O6        1.0  0.40010  0.45746  0.97564  1.0000
  O   O7        1.0  0.07296  0.51869  0.23381  1.0000
  O   O8        1.0  0.57297  0.51870  0.76619  1.0000
  O   O9        1.0  0.78585  0.69006  0.02973  1.0000
  O   O10       1.0  0.28585  0.69007  0.97027  1.0000
  O   O11       1.0  0.01254  0.13618  0.22024  1.0000
  O   O12       1.0  0.51252  0.13614  0.77975  1.0000
  O   O13       1.0  0.33763  0.98612  0.43383  1.0000
  O   O14       1.0  0.83764  0.98613  0.56618  1.0000
  O   O15       1.0  0.51873  0.99040  0.56351  1.0000
  O   O16       1.0  0.01874  0.99040  0.43649  1.0000
  O   O17       1.0  0.12815  0.90203  0.25121  1.0000
  O   O18       1.0  0.62816  0.90202  0.74878  1.0000
  O   O19       1.0  0.08008  0.75049  0.11618  1.0000
  O   O20       1.0  0.58008  0.75049  0.88383  1.0000
  O   O21       1.0  0.56033  0.52148  0.17595  1.0000
  O   O22       1.0  0.06034  0.52148  0.82405  1.0000
  O   O23       1.0  0.33601  0.37119  0.24372  1.0000
  O   O24       1.0  0.83603  0.37119  0.75629  1.0000
