data_image0
_chemical_formula_structural       Co2H34C32N4O8
_chemical_formula_sum              "Co2 H34 C32 N4 O8"
_cell_length_a       7.96738
_cell_length_b       10.7634
_cell_length_c       10.9928
_cell_angle_alpha    99.2886
_cell_angle_beta     105.059
_cell_angle_gamma    113.866

_space_group_name_H-M_alt    "P 1"
_space_group_IT_number       1

loop_
  _space_group_symop_operation_xyz
  'x, y, z'

loop_
  _atom_site_type_symbol
  _atom_site_label
  _atom_site_symmetry_multiplicity
  _atom_site_fract_x
  _atom_site_fract_y
  _atom_site_fract_z
  _atom_site_occupancy
  Co  Co1       1.0  0.44366  0.48360  0.58778  1.0000
  Co  Co2       1.0  0.55633  0.51639  0.41221  1.0000
  H   H1        1.0  0.28589  0.90930  0.62751  1.0000
  H   H2        1.0  0.71412  0.09069  0.37253  1.0000
  H   H3        1.0  0.55742  0.15899  0.71362  1.0000
  H   H4        1.0  0.44258  0.84100  0.28641  1.0000
  H   H5        1.0  0.24098  0.21114  0.67340  1.0000
  H   H6        1.0  0.75905  0.78886  0.32660  1.0000
  H   H7        1.0  0.15143  0.20706  0.90363  1.0000
  H   H8        1.0  0.84858  0.79294  0.09637  1.0000
  H   H9        1.0  0.96117  0.06705  0.30763  1.0000
  H   H10       1.0  0.03884  0.93296  0.69236  1.0000
  H   H11       1.0  0.16335  0.03273  0.33240  1.0000
  H   H12       1.0  0.83665  0.96728  0.66758  1.0000
  H   H13       1.0  0.80164  0.09088  0.08921  1.0000
  H   H14       1.0  0.19836  0.90914  0.91077  1.0000
  H   H15       1.0  0.10762  0.67439  0.29313  1.0000
  H   H16       1.0  0.89240  0.32563  0.70688  1.0000
  H   H17       1.0  0.07543  0.68866  0.44836  1.0000
  H   H18       1.0  0.92456  0.31133  0.55164  1.0000
  H   H19       1.0  0.34310  0.58283  0.10254  1.0000
  H   H20       1.0  0.65689  0.41717  0.89746  1.0000
  H   H21       1.0  0.26942  0.40774  0.10982  1.0000
  H   H22       1.0  0.73058  0.59226  0.89018  1.0000
  H   H23       1.0  0.49469  0.71577  0.83241  1.0000
  H   H24       1.0  0.50529  0.28423  0.16757  1.0000
  H   H25       1.0  0.46437  0.72211  0.98812  1.0000
  H   H26       1.0  0.53562  0.27789  0.01187  1.0000
  H   H27       1.0  0.26678  0.69180  0.84578  1.0000
  H   H28       1.0  0.73319  0.30819  0.15421  1.0000
  H   H29       1.0  0.02120  0.46984  0.13388  1.0000
  H   H30       1.0  0.97881  0.53016  0.86613  1.0000
  H   H31       1.0  0.91883  0.33874  0.97924  1.0000
  H   H32       1.0  0.08116  0.66125  0.02076  1.0000
  H   H33       1.0  0.28286  0.99166  0.15343  1.0000
  H   H34       1.0  0.71714  0.00836  0.84655  1.0000
  C   C1        1.0  0.37986  0.94935  0.57131  1.0000
  C   C2        1.0  0.62013  0.05064  0.42871  1.0000
  C   C3        1.0  0.53380  0.08853  0.62051  1.0000
  C   C4        1.0  0.46622  0.91146  0.37953  1.0000
  C   C5        1.0  0.28248  0.61333  0.42979  1.0000
  C   C6        1.0  0.71751  0.38667  0.57021  1.0000
  C   C7        1.0  0.25519  0.29610  0.74988  1.0000
  C   C8        1.0  0.74482  0.70390  0.25013  1.0000
  C   C9        1.0  0.20965  0.29225  0.86177  1.0000
  C   C10       1.0  0.79036  0.70775  0.13823  1.0000
  C   C11       1.0  0.23801  0.24905  0.35842  1.0000
  C   C12       1.0  0.76200  0.75096  0.64157  1.0000
  C   C13       1.0  0.09573  0.09248  0.28510  1.0000
  C   C14       1.0  0.90427  0.90753  0.71488  1.0000
  C   C15       1.0  0.04922  0.04787  0.13847  1.0000
  C   C16       1.0  0.95078  0.95213  0.86151  1.0000
  C   C17       1.0  0.88956  0.05121  0.05035  1.0000
  C   C18       1.0  0.11044  0.94880  0.94963  1.0000
  C   C19       1.0  0.18392  0.70541  0.40031  1.0000
  C   C20       1.0  0.81608  0.29459  0.59970  1.0000
  C   C21       1.0  0.34328  0.85875  0.44995  1.0000
  C   C22       1.0  0.65672  0.14125  0.55008  1.0000
  C   C23       1.0  0.32541  0.51388  0.84883  1.0000
  C   C24       1.0  0.67459  0.48612  0.15116  1.0000
  C   C25       1.0  0.23284  0.47157  0.04985  1.0000
  C   C26       1.0  0.76715  0.52842  0.95015  1.0000
  C   C27       1.0  0.39108  0.66956  0.88111  1.0000
  C   C28       1.0  0.60891  0.33044  0.11888  1.0000
  C   C29       1.0  0.02698  0.45089  0.03408  1.0000
  C   C30       1.0  0.97301  0.54910  0.96592  1.0000
  C   C31       1.0  0.15923  0.99615  0.08596  1.0000
  C   C32       1.0  0.84077  0.00386  0.91403  1.0000
  N   N1        1.0  0.32734  0.43380  0.74333  1.0000
  N   N2        1.0  0.67266  0.56620  0.25667  1.0000
  N   N3        1.0  0.25490  0.43002  0.92398  1.0000
  N   N4        1.0  0.74510  0.56998  0.07601  1.0000
  O   O1        1.0  0.24120  0.29374  0.47423  1.0000
  O   O2        1.0  0.75882  0.70625  0.52576  1.0000
  O   O3        1.0  0.27469  0.56823  0.52963  1.0000
  O   O4        1.0  0.72530  0.43176  0.47037  1.0000
  O   O5        1.0  0.37711  0.59534  0.35645  1.0000
  O   O6        1.0  0.62290  0.40467  0.64355  1.0000
  O   O7        1.0  0.34741  0.32272  0.30323  1.0000
  O   O8        1.0  0.65259  0.67729  0.69676  1.0000
