data_image0
_chemical_formula_structural       Ag2H36C30S2N6O6F6
_chemical_formula_sum              "Ag2 H36 C30 S2 N6 O6 F6"
_cell_length_a       9.3371
_cell_length_b       9.56037
_cell_length_c       11.0473
_cell_angle_alpha    75.1621
_cell_angle_beta     85.5031
_cell_angle_gamma    65.1959

_space_group_name_H-M_alt    "P 1"
_space_group_IT_number       1

loop_
  _space_group_symop_operation_xyz
  'x, y, z'

loop_
  _atom_site_type_symbol
  _atom_site_label
  _atom_site_symmetry_multiplicity
  _atom_site_fract_x
  _atom_site_fract_y
  _atom_site_fract_z
  _atom_site_occupancy
  Ag  Ag1       1.0  0.46169  0.72200  0.34168  1.0000
  Ag  Ag2       1.0  0.53831  0.27800  0.65832  1.0000
  H   H1        1.0  0.79265  0.51759  0.26408  1.0000
  H   H2        1.0  0.20735  0.48241  0.73592  1.0000
  H   H3        1.0  0.06725  0.49386  0.27348  1.0000
  H   H4        1.0  0.93275  0.50614  0.72652  1.0000
  H   H5        1.0  0.89831  0.84066  0.49599  1.0000
  H   H6        1.0  0.10169  0.15934  0.50400  1.0000
  H   H7        1.0  0.62903  0.85911  0.47005  1.0000
  H   H8        1.0  0.37097  0.14089  0.52995  1.0000
  H   H9        1.0  0.19161  0.66367  0.48973  1.0000
  H   H10       1.0  0.80839  0.33633  0.51027  1.0000
  H   H11       1.0  0.25876  0.53748  0.38525  1.0000
  H   H12       1.0  0.74124  0.46252  0.61475  1.0000
  H   H13       1.0  0.12331  0.94137  0.41539  1.0000
  H   H14       1.0  0.87668  0.05864  0.58461  1.0000
  H   H15       1.0  0.98572  0.97382  0.29624  1.0000
  H   H16       1.0  0.01428  0.02618  0.70376  1.0000
  H   H17       1.0  0.09002  0.17724  0.24089  1.0000
  H   H18       1.0  0.90999  0.82276  0.75911  1.0000
  H   H19       1.0  0.28870  0.02849  0.25817  1.0000
  H   H20       1.0  0.71130  0.97151  0.74183  1.0000
  H   H21       1.0  0.37183  0.85196  0.09856  1.0000
  H   H22       1.0  0.62817  0.14804  0.90144  1.0000
  H   H23       1.0  0.22218  0.89342  0.98645  1.0000
  H   H24       1.0  0.77782  0.10658  0.01355  1.0000
  H   H25       1.0  0.06542  0.80506  0.15135  1.0000
  H   H26       1.0  0.93458  0.19493  0.84865  1.0000
  H   H27       1.0  0.26182  0.65390  0.16125  1.0000
  H   H28       1.0  0.73818  0.34610  0.83875  1.0000
  H   H29       1.0  0.20398  0.14662  0.91937  1.0000
  H   H30       1.0  0.79602  0.85338  0.08063  1.0000
  H   H31       1.0  0.32827  0.14215  0.03463  1.0000
  H   H32       1.0  0.67173  0.85784  0.96537  1.0000
  H   H33       1.0  0.88745  0.29903  0.05528  1.0000
  H   H34       1.0  0.11255  0.70097  0.94472  1.0000
  H   H35       1.0  0.28684  0.41591  0.96630  1.0000
  H   H36       1.0  0.71317  0.58408  0.03370  1.0000
  C   C1        1.0  0.82032  0.59073  0.31122  1.0000
  C   C2        1.0  0.17968  0.40927  0.68878  1.0000
  C   C3        1.0  0.97390  0.57669  0.31854  1.0000
  C   C4        1.0  0.02610  0.42330  0.68147  1.0000
  C   C5        1.0  0.00674  0.66720  0.38469  1.0000
  C   C6        1.0  0.99326  0.33280  0.61532  1.0000
  C   C7        1.0  0.88064  0.76885  0.44136  1.0000
  C   C8        1.0  0.11936  0.23114  0.55864  1.0000
  C   C9        1.0  0.72938  0.77967  0.42810  1.0000
  C   C10       1.0  0.27062  0.22033  0.57190  1.0000
  C   C11       1.0  0.17207  0.65360  0.39624  1.0000
  C   C12       1.0  0.82793  0.34640  0.60376  1.0000
  C   C13       1.0  0.11073  0.93982  0.31793  1.0000
  C   C14       1.0  0.88927  0.06018  0.68207  1.0000
  C   C15       1.0  0.16520  0.05705  0.23041  1.0000
  C   C16       1.0  0.83480  0.94295  0.76959  1.0000
  C   C17       1.0  0.24191  0.89290  0.08330  1.0000
  C   C18       1.0  0.75809  0.10710  0.91670  1.0000
  C   C19       1.0  0.19007  0.77436  0.17270  1.0000
  C   C20       1.0  0.80993  0.22564  0.82730  1.0000
  C   C21       1.0  0.20425  0.16603  0.01365  1.0000
  C   C22       1.0  0.79575  0.83397  0.98635  1.0000
  C   C23       1.0  0.09874  0.33760  0.01014  1.0000
  C   C24       1.0  0.90127  0.66240  0.98986  1.0000
  C   C25       1.0  0.93659  0.38741  0.02953  1.0000
  C   C26       1.0  0.06342  0.61259  0.97047  1.0000
  C   C27       1.0  0.16061  0.45227  0.98124  1.0000
  C   C28       1.0  0.83940  0.54773  0.01876  1.0000
  C   C29       1.0  0.52788  0.25062  0.22165  1.0000
  C   C30       1.0  0.47211  0.74939  0.77835  1.0000
  S   S1        1.0  0.63410  0.25991  0.35348  1.0000
  S   S2        1.0  0.36589  0.74009  0.64652  1.0000
  N   N1        1.0  0.69923  0.69211  0.36373  1.0000
  N   N2        1.0  0.30077  0.30789  0.63627  1.0000
  N   N3        1.0  0.20958  0.77674  0.30384  1.0000
  N   N4        1.0  0.79042  0.22326  0.69616  1.0000
  N   N5        1.0  0.15420  0.05303  0.10031  1.0000
  N   N6        1.0  0.84580  0.94697  0.89969  1.0000
  O   O1        1.0  0.53204  0.41651  0.37377  1.0000
  O   O2        1.0  0.46796  0.58348  0.62623  1.0000
  O   O3        1.0  0.63407  0.12687  0.45452  1.0000
  O   O4        1.0  0.36592  0.87313  0.54548  1.0000
  O   O5        1.0  0.78811  0.24404  0.30460  1.0000
  O   O6        1.0  0.21188  0.75596  0.69540  1.0000
  F   F1        1.0  0.37503  0.27962  0.25022  1.0000
  F   F2        1.0  0.62497  0.72039  0.74978  1.0000
  F   F3        1.0  0.52697  0.36099  0.11509  1.0000
  F   F4        1.0  0.47302  0.63902  0.88491  1.0000
  F   F5        1.0  0.59600  0.10515  0.19591  1.0000
  F   F6        1.0  0.40400  0.89486  0.80409  1.0000
