data_image0
_chemical_formula_structural       Fe2Ag4H32C56N16
_chemical_formula_sum              "Fe2 Ag4 H32 C56 N16"
_cell_length_a       9.29416
_cell_length_b       10.7932
_cell_length_c       13.1373
_cell_angle_alpha    90.0028
_cell_angle_beta     92.9726
_cell_angle_gamma    90.0029

_space_group_name_H-M_alt    "P 1"
_space_group_IT_number       1

loop_
  _space_group_symop_operation_xyz
  'x, y, z'

loop_
  _atom_site_type_symbol
  _atom_site_label
  _atom_site_symmetry_multiplicity
  _atom_site_fract_x
  _atom_site_fract_y
  _atom_site_fract_z
  _atom_site_occupancy
  Fe  Fe1       1.0  0.98163  0.49687  0.98980  1.0000
  Fe  Fe2       1.0  0.48163  0.00316  0.48981  1.0000
  Ag  Ag1       1.0  0.26326  0.18089  0.80859  1.0000
  Ag  Ag2       1.0  0.24311  0.68036  0.69169  1.0000
  Ag  Ag3       1.0  0.74309  0.81963  0.19168  1.0000
  Ag  Ag4       1.0  0.76326  0.31913  0.30857  1.0000
  H   H1        1.0  0.33110  0.42783  0.01375  1.0000
  H   H2        1.0  0.17013  0.94139  0.49436  1.0000
  H   H3        1.0  0.67019  0.55881  0.99427  1.0000
  H   H4        1.0  0.83111  0.07231  0.51378  1.0000
  H   H5        1.0  0.54952  0.44694  0.13498  1.0000
  H   H6        1.0  0.95229  0.95885  0.37550  1.0000
  H   H7        1.0  0.45235  0.54130  0.87540  1.0000
  H   H8        1.0  0.04951  0.05325  0.63502  1.0000
  H   H9        1.0  0.28256  0.64827  0.33776  1.0000
  H   H10       1.0  0.22074  0.13894  0.16132  1.0000
  H   H11       1.0  0.72073  0.36087  0.66136  1.0000
  H   H12       1.0  0.78261  0.85165  0.83769  1.0000
  H   H13       1.0  0.07569  0.62020  0.20746  1.0000
  H   H14       1.0  0.42839  0.11189  0.28798  1.0000
  H   H15       1.0  0.92839  0.38795  0.78801  1.0000
  H   H16       1.0  0.57575  0.87972  0.70738  1.0000
  H   H17       1.0  0.87136  0.66560  0.69556  1.0000
  H   H18       1.0  0.63542  0.16494  0.80552  1.0000
  H   H19       1.0  0.13551  0.33491  0.30548  1.0000
  H   H20       1.0  0.37130  0.83424  0.19551  1.0000
  H   H21       1.0  0.64916  0.62050  0.58404  1.0000
  H   H22       1.0  0.85559  0.11912  0.91833  1.0000
  H   H23       1.0  0.35569  0.38071  0.41828  1.0000
  H   H24       1.0  0.14913  0.87940  0.08399  1.0000
  H   H25       1.0  0.91876  0.62653  0.32610  1.0000
  H   H26       1.0  0.58218  0.12333  0.17408  1.0000
  H   H27       1.0  0.08222  0.37669  0.67402  1.0000
  H   H28       1.0  0.41880  0.87362  0.82608  1.0000
  H   H29       1.0  0.12713  0.68282  0.44834  1.0000
  H   H30       1.0  0.37530  0.17913  0.05064  1.0000
  H   H31       1.0  0.87534  0.32092  0.55056  1.0000
  H   H32       1.0  0.62716  0.81728  0.94832  1.0000
  C   C1        1.0  0.13265  0.26794  0.90728  1.0000
  C   C2        1.0  0.36401  0.76950  0.58847  1.0000
  C   C3        1.0  0.86402  0.73053  0.08846  1.0000
  C   C4        1.0  0.63269  0.23206  0.40727  1.0000
  C   C5        1.0  0.15046  0.61175  0.81775  1.0000
  C   C6        1.0  0.34166  0.11366  0.67665  1.0000
  C   C7        1.0  0.84160  0.38638  0.17662  1.0000
  C   C8        1.0  0.65042  0.88824  0.31774  1.0000
  C   C9        1.0  0.32601  0.47615  0.08641  1.0000
  C   C10       1.0  0.17622  0.98440  0.41983  1.0000
  C   C11       1.0  0.67628  0.51572  0.91976  1.0000
  C   C12       1.0  0.82602  0.02397  0.58643  1.0000
  C   C13       1.0  0.44634  0.48690  0.15334  1.0000
  C   C14       1.0  0.05581  0.99472  0.35358  1.0000
  C   C15       1.0  0.55586  0.50536  0.85352  1.0000
  C   C16       1.0  0.94635  0.01323  0.65335  1.0000
  C   C17       1.0  0.43251  0.55006  0.24621  1.0000
  C   C18       1.0  0.06841  0.05099  0.25757  1.0000
  C   C19       1.0  0.56844  0.44900  0.75753  1.0000
  C   C20       1.0  0.93253  0.95000  0.74619  1.0000
  C   C21       1.0  0.29637  0.59848  0.26688  1.0000
  C   C22       1.0  0.20603  0.09380  0.23412  1.0000
  C   C23       1.0  0.70604  0.40610  0.73412  1.0000
  C   C24       1.0  0.79640  0.90151  0.76684  1.0000
  C   C25       1.0  0.18249  0.58310  0.19544  1.0000
  C   C26       1.0  0.32133  0.07926  0.30374  1.0000
  C   C27       1.0  0.82134  0.42065  0.80374  1.0000
  C   C28       1.0  0.68253  0.91688  0.69538  1.0000
  C   C29       1.0  0.87658  0.65849  0.61293  1.0000
  C   C30       1.0  0.62853  0.15673  0.88794  1.0000
  C   C31       1.0  0.12862  0.34317  0.38788  1.0000
  C   C32       1.0  0.37656  0.84143  0.11288  1.0000
  C   C33       1.0  0.75391  0.63144  0.55166  1.0000
  C   C34       1.0  0.75030  0.12942  0.95000  1.0000
  C   C35       1.0  0.25038  0.37045  0.44994  1.0000
  C   C36       1.0  0.25389  0.86850  0.05162  1.0000
  C   C37       1.0  0.76775  0.61882  0.44606  1.0000
  C   C38       1.0  0.73508  0.11623  0.05544  1.0000
  C   C39       1.0  0.23514  0.38370  0.55538  1.0000
  C   C40       1.0  0.26775  0.88118  0.94603  1.0000
  C   C41       1.0  0.90497  0.63627  0.40750  1.0000
  C   C42       1.0  0.59702  0.13321  0.09286  1.0000
  C   C43       1.0  0.09706  0.36678  0.59279  1.0000
  C   C44       1.0  0.40499  0.86381  0.90747  1.0000
  C   C45       1.0  0.01937  0.66651  0.47505  1.0000
  C   C46       1.0  0.48348  0.16325  0.02460  1.0000
  C   C47       1.0  0.98352  0.33674  0.52452  1.0000
  C   C48       1.0  0.51938  0.83354  0.97502  1.0000
  C   C49       1.0  0.55028  0.56798  0.31684  1.0000
  C   C50       1.0  0.95055  0.06749  0.18708  1.0000
  C   C51       1.0  0.45058  0.43247  0.68704  1.0000
  C   C52       1.0  0.05029  0.93207  0.81682  1.0000
  C   C53       1.0  0.64870  0.59048  0.37898  1.0000
  C   C54       1.0  0.85318  0.08852  0.12354  1.0000
  C   C55       1.0  0.35323  0.41143  0.62347  1.0000
  C   C56       1.0  0.14871  0.90955  0.87894  1.0000
  N   N1        1.0  0.08408  0.57389  0.88472  1.0000
  N   N2        1.0  0.39244  0.07809  0.60206  1.0000
  N   N3        1.0  0.89240  0.42195  0.10204  1.0000
  N   N4        1.0  0.58404  0.92611  0.38471  1.0000
  N   N5        1.0  0.06619  0.34502  0.94722  1.0000
  N   N6        1.0  0.41328  0.84933  0.54031  1.0000
  N   N7        1.0  0.91330  0.65070  0.04030  1.0000
  N   N8        1.0  0.56621  0.15499  0.44722  1.0000
  N   N9        1.0  0.19709  0.52330  0.10711  1.0000
  N   N10       1.0  0.30888  0.02504  0.39616  1.0000
  N   N11       1.0  0.80890  0.47498  0.89613  1.0000
  N   N12       1.0  0.69712  0.97674  0.60708  1.0000
  N   N13       1.0  0.00685  0.67703  0.57608  1.0000
  N   N14       1.0  0.49731  0.17450  0.92369  1.0000
  N   N15       1.0  0.99737  0.32544  0.42362  1.0000
  N   N16       1.0  0.50685  0.82292  0.07603  1.0000
