data_image0
_chemical_formula_structural       AgH11C10NClO2
_chemical_formula_sum              "Ag1 H11 C10 N1 Cl1 O2"
_cell_length_a       4.81868
_cell_length_b       6.63684
_cell_length_c       8.8821
_cell_angle_alpha    94.4025
_cell_angle_beta     93.8765
_cell_angle_gamma    77.7966

_space_group_name_H-M_alt    "P 1"
_space_group_IT_number       1

loop_
  _space_group_symop_operation_xyz
  'x, y, z'

loop_
  _atom_site_type_symbol
  _atom_site_label
  _atom_site_symmetry_multiplicity
  _atom_site_fract_x
  _atom_site_fract_y
  _atom_site_fract_z
  _atom_site_occupancy
  Ag  Ag1       1.0  0.53566  0.02723  0.75499  1.0000
  H   H1        1.0  0.13224  0.71065  0.83601  1.0000
  H   H2        1.0  0.71068  0.78239  0.99203  1.0000
  H   H3        1.0  0.92850  0.54099  0.03826  1.0000
  H   H4        1.0  0.61727  0.54359  0.92017  1.0000
  H   H5        1.0  0.04405  0.58330  0.51153  1.0000
  H   H6        1.0  0.07815  0.83941  0.57864  1.0000
  H   H7        1.0  0.60623  0.53394  0.35318  1.0000
  H   H8        1.0  0.22632  0.68379  0.16392  1.0000
  H   H9        1.0  0.40234  0.28660  0.27932  1.0000
  H   H10       1.0  0.77759  0.13806  0.47260  1.0000
  H   H11       1.0  0.63511  0.62777  0.65626  1.0000
  C   C1        1.0  0.09906  0.39803  0.75922  1.0000
  C   C2        1.0  0.96374  0.62252  0.80963  1.0000
  C   C3        1.0  0.79392  0.62326  0.94849  1.0000
  C   C4        1.0  0.92658  0.73841  0.54825  1.0000
  C   C5        1.0  0.71447  0.82659  0.42612  1.0000
  C   C6        1.0  0.55926  0.69975  0.33841  1.0000
  C   C7        1.0  0.34699  0.78192  0.23230  1.0000
  C   C8        1.0  0.29263  0.99365  0.21285  1.0000
  C   C9        1.0  0.44609  0.12253  0.29823  1.0000
  C   C10       1.0  0.65570  0.03886  0.40513  1.0000
  N   N1        1.0  0.77354  0.72431  0.68685  1.0000
  Cl  Cl1       1.0  0.03577  0.09818  0.07836  1.0000
  O   O1        1.0  0.34100  0.32972  0.82779  1.0000
  O   O2        1.0  0.96950  0.29977  0.66257  1.0000
