data_image0
_chemical_formula_structural       Ag2H28C30N4O4
_chemical_formula_sum              "Ag2 H28 C30 N4 O4"
_cell_length_a       7.44039
_cell_length_b       8.58887
_cell_length_c       11.959
_cell_angle_alpha    103.439
_cell_angle_beta     90.6777
_cell_angle_gamma    113.154

_space_group_name_H-M_alt    "P 1"
_space_group_IT_number       1

loop_
  _space_group_symop_operation_xyz
  'x, y, z'

loop_
  _atom_site_type_symbol
  _atom_site_label
  _atom_site_symmetry_multiplicity
  _atom_site_fract_x
  _atom_site_fract_y
  _atom_site_fract_z
  _atom_site_occupancy
  Ag  Ag1       1.0  0.70688  0.44370  0.52271  1.0000
  Ag  Ag2       1.0  0.29312  0.55630  0.47729  1.0000
  H   H1        1.0  0.09882  0.58372  0.93192  1.0000
  H   H2        1.0  0.90119  0.41628  0.06808  1.0000
  H   H3        1.0  0.78850  0.08809  0.86221  1.0000
  H   H4        1.0  0.21151  0.91191  0.13779  1.0000
  H   H5        1.0  0.01781  0.24344  0.94369  1.0000
  H   H6        1.0  0.98219  0.75656  0.05632  1.0000
  H   H7        1.0  0.01210  0.11908  0.80168  1.0000
  H   H8        1.0  0.98790  0.88093  0.19832  1.0000
  H   H9        1.0  0.14827  0.82548  0.74779  1.0000
  H   H10       1.0  0.85172  0.17452  0.25221  1.0000
  H   H11       1.0  0.97823  0.83609  0.85004  1.0000
  H   H12       1.0  0.02177  0.16390  0.14996  1.0000
  H   H13       1.0  0.89741  0.76773  0.69896  1.0000
  H   H14       1.0  0.10259  0.23227  0.30104  1.0000
  H   H15       1.0  0.62807  0.14069  0.55887  1.0000
  H   H16       1.0  0.37193  0.85931  0.44113  1.0000
  H   H17       1.0  0.62859  0.02596  0.66435  1.0000
  H   H18       1.0  0.37140  0.97404  0.33565  1.0000
  H   H19       1.0  0.12765  0.30396  0.62483  1.0000
  H   H20       1.0  0.87234  0.69604  0.37518  1.0000
  H   H21       1.0  0.35383  0.19842  0.51883  1.0000
  H   H22       1.0  0.64617  0.80157  0.48117  1.0000
  H   H23       1.0  0.47082  0.10224  0.06547  1.0000
  H   H24       1.0  0.52919  0.89776  0.93453  1.0000
  H   H25       1.0  0.43947  0.16295  0.87328  1.0000
  H   H26       1.0  0.56055  0.83706  0.12672  1.0000
  H   H27       1.0  0.43945  0.37279  0.75961  1.0000
  H   H28       1.0  0.56057  0.62721  0.24039  1.0000
  C   C1        1.0  0.92081  0.32810  0.80991  1.0000
  C   C2        1.0  0.07919  0.67190  0.19009  1.0000
  C   C3        1.0  0.00426  0.50974  0.85153  1.0000
  C   C4        1.0  0.99574  0.49026  0.14847  1.0000
  C   C5        1.0  0.94796  0.57687  0.76693  1.0000
  C   C6        1.0  0.05203  0.42313  0.23307  1.0000
  C   C7        1.0  0.93482  0.18726  0.85737  1.0000
  C   C8        1.0  0.06518  0.81274  0.14263  1.0000
  C   C9        1.0  0.99535  0.76186  0.76585  1.0000
  C   C10       1.0  0.00465  0.23814  0.23415  1.0000
  C   C11       1.0  0.72434  0.12389  0.62161  1.0000
  C   C12       1.0  0.27566  0.87611  0.37839  1.0000
  C   C13       1.0  0.86906  0.06144  0.55991  1.0000
  C   C14       1.0  0.13094  0.93857  0.44010  1.0000
  C   C15       1.0  0.06916  0.17032  0.57014  1.0000
  C   C16       1.0  0.93084  0.82968  0.42985  1.0000
  C   C17       1.0  0.19838  0.10956  0.51061  1.0000
  C   C18       1.0  0.80161  0.89044  0.48939  1.0000
  C   C19       1.0  0.51582  0.36173  0.16379  1.0000
  C   C20       1.0  0.48420  0.63826  0.83621  1.0000
  C   C21       1.0  0.48036  0.22978  0.05923  1.0000
  C   C22       1.0  0.51965  0.77023  0.94078  1.0000
  C   C23       1.0  0.46449  0.26427  0.95358  1.0000
  C   C24       1.0  0.53551  0.73571  0.04641  1.0000
  C   C25       1.0  0.48328  0.43331  0.94719  1.0000
  C   C26       1.0  0.51671  0.56670  0.05280  1.0000
  C   C27       1.0  0.46801  0.47362  0.84029  1.0000
  C   C28       1.0  0.53201  0.52640  0.15972  1.0000
  C   C29       1.0  0.55011  0.32462  0.27701  1.0000
  C   C30       1.0  0.44989  0.67538  0.72299  1.0000
  N   N1        1.0  0.81803  0.29198  0.70546  1.0000
  N   N2        1.0  0.18196  0.70802  0.29454  1.0000
  N   N3        1.0  0.83621  0.44236  0.67769  1.0000
  N   N4        1.0  0.16378  0.55763  0.32231  1.0000
  O   O1        1.0  0.54896  0.17885  0.27848  1.0000
  O   O2        1.0  0.45103  0.82114  0.72152  1.0000
  O   O3        1.0  0.58511  0.45456  0.36769  1.0000
  O   O4        1.0  0.41487  0.54544  0.63231  1.0000
