data_image0
_chemical_formula_structural       Ag2H40C48N8O4
_chemical_formula_sum              "Ag2 H40 C48 N8 O4"
_cell_length_a       8.2293
_cell_length_b       11.3567
_cell_length_c       11.6946
_cell_angle_alpha    82.6527
_cell_angle_beta     82.462
_cell_angle_gamma    70.2226

_space_group_name_H-M_alt    "P 1"
_space_group_IT_number       1

loop_
  _space_group_symop_operation_xyz
  'x, y, z'

loop_
  _atom_site_type_symbol
  _atom_site_label
  _atom_site_symmetry_multiplicity
  _atom_site_fract_x
  _atom_site_fract_y
  _atom_site_fract_z
  _atom_site_occupancy
  Ag  Ag1       1.0  0.01073  0.51289  0.87866  1.0000
  Ag  Ag2       1.0  0.98926  0.48712  0.12134  1.0000
  H   H1        1.0  0.19052  0.08490  0.85514  1.0000
  H   H2        1.0  0.80948  0.91510  0.14485  1.0000
  H   H3        1.0  0.27995  0.25480  0.73043  1.0000
  H   H4        1.0  0.72004  0.74521  0.26958  1.0000
  H   H5        1.0  0.16954  0.87272  0.84049  1.0000
  H   H6        1.0  0.83047  0.12728  0.15950  1.0000
  H   H7        1.0  0.31485  0.12993  0.44814  1.0000
  H   H8        1.0  0.68516  0.87007  0.55186  1.0000
  H   H9        1.0  0.40155  0.09257  0.02526  1.0000
  H   H10       1.0  0.59845  0.90743  0.97474  1.0000
  H   H11       1.0  0.01571  0.68184  0.70041  1.0000
  H   H12       1.0  0.98429  0.31816  0.29959  1.0000
  H   H13       1.0  0.91911  0.66014  0.58054  1.0000
  H   H14       1.0  0.08089  0.33986  0.41946  1.0000
  H   H15       1.0  0.23635  0.79177  0.66850  1.0000
  H   H16       1.0  0.76364  0.20824  0.33150  1.0000
  H   H17       1.0  0.34953  0.94435  0.54397  1.0000
  H   H18       1.0  0.65048  0.05565  0.45603  1.0000
  H   H19       1.0  0.49453  0.64041  0.23789  1.0000
  H   H20       1.0  0.50546  0.35958  0.76211  1.0000
  H   H21       1.0  0.31671  0.93192  0.15666  1.0000
  H   H22       1.0  0.68329  0.06808  0.84334  1.0000
  H   H23       1.0  0.45349  0.28033  0.51313  1.0000
  H   H24       1.0  0.54650  0.71967  0.48687  1.0000
  H   H25       1.0  0.40718  0.28718  0.31583  1.0000
  H   H26       1.0  0.59282  0.71282  0.68417  1.0000
  H   H27       1.0  0.30910  0.53206  0.44227  1.0000
  H   H28       1.0  0.69090  0.46793  0.55773  1.0000
  H   H29       1.0  0.67555  0.41170  0.14788  1.0000
  H   H30       1.0  0.32445  0.58830  0.85212  1.0000
  H   H31       1.0  0.98623  0.74456  0.38552  1.0000
  H   H32       1.0  0.01378  0.25544  0.61448  1.0000
  H   H33       1.0  0.59233  0.26874  0.04219  1.0000
  H   H34       1.0  0.40767  0.73126  0.95781  1.0000
  H   H35       1.0  0.37678  0.31752  0.00147  1.0000
  H   H36       1.0  0.62322  0.68248  0.99853  1.0000
  H   H37       1.0  0.15277  0.67248  0.20986  1.0000
  H   H38       1.0  0.84723  0.32752  0.79014  1.0000
  H   H39       1.0  0.09792  0.89768  0.25984  1.0000
  H   H40       1.0  0.90209  0.10231  0.74016  1.0000
  C   C1        1.0  0.10658  0.04721  0.91801  1.0000
  C   C2        1.0  0.89343  0.95279  0.08199  1.0000
  C   C3        1.0  0.01035  0.12026  0.00735  1.0000
  C   C4        1.0  0.98966  0.87974  0.99265  1.0000
  C   C5        1.0  0.26447  0.33694  0.66863  1.0000
  C   C6        1.0  0.73553  0.66306  0.33137  1.0000
  C   C7        1.0  0.30685  0.01882  0.31325  1.0000
  C   C8        1.0  0.69315  0.98117  0.68675  1.0000
  C   C9        1.0  0.23732  0.92998  0.39068  1.0000
  C   C10       1.0  0.76269  0.07002  0.60932  1.0000
  C   C11       1.0  0.09608  0.92868  0.91060  1.0000
  C   C12       1.0  0.90393  0.07133  0.08940  1.0000
  C   C13       1.0  0.10724  0.75535  0.53465  1.0000
  C   C14       1.0  0.89277  0.24465  0.46535  1.0000
  C   C15       1.0  0.02286  0.24816  0.01473  1.0000
  C   C16       1.0  0.97714  0.75185  0.98527  1.0000
  C   C17       1.0  0.33876  0.11848  0.35558  1.0000
  C   C18       1.0  0.66124  0.88152  0.64442  1.0000
  C   C19       1.0  0.41129  0.20103  0.16103  1.0000
  C   C20       1.0  0.58871  0.79897  0.83896  1.0000
  C   C21       1.0  0.38712  0.09895  0.11845  1.0000
  C   C22       1.0  0.61288  0.90105  0.88155  1.0000
  C   C23       1.0  0.04081  0.66058  0.60935  1.0000
  C   C24       1.0  0.95918  0.33942  0.39065  1.0000
  C   C25       1.0  0.20712  0.81454  0.57836  1.0000
  C   C26       1.0  0.79289  0.18545  0.42165  1.0000
  C   C27       1.0  0.27018  0.90104  0.50783  1.0000
  C   C28       1.0  0.72982  0.09896  0.49217  1.0000
  C   C29       1.0  0.44349  0.57809  0.20251  1.0000
  C   C30       1.0  0.55651  0.42191  0.79749  1.0000
  C   C31       1.0  0.33678  0.00926  0.19289  1.0000
  C   C32       1.0  0.66322  0.99074  0.80711  1.0000
  C   C33       1.0  0.35042  0.35109  0.55810  1.0000
  C   C34       1.0  0.64957  0.64891  0.44190  1.0000
  C   C35       1.0  0.39017  0.20810  0.28071  1.0000
  C   C36       1.0  0.60983  0.79190  0.71929  1.0000
  C   C37       1.0  0.28193  0.47801  0.52138  1.0000
  C   C38       1.0  0.71807  0.52199  0.47862  1.0000
  C   C39       1.0  0.53741  0.46337  0.15932  1.0000
  C   C40       1.0  0.46258  0.53663  0.84068  1.0000
  C   C41       1.0  0.06875  0.78707  0.41943  1.0000
  C   C42       1.0  0.93126  0.21293  0.58057  1.0000
  C   C43       1.0  0.45450  0.30019  0.07534  1.0000
  C   C44       1.0  0.54550  0.69981  0.92466  1.0000
  C   C45       1.0  0.26959  0.59553  0.18856  1.0000
  C   C46       1.0  0.73040  0.40447  0.81144  1.0000
  C   C47       1.0  0.13284  0.87263  0.34858  1.0000
  C   C48       1.0  0.86717  0.12736  0.65143  1.0000
  N   N1        1.0  0.42081  0.41900  0.12282  1.0000
  N   N2        1.0  0.57919  0.58100  0.87718  1.0000
  N   N3        1.0  0.15102  0.44774  0.69808  1.0000
  N   N4        1.0  0.84898  0.55226  0.30192  1.0000
  N   N5        1.0  0.16393  0.53232  0.60782  1.0000
  N   N6        1.0  0.83606  0.46768  0.39218  1.0000
  N   N7        1.0  0.25643  0.49845  0.14047  1.0000
  N   N8        1.0  0.74356  0.50155  0.85953  1.0000
  O   O1        1.0  0.12187  0.28651  0.93790  1.0000
  O   O2        1.0  0.87813  0.71349  0.06210  1.0000
  O   O3        1.0  0.93091  0.30920  0.09873  1.0000
  O   O4        1.0  0.06908  0.69080  0.90127  1.0000
