data_image0
_chemical_formula_structural       Li2Mg4H44C48N4O28
_chemical_formula_sum              "Li2 Mg4 H44 C48 N4 O28"
_cell_length_a       8.65443
_cell_length_b       9.75046
_cell_length_c       17.3095
_cell_angle_alpha    94.4632
_cell_angle_beta     89.9932
_cell_angle_gamma    116.349

_space_group_name_H-M_alt    "P 1"
_space_group_IT_number       1

loop_
  _space_group_symop_operation_xyz
  'x, y, z'

loop_
  _atom_site_type_symbol
  _atom_site_label
  _atom_site_symmetry_multiplicity
  _atom_site_fract_x
  _atom_site_fract_y
  _atom_site_fract_z
  _atom_site_occupancy
  Li  Li1       1.0  0.65647  0.00012  0.74999  1.0000
  Li  Li2       1.0  0.34350  0.99987  0.25002  1.0000
  Mg  Mg1       1.0  0.65515  0.13947  0.93475  1.0000
  Mg  Mg2       1.0  0.51587  0.86069  0.56525  1.0000
  Mg  Mg3       1.0  0.34484  0.86050  0.06525  1.0000
  Mg  Mg4       1.0  0.48417  0.13933  0.43475  1.0000
  H   H1        1.0  0.00496  0.59366  0.52043  1.0000
  H   H2        1.0  0.41127  0.40644  0.97959  1.0000
  H   H3        1.0  0.99519  0.40615  0.47950  1.0000
  H   H4        1.0  0.58890  0.59367  0.02046  1.0000
  H   H5        1.0  0.74128  0.84878  0.00563  1.0000
  H   H6        1.0  0.89277  0.15132  0.49441  1.0000
  H   H7        1.0  0.25875  0.15130  0.99438  1.0000
  H   H8        1.0  0.10724  0.84859  0.50558  1.0000
  H   H9        1.0  0.03942  0.73035  0.94659  1.0000
  H   H10       1.0  0.30929  0.26968  0.55341  1.0000
  H   H11       1.0  0.96057  0.26963  0.05336  1.0000
  H   H12       1.0  0.69081  0.73037  0.44664  1.0000
  H   H13       1.0  0.84912  0.68362  0.99765  1.0000
  H   H14       1.0  0.16581  0.31649  0.50237  1.0000
  H   H15       1.0  0.15103  0.31651  0.00241  1.0000
  H   H16       1.0  0.83428  0.68333  0.49755  1.0000
  H   H17       1.0  0.83736  0.60935  0.89798  1.0000
  H   H18       1.0  0.22833  0.39075  0.60203  1.0000
  H   H19       1.0  0.16251  0.39062  0.10208  1.0000
  H   H20       1.0  0.77159  0.60930  0.39787  1.0000
  H   H21       1.0  0.13232  0.96002  0.86216  1.0000
  H   H22       1.0  0.17256  0.04009  0.63782  1.0000
  H   H23       1.0  0.86766  0.03997  0.13783  1.0000
  H   H24       1.0  0.82753  0.95995  0.36220  1.0000
  H   H25       1.0  0.96144  0.00436  0.83327  1.0000
  H   H26       1.0  0.95737  0.99580  0.66676  1.0000
  H   H27       1.0  0.03852  0.99560  0.16671  1.0000
  H   H28       1.0  0.04274  0.00429  0.33328  1.0000
  H   H29       1.0  0.95723  0.82388  0.80003  1.0000
  H   H30       1.0  0.13362  0.17622  0.69999  1.0000
  H   H31       1.0  0.04273  0.17607  0.19997  1.0000
  H   H32       1.0  0.86651  0.82389  0.30000  1.0000
  H   H33       1.0  0.34754  0.85362  0.72571  1.0000
  H   H34       1.0  0.49410  0.14665  0.77434  1.0000
  H   H35       1.0  0.65247  0.14638  0.27428  1.0000
  H   H36       1.0  0.50588  0.85335  0.22567  1.0000
  H   H37       1.0  0.93421  0.39404  0.68195  1.0000
  H   H38       1.0  0.53968  0.60600  0.81804  1.0000
  H   H39       1.0  0.06575  0.60598  0.31803  1.0000
  H   H40       1.0  0.46027  0.39397  0.18198  1.0000
  H   H41       1.0  0.15959  0.55842  0.91213  1.0000
  H   H42       1.0  0.60129  0.44176  0.58789  1.0000
  H   H43       1.0  0.84034  0.44156  0.08786  1.0000
  H   H44       1.0  0.39868  0.55825  0.41213  1.0000
  C   C1        1.0  0.81246  0.91084  0.95656  1.0000
  C   C2        1.0  0.90186  0.08930  0.54349  1.0000
  C   C3        1.0  0.18756  0.08921  0.04343  1.0000
  C   C4        1.0  0.09818  0.91066  0.45652  1.0000
  C   C5        1.0  0.90439  0.70871  0.94050  1.0000
  C   C6        1.0  0.19595  0.29138  0.55951  1.0000
  C   C7        1.0  0.09561  0.29132  0.05952  1.0000
  C   C8        1.0  0.80409  0.70860  0.44046  1.0000
  C   C9        1.0  0.99293  0.91271  0.84874  1.0000
  C   C10       1.0  0.08054  0.08744  0.65127  1.0000
  C   C11       1.0  0.00704  0.08727  0.15125  1.0000
  C   C12       1.0  0.91957  0.91262  0.34874  1.0000
  C   C13       1.0  0.39217  0.84725  0.87878  1.0000
  C   C14       1.0  0.54496  0.15290  0.62123  1.0000
  C   C15       1.0  0.60781  0.15273  0.12122  1.0000
  C   C16       1.0  0.45506  0.84713  0.37877  1.0000
  C   C17       1.0  0.27172  0.71831  0.82417  1.0000
  C   C18       1.0  0.55349  0.28188  0.67586  1.0000
  C   C19       1.0  0.72824  0.28169  0.17583  1.0000
  C   C20       1.0  0.44648  0.71811  0.32415  1.0000
  C   C21       1.0  0.26507  0.74261  0.74639  1.0000
  C   C22       1.0  0.52257  0.25761  0.75363  1.0000
  C   C23       1.0  0.73490  0.25739  0.25361  1.0000
  C   C24       1.0  0.47739  0.74237  0.24637  1.0000
  C   C25       1.0  0.14475  0.62659  0.69381  1.0000
  C   C26       1.0  0.51811  0.37360  0.80621  1.0000
  C   C27       1.0  0.85522  0.37343  0.30620  1.0000
  C   C28       1.0  0.48184  0.62638  0.19379  1.0000
  C   C29       1.0  0.13871  0.65856  0.61450  1.0000
  C   C30       1.0  0.48014  0.34166  0.88551  1.0000
  C   C31       1.0  0.86131  0.34145  0.38548  1.0000
  C   C32       1.0  0.51982  0.65831  0.11449  1.0000
  C   C33       1.0  0.02978  0.48473  0.72116  1.0000
  C   C34       1.0  0.54478  0.51538  0.77884  1.0000
  C   C35       1.0  0.97018  0.51529  0.27883  1.0000
  C   C36       1.0  0.45515  0.48461  0.22117  1.0000
  C   C37       1.0  0.03607  0.46082  0.79907  1.0000
  C   C38       1.0  0.57509  0.53929  0.70093  1.0000
  C   C39       1.0  0.96386  0.53918  0.20092  1.0000
  C   C40       1.0  0.42485  0.46071  0.29908  1.0000
  C   C41       1.0  0.90244  0.31353  0.82657  1.0000
  C   C42       1.0  0.58865  0.68652  0.67339  1.0000
  C   C43       1.0  0.09750  0.68647  0.17341  1.0000
  C   C44       1.0  0.41131  0.31348  0.32663  1.0000
  C   C45       1.0  0.15731  0.57660  0.85103  1.0000
  C   C46       1.0  0.58077  0.42358  0.64898  1.0000
  C   C47       1.0  0.84263  0.42339  0.14896  1.0000
  C   C48       1.0  0.41918  0.57642  0.35103  1.0000
  N   N1        1.0  0.89659  0.84503  0.91609  1.0000
  N   N2        1.0  0.05180  0.15510  0.58394  1.0000
  N   N3        1.0  0.10341  0.15498  0.08391  1.0000
  N   N4        1.0  0.94826  0.84489  0.41605  1.0000
  O   O1        1.0  0.81112  0.03397  0.94159  1.0000
  O   O2        1.0  0.77737  0.96615  0.55846  1.0000
  O   O3        1.0  0.18891  0.96606  0.05839  1.0000
  O   O4        1.0  0.22269  0.03383  0.44159  1.0000
  O   O5        1.0  0.37170  0.83980  0.95139  1.0000
  O   O6        1.0  0.53175  0.16021  0.54862  1.0000
  O   O7        1.0  0.62828  0.16014  0.04861  1.0000
  O   O8        1.0  0.46834  0.83985  0.45138  1.0000
  O   O9        1.0  0.51223  0.96477  0.85099  1.0000
  O   O10       1.0  0.54771  0.03547  0.64902  1.0000
  O   O11       1.0  0.48773  0.03522  0.14901  1.0000
  O   O12       1.0  0.45228  0.96454  0.35098  1.0000
  O   O13       1.0  0.25042  0.76916  0.58178  1.0000
  O   O14       1.0  0.48126  0.23107  0.91824  1.0000
  O   O15       1.0  0.74965  0.23082  0.41821  1.0000
  O   O16       1.0  0.51875  0.76893  0.08177  1.0000
  O   O17       1.0  0.99260  0.55795  0.57264  1.0000
  O   O18       1.0  0.43450  0.44216  0.92739  1.0000
  O   O19       1.0  0.00741  0.44206  0.42735  1.0000
  O   O20       1.0  0.56544  0.55780  0.07262  1.0000
  O   O21       1.0  0.84540  0.19349  0.78016  1.0000
  O   O22       1.0  0.65123  0.80653  0.71981  1.0000
  O   O23       1.0  0.15459  0.80650  0.21983  1.0000
  O   O24       1.0  0.34874  0.19347  0.28021  1.0000
  O   O25       1.0  0.85036  0.32193  0.89546  1.0000
  O   O26       1.0  0.52852  0.67809  0.60442  1.0000
  O   O27       1.0  0.14957  0.67807  0.10452  1.0000
  O   O28       1.0  0.47146  0.32191  0.39559  1.0000
