data_image0
_chemical_formula_structural       Cd4H42C52N10O30
_chemical_formula_sum              "Cd4 H42 C52 N10 O30"
_cell_length_a       10.1488
_cell_length_b       12.7197
_cell_length_c       13.4646
_cell_angle_alpha    114.422
_cell_angle_beta     103.698
_cell_angle_gamma    98.8542

_space_group_name_H-M_alt    "P 1"
_space_group_IT_number       1

loop_
  _space_group_symop_operation_xyz
  'x, y, z'

loop_
  _atom_site_type_symbol
  _atom_site_label
  _atom_site_symmetry_multiplicity
  _atom_site_fract_x
  _atom_site_fract_y
  _atom_site_fract_z
  _atom_site_occupancy
  Cd  Cd1       1.0  0.10798  0.82574  0.52947  1.0000
  Cd  Cd2       1.0  0.89201  0.17426  0.47052  1.0000
  Cd  Cd3       1.0  0.59357  0.66598  0.15346  1.0000
  Cd  Cd4       1.0  0.40643  0.33402  0.84654  1.0000
  H   H1        1.0  0.88975  0.82422  0.28480  1.0000
  H   H2        1.0  0.11026  0.17578  0.71520  1.0000
  H   H3        1.0  0.37615  0.89936  0.51663  1.0000
  H   H4        1.0  0.62385  0.10064  0.48337  1.0000
  H   H5        1.0  0.91096  0.99123  0.57402  1.0000
  H   H6        1.0  0.08904  0.00877  0.42598  1.0000
  H   H7        1.0  0.36630  0.78592  0.88945  1.0000
  H   H8        1.0  0.63370  0.21408  0.11055  1.0000
  H   H9        1.0  0.41263  0.05549  0.22979  1.0000
  H   H10       1.0  0.58737  0.94451  0.77021  1.0000
  H   H11       1.0  0.23242  0.10324  0.93323  1.0000
  H   H12       1.0  0.76758  0.89676  0.06677  1.0000
  H   H13       1.0  0.60659  0.29774  0.37584  1.0000
  H   H14       1.0  0.39341  0.70226  0.62416  1.0000
  H   H15       1.0  0.02334  0.83710  0.15884  1.0000
  H   H16       1.0  0.97666  0.16290  0.84116  1.0000
  H   H17       1.0  0.23847  0.57781  0.18455  1.0000
  H   H18       1.0  0.76153  0.42219  0.81545  1.0000
  H   H19       1.0  0.68944  0.41154  0.28548  1.0000
  H   H20       1.0  0.31057  0.58846  0.71452  1.0000
  H   H21       1.0  0.12560  0.60420  0.86748  1.0000
  H   H22       1.0  0.87441  0.39580  0.13252  1.0000
  H   H23       1.0  0.53989  0.53079  0.79304  1.0000
  H   H24       1.0  0.46011  0.46921  0.20697  1.0000
  H   H25       1.0  0.37724  0.16153  0.57968  1.0000
  H   H26       1.0  0.62276  0.83847  0.42032  1.0000
  H   H27       1.0  0.83754  0.54582  0.65663  1.0000
  H   H28       1.0  0.16246  0.45418  0.34337  1.0000
  H   H29       1.0  0.46279  0.17582  0.42698  1.0000
  H   H30       1.0  0.53720  0.82418  0.57302  1.0000
  H   H31       1.0  0.63436  0.56009  0.65273  1.0000
  H   H32       1.0  0.36564  0.43991  0.34727  1.0000
  H   H33       1.0  0.01744  0.70789  0.67024  1.0000
  H   H34       1.0  0.98257  0.29211  0.32976  1.0000
  H   H35       1.0  0.87761  0.58054  0.31413  1.0000
  H   H36       1.0  0.12239  0.41946  0.68587  1.0000
  H   H37       1.0  0.79998  0.91194  0.26830  1.0000
  H   H38       1.0  0.20002  0.08806  0.73170  1.0000
  H   H39       1.0  0.39564  0.00677  0.63936  1.0000
  H   H40       1.0  0.60436  0.99323  0.36063  1.0000
  H   H41       1.0  0.85776  0.89261  0.44372  1.0000
  H   H42       1.0  0.14224  0.10739  0.55628  1.0000
  C   C1        1.0  0.32245  0.08911  0.08734  1.0000
  C   C2        1.0  0.67755  0.91089  0.91265  1.0000
  C   C3        1.0  0.35204  0.87098  0.94529  1.0000
  C   C4        1.0  0.64795  0.12902  0.05471  1.0000
  C   C5        1.0  0.37837  0.02200  0.13672  1.0000
  C   C6        1.0  0.62163  0.97800  0.86328  1.0000
  C   C7        1.0  0.39481  0.91204  0.06501  1.0000
  C   C8        1.0  0.60519  0.08796  0.93499  1.0000
  C   C9        1.0  0.27716  0.04886  0.96856  1.0000
  C   C10       1.0  0.72284  0.95114  0.03144  1.0000
  C   C11       1.0  0.29208  0.93831  0.89673  1.0000
  C   C12       1.0  0.70792  0.06169  0.10327  1.0000
  C   C13       1.0  0.46544  0.84374  0.11937  1.0000
  C   C14       1.0  0.53456  0.15626  0.88063  1.0000
  C   C15       1.0  0.12083  0.74626  0.30323  1.0000
  C   C16       1.0  0.87917  0.25374  0.69677  1.0000
  C   C17       1.0  0.06723  0.76337  0.12054  1.0000
  C   C18       1.0  0.93277  0.23663  0.87946  1.0000
  C   C19       1.0  0.57056  0.36775  0.53079  1.0000
  C   C20       1.0  0.42944  0.63225  0.46921  1.0000
  C   C21       1.0  0.06952  0.72476  0.00833  1.0000
  C   C22       1.0  0.93048  0.27524  0.99168  1.0000
  C   C23       1.0  0.26922  0.49306  0.96931  1.0000
  C   C24       1.0  0.73078  0.50695  0.03069  1.0000
  C   C25       1.0  0.18877  0.61769  0.13352  1.0000
  C   C26       1.0  0.81123  0.38231  0.86648  1.0000
  C   C27       1.0  0.75953  0.47634  0.37247  1.0000
  C   C28       1.0  0.24047  0.52365  0.62753  1.0000
  C   C29       1.0  0.19052  0.58067  0.02041  1.0000
  C   C30       1.0  0.80948  0.41933  0.97960  1.0000
  C   C31       1.0  0.12612  0.63212  0.95558  1.0000
  C   C32       1.0  0.87388  0.36788  0.04442  1.0000
  C   C33       1.0  0.74111  0.46700  0.46924  1.0000
  C   C34       1.0  0.25889  0.53300  0.53076  1.0000
  C   C35       1.0  0.52587  0.45347  0.71142  1.0000
  C   C36       1.0  0.47414  0.54653  0.28858  1.0000
  C   C37       1.0  0.24663  0.89397  0.76840  1.0000
  C   C38       1.0  0.75336  0.10603  0.23160  1.0000
  C   C39       1.0  0.43597  0.24827  0.59328  1.0000
  C   C40       1.0  0.56403  0.75173  0.40672  1.0000
  C   C41       1.0  0.83857  0.55128  0.57846  1.0000
  C   C42       1.0  0.16143  0.44872  0.42154  1.0000
  C   C43       1.0  0.48751  0.25597  0.50933  1.0000
  C   C44       1.0  0.51249  0.74403  0.49066  1.0000
  C   C45       1.0  0.12426  0.70695  0.18275  1.0000
  C   C46       1.0  0.87574  0.29305  0.81726  1.0000
  C   C47       1.0  0.58242  0.46917  0.63310  1.0000
  C   C48       1.0  0.41758  0.53083  0.36690  1.0000
  C   C49       1.0  0.94174  0.64191  0.58628  1.0000
  C   C50       1.0  0.05826  0.35808  0.41372  1.0000
  C   C51       1.0  0.86548  0.57035  0.38829  1.0000
  C   C52       1.0  0.13452  0.42964  0.61171  1.0000
  N   N1        1.0  0.31583  0.20839  0.16323  1.0000
  N   N2        1.0  0.68417  0.79161  0.83677  1.0000
  N   N3        1.0  0.45733  0.34483  0.69519  1.0000
  N   N4        1.0  0.54267  0.65517  0.30481  1.0000
  N   N5        1.0  0.95510  0.65386  0.49404  1.0000
  N   N6        1.0  0.04490  0.34614  0.50596  1.0000
  N   N7        1.0  0.01640  0.78839  0.94558  1.0000
  N   N8        1.0  0.98360  0.21161  0.05442  1.0000
  N   N9        1.0  0.63208  0.37432  0.45224  1.0000
  N   N10       1.0  0.36792  0.62568  0.54776  1.0000
  O   O1        1.0  0.28996  0.27569  0.12045  1.0000
  O   O2        1.0  0.71004  0.72431  0.87955  1.0000
  O   O3        1.0  0.79608  0.84050  0.28181  1.0000
  O   O4        1.0  0.20392  0.15950  0.71819  1.0000
  O   O5        1.0  0.33966  0.23713  0.26747  1.0000
  O   O6        1.0  0.66034  0.76287  0.73252  1.0000
  O   O7        1.0  0.32900  0.95520  0.55839  1.0000
  O   O8        1.0  0.67099  0.04480  0.44161  1.0000
  O   O9        1.0  0.49894  0.88268  0.22749  1.0000
  O   O10       1.0  0.50106  0.11732  0.77251  1.0000
  O   O11       1.0  0.37554  0.48642  0.03646  1.0000
  O   O12       1.0  0.62446  0.51358  0.96354  1.0000
  O   O13       1.0  0.17857  0.70037  0.36242  1.0000
  O   O14       1.0  0.82143  0.29963  0.63759  1.0000
  O   O15       1.0  0.22844  0.43047  0.85935  1.0000
  O   O16       1.0  0.77156  0.56954  0.14065  1.0000
  O   O17       1.0  0.05861  0.82827  0.34348  1.0000
  O   O18       1.0  0.94139  0.17173  0.65652  1.0000
  O   O19       1.0  0.28153  0.80547  0.70541  1.0000
  O   O20       1.0  0.71846  0.19453  0.29459  1.0000
  O   O21       1.0  0.16952  0.94814  0.72732  1.0000
  O   O22       1.0  0.83048  0.05186  0.27268  1.0000
  O   O23       1.0  0.90601  0.90785  0.52336  1.0000
  O   O24       1.0  0.09399  0.09215  0.47664  1.0000
  O   O25       1.0  0.48867  0.74850  0.05043  1.0000
  O   O26       1.0  0.51133  0.25150  0.94957  1.0000
  O   O27       1.0  0.99441  0.74044  0.83970  1.0000
  O   O28       1.0  0.00559  0.25957  0.16030  1.0000
  O   O29       1.0  0.99801  0.88691  0.00170  1.0000
  O   O30       1.0  0.00199  0.11309  0.99830  1.0000
