data_image0
_chemical_formula_structural       Cd4H26C36N6O14
_chemical_formula_sum              "Cd4 H26 C36 N6 O14"
_cell_length_a       9.15554
_cell_length_b       10.1608
_cell_length_c       11.3737
_cell_angle_alpha    106.85
_cell_angle_beta     99.0571
_cell_angle_gamma    106.114

_space_group_name_H-M_alt    "P 1"
_space_group_IT_number       1

loop_
  _space_group_symop_operation_xyz
  'x, y, z'

loop_
  _atom_site_type_symbol
  _atom_site_label
  _atom_site_symmetry_multiplicity
  _atom_site_fract_x
  _atom_site_fract_y
  _atom_site_fract_z
  _atom_site_occupancy
  Cd  Cd1       1.0  0.31489  0.31711  0.19846  1.0000
  Cd  Cd2       1.0  0.68510  0.68289  0.80154  1.0000
  Cd  Cd3       1.0  0.41638  0.64453  0.51555  1.0000
  Cd  Cd4       1.0  0.58362  0.35547  0.48445  1.0000
  H   H1        1.0  0.03884  0.62050  0.45610  1.0000
  H   H2        1.0  0.96116  0.37950  0.54390  1.0000
  H   H3        1.0  0.86370  0.74146  0.37203  1.0000
  H   H4        1.0  0.13631  0.25855  0.62797  1.0000
  H   H5        1.0  0.98329  0.94459  0.29266  1.0000
  H   H6        1.0  0.01672  0.05541  0.70734  1.0000
  H   H7        1.0  0.43062  0.89625  0.40271  1.0000
  H   H8        1.0  0.56938  0.10373  0.59729  1.0000
  H   H9        1.0  0.08536  0.29239  0.94312  1.0000
  H   H10       1.0  0.91464  0.70762  0.05687  1.0000
  H   H11       1.0  0.82995  0.32441  0.86384  1.0000
  H   H12       1.0  0.17005  0.67559  0.13616  1.0000
  H   H13       1.0  0.66381  0.37132  0.01462  1.0000
  H   H14       1.0  0.33619  0.62869  0.98538  1.0000
  H   H15       1.0  0.02260  0.36912  0.30708  1.0000
  H   H16       1.0  0.97740  0.63087  0.69291  1.0000
  H   H17       1.0  0.20549  0.99020  0.98410  1.0000
  H   H18       1.0  0.79450  0.00980  0.01590  1.0000
  H   H19       1.0  0.22923  0.86976  0.76309  1.0000
  H   H20       1.0  0.77077  0.13025  0.23692  1.0000
  H   H21       1.0  0.34894  0.02761  0.64733  1.0000
  H   H22       1.0  0.65106  0.97239  0.35267  1.0000
  H   H23       1.0  0.41639  0.40262  0.97619  1.0000
  H   H24       1.0  0.58362  0.59738  0.02381  1.0000
  H   H25       1.0  0.27489  0.34411  0.44018  1.0000
  H   H26       1.0  0.72511  0.65589  0.55982  1.0000
  C   C1        1.0  0.08581  0.71003  0.42291  1.0000
  C   C2        1.0  0.91419  0.28996  0.57709  1.0000
  C   C3        1.0  0.98877  0.77741  0.37545  1.0000
  C   C4        1.0  0.01123  0.22258  0.62455  1.0000
  C   C5        1.0  0.05437  0.89014  0.33258  1.0000
  C   C6        1.0  0.94563  0.10986  0.66742  1.0000
  C   C7        1.0  0.21588  0.93492  0.34143  1.0000
  C   C8        1.0  0.78412  0.06508  0.65857  1.0000
  C   C9        1.0  0.30436  0.86327  0.39265  1.0000
  C   C10       1.0  0.69564  0.13672  0.60736  1.0000
  C   C11       1.0  0.29459  0.05718  0.29805  1.0000
  C   C12       1.0  0.70542  0.94282  0.70196  1.0000
  C   C13       1.0  0.01069  0.31649  0.00614  1.0000
  C   C14       1.0  0.98930  0.68350  0.99385  1.0000
  C   C15       1.0  0.86830  0.33222  0.96187  1.0000
  C   C16       1.0  0.13170  0.66778  0.03813  1.0000
  C   C17       1.0  0.77623  0.35932  0.04584  1.0000
  C   C18       1.0  0.22377  0.64068  0.95416  1.0000
  C   C19       1.0  0.82878  0.37089  0.17186  1.0000
  C   C20       1.0  0.17123  0.62911  0.82814  1.0000
  C   C21       1.0  0.97567  0.35833  0.20912  1.0000
  C   C22       1.0  0.02433  0.64167  0.79087  1.0000
  C   C23       1.0  0.72341  0.38679  0.26077  1.0000
  C   C24       1.0  0.27660  0.61322  0.73923  1.0000
  C   C25       1.0  0.25731  0.05376  0.92910  1.0000
  C   C26       1.0  0.74269  0.94624  0.07090  1.0000
  C   C27       1.0  0.27070  0.98821  0.80730  1.0000
  C   C28       1.0  0.72930  0.01180  0.19270  1.0000
  C   C29       1.0  0.33825  0.07642  0.74285  1.0000
  C   C30       1.0  0.66175  0.92358  0.25714  1.0000
  C   C31       1.0  0.39557  0.22856  0.80314  1.0000
  C   C32       1.0  0.60443  0.77144  0.19686  1.0000
  C   C33       1.0  0.37666  0.28504  0.92497  1.0000
  C   C34       1.0  0.62334  0.71497  0.07503  1.0000
  C   C35       1.0  0.48155  0.32864  0.74158  1.0000
  C   C36       1.0  0.51845  0.67136  0.25842  1.0000
  N   N1        1.0  0.24128  0.75168  0.43059  1.0000
  N   N2        1.0  0.75871  0.24832  0.56942  1.0000
  N   N3        1.0  0.06429  0.33066  0.12785  1.0000
  N   N4        1.0  0.93571  0.66934  0.87215  1.0000
  N   N5        1.0  0.30820  0.20019  0.98612  1.0000
  N   N6        1.0  0.69181  0.79982  0.01388  1.0000
  O   O1        1.0  0.44319  0.11619  0.33960  1.0000
  O   O2        1.0  0.55682  0.88381  0.66040  1.0000
  O   O3        1.0  0.20456  0.09058  0.22319  1.0000
  O   O4        1.0  0.79544  0.90942  0.77681  1.0000
  O   O5        1.0  0.77918  0.40134  0.37578  1.0000
  O   O6        1.0  0.22082  0.59865  0.62421  1.0000
  O   O7        1.0  0.58687  0.38049  0.21236  1.0000
  O   O8        1.0  0.41313  0.61952  0.78765  1.0000
  O   O9        1.0  0.43096  0.28863  0.62152  1.0000
  O   O10       1.0  0.56903  0.71137  0.37848  1.0000
  O   O11       1.0  0.59824  0.43917  0.81476  1.0000
  O   O12       1.0  0.40176  0.56083  0.18524  1.0000
  O   O13       1.0  0.35130  0.40322  0.40881  1.0000
  O   O14       1.0  0.64870  0.59677  0.59119  1.0000
