data_image0
_chemical_formula_structural       Cd2H44C56N4O20
_chemical_formula_sum              "Cd2 H44 C56 N4 O20"
_cell_length_a       8.88095
_cell_length_b       11.397
_cell_length_c       14.8185
_cell_angle_alpha    67.302
_cell_angle_beta     72.5701
_cell_angle_gamma    67.0682

_space_group_name_H-M_alt    "P 1"
_space_group_IT_number       1

loop_
  _space_group_symop_operation_xyz
  'x, y, z'

loop_
  _atom_site_type_symbol
  _atom_site_label
  _atom_site_symmetry_multiplicity
  _atom_site_fract_x
  _atom_site_fract_y
  _atom_site_fract_z
  _atom_site_occupancy
  Cd  Cd1       1.0  0.08077  0.25001  0.75001  1.0000
  Cd  Cd2       1.0  0.91923  0.74999  0.24999  1.0000
  H   H1        1.0  0.63069  0.87032  0.75254  1.0000
  H   H2        1.0  0.25357  0.62984  0.74758  1.0000
  H   H3        1.0  0.36931  0.12968  0.24746  1.0000
  H   H4        1.0  0.74643  0.37016  0.25242  1.0000
  H   H5        1.0  0.80350  0.61912  0.02762  1.0000
  H   H6        1.0  0.45031  0.88087  0.47240  1.0000
  H   H7        1.0  0.19649  0.38087  0.97238  1.0000
  H   H8        1.0  0.54970  0.11913  0.52760  1.0000
  H   H9        1.0  0.34361  0.94548  0.02692  1.0000
  H   H10       1.0  0.31567  0.55464  0.47327  1.0000
  H   H11       1.0  0.65639  0.05452  0.97309  1.0000
  H   H12       1.0  0.68433  0.44536  0.52673  1.0000
  H   H13       1.0  0.48363  0.58809  0.82887  1.0000
  H   H14       1.0  0.90048  0.91201  0.67110  1.0000
  H   H15       1.0  0.51637  0.41191  0.17112  1.0000
  H   H16       1.0  0.09952  0.08799  0.32890  1.0000
  H   H17       1.0  0.70711  0.31906  0.08816  1.0000
  H   H18       1.0  0.11452  0.18085  0.41183  1.0000
  H   H19       1.0  0.29288  0.68094  0.91184  1.0000
  H   H20       1.0  0.88548  0.81915  0.58817  1.0000
  H   H21       1.0  0.94281  0.21650  0.97491  1.0000
  H   H22       1.0  0.13430  0.28341  0.52511  1.0000
  H   H23       1.0  0.05719  0.78349  0.02509  1.0000
  H   H24       1.0  0.86570  0.71659  0.47489  1.0000
  H   H25       1.0  0.84553  0.50289  0.65675  1.0000
  H   H26       1.0  0.00497  0.99724  0.84322  1.0000
  H   H27       1.0  0.15447  0.49711  0.34325  1.0000
  H   H28       1.0  0.99503  0.00276  0.15678  1.0000
  H   H29       1.0  0.62511  0.56400  0.66981  1.0000
  H   H30       1.0  0.85872  0.93616  0.83015  1.0000
  H   H31       1.0  0.37489  0.43600  0.33019  1.0000
  H   H32       1.0  0.14128  0.06385  0.16985  1.0000
  H   H33       1.0  0.73125  0.39332  0.67740  1.0000
  H   H34       1.0  0.80176  0.10685  0.82255  1.0000
  H   H35       1.0  0.26875  0.60668  0.32260  1.0000
  H   H36       1.0  0.19824  0.89315  0.17745  1.0000
  H   H37       1.0  0.06779  0.50759  0.83295  1.0000
  H   H38       1.0  0.40808  0.99267  0.66705  1.0000
  H   H39       1.0  0.93221  0.49241  0.16705  1.0000
  H   H40       1.0  0.59192  0.00733  0.33295  1.0000
  H   H41       1.0  0.63452  0.68312  0.17199  1.0000
  H   H42       1.0  0.48948  0.81682  0.32798  1.0000
  H   H43       1.0  0.36548  0.31688  0.82801  1.0000
  H   H44       1.0  0.51052  0.18318  0.67202  1.0000
  C   C1        1.0  0.47467  0.92155  0.88416  1.0000
  C   C2        1.0  0.28032  0.57853  0.61597  1.0000
  C   C3        1.0  0.52533  0.07845  0.11584  1.0000
  C   C4        1.0  0.71968  0.42147  0.38403  1.0000
  C   C5        1.0  0.61347  0.84675  0.83263  1.0000
  C   C6        1.0  0.29288  0.65335  0.66748  1.0000
  C   C7        1.0  0.38653  0.15325  0.16737  1.0000
  C   C8        1.0  0.70712  0.34665  0.33252  1.0000
  C   C9        1.0  0.73015  0.73793  0.88501  1.0000
  C   C10       1.0  0.35315  0.76214  0.61505  1.0000
  C   C11       1.0  0.26985  0.26207  0.11500  1.0000
  C   C12       1.0  0.64685  0.23786  0.38495  1.0000
  C   C13       1.0  0.71095  0.70448  0.98851  1.0000
  C   C14       1.0  0.40405  0.79548  0.51154  1.0000
  C   C15       1.0  0.28905  0.29551  0.01149  1.0000
  C   C16       1.0  0.59595  0.20452  0.48846  1.0000
  C   C17       1.0  0.57093  0.77953  0.04024  1.0000
  C   C18       1.0  0.39065  0.72051  0.45980  1.0000
  C   C19       1.0  0.42907  0.22047  0.95976  1.0000
  C   C20       1.0  0.60935  0.27949  0.54020  1.0000
  C   C21       1.0  0.45296  0.88747  0.98735  1.0000
  C   C22       1.0  0.32766  0.61263  0.51277  1.0000
  C   C23       1.0  0.54704  0.11253  0.01265  1.0000
  C   C24       1.0  0.67234  0.38737  0.48723  1.0000
  C   C25       1.0  0.34782  0.03646  0.82989  1.0000
  C   C26       1.0  0.21413  0.46359  0.67016  1.0000
  C   C27       1.0  0.65218  0.96354  0.17011  1.0000
  C   C28       1.0  0.78587  0.53641  0.32983  1.0000
  C   C29       1.0  0.87107  0.65849  0.82645  1.0000
  C   C30       1.0  0.35578  0.84172  0.67359  1.0000
  C   C31       1.0  0.12893  0.34151  0.17355  1.0000
  C   C32       1.0  0.64423  0.15828  0.32641  1.0000
  C   C33       1.0  0.71730  0.44028  0.80619  1.0000
  C   C34       1.0  0.96361  0.05982  0.69379  1.0000
  C   C35       1.0  0.28270  0.55972  0.19381  1.0000
  C   C36       1.0  0.03639  0.94018  0.30621  1.0000
  C   C37       1.0  0.58113  0.50507  0.86528  1.0000
  C   C38       1.0  0.95144  0.99498  0.63470  1.0000
  C   C39       1.0  0.41887  0.49493  0.13472  1.0000
  C   C40       1.0  0.04857  0.00502  0.36530  1.0000
  C   C41       1.0  0.57199  0.46556  0.96838  1.0000
  C   C42       1.0  0.00593  0.03445  0.53160  1.0000
  C   C43       1.0  0.42801  0.53444  0.03162  1.0000
  C   C44       1.0  0.99408  0.96555  0.46840  1.0000
  C   C45       1.0  0.70455  0.35856  0.00889  1.0000
  C   C46       1.0  0.07216  0.14134  0.49108  1.0000
  C   C47       1.0  0.29545  0.64144  0.99111  1.0000
  C   C48       1.0  0.92784  0.85866  0.50892  1.0000
  C   C49       1.0  0.83699  0.29890  0.94618  1.0000
  C   C50       1.0  0.08210  0.20106  0.55381  1.0000
  C   C51       1.0  0.16301  0.70110  0.05382  1.0000
  C   C52       1.0  0.91790  0.79894  0.44619  1.0000
  C   C53       1.0  0.73029  0.47795  0.69634  1.0000
  C   C54       1.0  0.90436  0.02222  0.80361  1.0000
  C   C55       1.0  0.26971  0.52205  0.30366  1.0000
  C   C56       1.0  0.09564  0.97779  0.19639  1.0000
  N   N1        1.0  0.84408  0.33853  0.84725  1.0000
  N   N2        1.0  0.02976  0.16154  0.65272  1.0000
  N   N3        1.0  0.15592  0.66147  0.15275  1.0000
  N   N4        1.0  0.97024  0.83846  0.34728  1.0000
  O   O1        1.0  0.20740  0.08517  0.87853  1.0000
  O   O2        1.0  0.17133  0.41476  0.62148  1.0000
  O   O3        1.0  0.79260  0.91483  0.12147  1.0000
  O   O4        1.0  0.82867  0.58524  0.37852  1.0000
  O   O5        1.0  0.38191  0.08445  0.73410  1.0000
  O   O6        1.0  0.20008  0.41567  0.76598  1.0000
  O   O7        1.0  0.61809  0.91555  0.26590  1.0000
  O   O8        1.0  0.79991  0.58434  0.23402  1.0000
  O   O9        1.0  0.88380  0.68242  0.73623  1.0000
  O   O10       1.0  0.30203  0.81787  0.76377  1.0000
  O   O11       1.0  0.11620  0.31758  0.26377  1.0000
  O   O12       1.0  0.69797  0.18213  0.23623  1.0000
  O   O13       1.0  0.98241  0.55823  0.87937  1.0000
  O   O14       1.0  0.41971  0.94201  0.62067  1.0000
  O   O15       1.0  0.01759  0.44177  0.12063  1.0000
  O   O16       1.0  0.58029  0.05800  0.37933  1.0000
  O   O17       1.0  0.53952  0.75300  0.14020  1.0000
  O   O18       1.0  0.43250  0.74699  0.35983  1.0000
  O   O19       1.0  0.46048  0.24700  0.85980  1.0000
  O   O20       1.0  0.56751  0.25301  0.64017  1.0000
