data_image0
_chemical_formula_structural       Hg2H24C34N12Cl4
_chemical_formula_sum              "Hg2 H24 C34 N12 Cl4"
_cell_length_a       8.50627
_cell_length_b       9.36381
_cell_length_c       11.5899
_cell_angle_alpha    79.0504
_cell_angle_beta     75.7673
_cell_angle_gamma    87.6408

_space_group_name_H-M_alt    "P 1"
_space_group_IT_number       1

loop_
  _space_group_symop_operation_xyz
  'x, y, z'

loop_
  _atom_site_type_symbol
  _atom_site_label
  _atom_site_symmetry_multiplicity
  _atom_site_fract_x
  _atom_site_fract_y
  _atom_site_fract_z
  _atom_site_occupancy
  Hg  Hg1       1.0  0.29167  0.68324  0.33667  1.0000
  Hg  Hg2       1.0  0.70833  0.31676  0.66333  1.0000
  H   H1        1.0  0.93260  0.61622  0.58200  1.0000
  H   H2        1.0  0.06740  0.38379  0.41800  1.0000
  H   H3        1.0  0.67503  0.72647  0.67977  1.0000
  H   H4        1.0  0.32497  0.27353  0.32023  1.0000
  H   H5        1.0  0.60460  0.98049  0.58457  1.0000
  H   H6        1.0  0.39541  0.01952  0.41543  1.0000
  H   H7        1.0  0.78819  0.10452  0.39553  1.0000
  H   H8        1.0  0.21181  0.89548  0.60447  1.0000
  H   H9        1.0  0.96576  0.22031  0.94406  1.0000
  H   H10       1.0  0.03424  0.77968  0.05594  1.0000
  H   H11       1.0  0.05050  0.34174  0.73083  1.0000
  H   H12       1.0  0.94950  0.65826  0.26917  1.0000
  H   H13       1.0  0.34765  0.35517  0.62465  1.0000
  H   H14       1.0  0.65235  0.64483  0.37535  1.0000
  H   H15       1.0  0.47591  0.16373  0.94076  1.0000
  H   H16       1.0  0.52409  0.83627  0.05924  1.0000
  H   H17       1.0  0.53178  0.09258  0.15281  1.0000
  H   H18       1.0  0.46822  0.90742  0.84719  1.0000
  H   H19       1.0  0.51276  0.36682  0.11983  1.0000
  H   H20       1.0  0.48723  0.63317  0.88017  1.0000
  H   H21       1.0  0.75339  0.50911  0.12143  1.0000
  H   H22       1.0  0.24660  0.49088  0.87857  1.0000
  H   H23       1.0  0.00478  0.37614  0.15874  1.0000
  H   H24       1.0  0.99522  0.62386  0.84126  1.0000
  C   C1        1.0  0.89471  0.72244  0.54063  1.0000
  C   C2        1.0  0.10529  0.27756  0.45937  1.0000
  C   C3        1.0  0.75153  0.78595  0.59632  1.0000
  C   C4        1.0  0.24847  0.21406  0.40369  1.0000
  C   C5        1.0  0.71247  0.92457  0.54271  1.0000
  C   C6        1.0  0.28753  0.07544  0.45729  1.0000
  C   C7        1.0  0.81476  0.99391  0.43487  1.0000
  C   C8        1.0  0.18524  0.00610  0.56513  1.0000
  C   C9        1.0  0.95181  0.91941  0.38257  1.0000
  C   C10       1.0  0.04819  0.08059  0.61743  1.0000
  C   C11       1.0  0.06545  0.97686  0.26708  1.0000
  C   C12       1.0  0.93455  0.02314  0.73292  1.0000
  C   C13       1.0  0.18270  0.09302  0.08408  1.0000
  C   C14       1.0  0.81730  0.90698  0.91592  1.0000
  C   C15       1.0  0.21462  0.18011  0.96193  1.0000
  C   C16       1.0  0.78539  0.81989  0.03807  1.0000
  C   C17       1.0  0.09455  0.23213  0.90040  1.0000
  C   C18       1.0  0.90545  0.76787  0.09960  1.0000
  C   C19       1.0  0.14151  0.29821  0.77919  1.0000
  C   C20       1.0  0.85849  0.70179  0.22081  1.0000
  C   C21       1.0  0.30544  0.30721  0.72044  1.0000
  C   C22       1.0  0.69456  0.69279  0.27956  1.0000
  C   C23       1.0  0.37773  0.20071  0.89727  1.0000
  C   C24       1.0  0.62227  0.79929  0.10273  1.0000
  C   C25       1.0  0.89563  0.16738  0.16758  1.0000
  C   C26       1.0  0.10437  0.83262  0.83242  1.0000
  C   C27       1.0  0.63389  0.16000  0.15262  1.0000
  C   C28       1.0  0.36612  0.84000  0.84738  1.0000
  C   C29       1.0  0.62346  0.31140  0.13436  1.0000
  C   C30       1.0  0.37654  0.68859  0.86563  1.0000
  C   C31       1.0  0.75754  0.39106  0.13578  1.0000
  C   C32       1.0  0.24246  0.60893  0.86422  1.0000
  C   C33       1.0  0.89786  0.31830  0.15497  1.0000
  C   C34       1.0  0.10214  0.68170  0.84503  1.0000
  N   N1        1.0  0.99145  0.78616  0.43575  1.0000
  N   N2        1.0  0.00855  0.21384  0.56425  1.0000
  N   N3        1.0  0.21413  0.92469  0.23343  1.0000
  N   N4        1.0  0.78587  0.07531  0.76657  1.0000
  N   N5        1.0  0.28716  0.99528  0.12024  1.0000
  N   N6        1.0  0.71284  0.00472  0.87976  1.0000
  N   N7        1.0  0.04152  0.08600  0.17519  1.0000
  N   N8        1.0  0.95849  0.91400  0.82481  1.0000
  N   N9        1.0  0.42077  0.26013  0.77954  1.0000
  N   N10       1.0  0.57923  0.73987  0.22046  1.0000
  N   N11       1.0  0.76942  0.08809  0.16752  1.0000
  N   N12       1.0  0.23058  0.91191  0.83248  1.0000
  Cl  Cl1       1.0  0.24286  0.54549  0.18773  1.0000
  Cl  Cl2       1.0  0.75714  0.45451  0.81227  1.0000
  Cl  Cl3       1.0  0.34357  0.65835  0.53568  1.0000
  Cl  Cl4       1.0  0.65643  0.34165  0.46432  1.0000
