data_image0
_chemical_formula_structural       Cd2H36C44N8O12
_chemical_formula_sum              "Cd2 H36 C44 N8 O12"
_cell_length_a       9.46663
_cell_length_b       9.70248
_cell_length_c       11.1301
_cell_angle_alpha    90
_cell_angle_beta     90
_cell_angle_gamma    104.174

_space_group_name_H-M_alt    "P 1"
_space_group_IT_number       1

loop_
  _space_group_symop_operation_xyz
  'x, y, z'

loop_
  _atom_site_type_symbol
  _atom_site_label
  _atom_site_symmetry_multiplicity
  _atom_site_fract_x
  _atom_site_fract_y
  _atom_site_fract_z
  _atom_site_occupancy
  Cd  Cd1       1.0  0.50000  1.00000  0.50000  1.0000
  Cd  Cd2       1.0  0.50000  0.50000  0.00000  1.0000
  H   H1        1.0  0.06500  0.98447  0.30364  1.0000
  H   H2        1.0  0.93501  0.51553  0.80364  1.0000
  H   H3        1.0  0.93500  0.01553  0.69636  1.0000
  H   H4        1.0  0.06499  0.48447  0.19636  1.0000
  H   H5        1.0  0.80792  0.76801  0.00882  1.0000
  H   H6        1.0  0.19208  0.73199  0.50882  1.0000
  H   H7        1.0  0.19208  0.23199  0.99118  1.0000
  H   H8        1.0  0.80792  0.26801  0.49118  1.0000
  H   H9        1.0  0.99037  0.63037  0.97400  1.0000
  H   H10       1.0  0.00962  0.86963  0.47400  1.0000
  H   H11       1.0  0.00963  0.36963  0.02600  1.0000
  H   H12       1.0  0.99037  0.13037  0.52600  1.0000
  H   H13       1.0  0.21076  0.66537  0.10637  1.0000
  H   H14       1.0  0.78924  0.83462  0.60637  1.0000
  H   H15       1.0  0.78924  0.33462  0.89363  1.0000
  H   H16       1.0  0.21076  0.16538  0.39363  1.0000
  H   H17       1.0  0.78320  0.02310  0.99892  1.0000
  H   H18       1.0  0.21680  0.47690  0.49892  1.0000
  H   H19       1.0  0.21681  0.97690  0.00108  1.0000
  H   H20       1.0  0.78320  0.52310  0.50109  1.0000
  H   H21       1.0  0.50697  0.14641  0.24162  1.0000
  H   H22       1.0  0.49303  0.35359  0.74162  1.0000
  H   H23       1.0  0.49303  0.85359  0.75838  1.0000
  H   H24       1.0  0.50697  0.64641  0.25838  1.0000
  H   H25       1.0  0.79191  0.91918  0.37564  1.0000
  H   H26       1.0  0.20809  0.58082  0.87564  1.0000
  H   H27       1.0  0.20809  0.08082  0.62436  1.0000
  H   H28       1.0  0.79191  0.41918  0.12436  1.0000
  H   H29       1.0  0.55949  0.74534  0.61912  1.0000
  H   H30       1.0  0.44052  0.75466  0.11912  1.0000
  H   H31       1.0  0.44051  0.25466  0.38088  1.0000
  H   H32       1.0  0.55949  0.24534  0.88088  1.0000
  H   H33       1.0  0.55898  0.70352  0.48248  1.0000
  H   H34       1.0  0.44102  0.79648  0.98248  1.0000
  H   H35       1.0  0.44102  0.29648  0.51752  1.0000
  H   H36       1.0  0.55898  0.20352  0.01752  1.0000
  C   C1        1.0  0.28768  0.85413  0.28977  1.0000
  C   C2        1.0  0.71232  0.64587  0.78977  1.0000
  C   C3        1.0  0.71232  0.14587  0.71023  1.0000
  C   C4        1.0  0.28768  0.35413  0.21023  1.0000
  C   C5        1.0  0.15225  0.82863  0.21276  1.0000
  C   C6        1.0  0.84775  0.67137  0.71276  1.0000
  C   C7        1.0  0.84775  0.17138  0.78724  1.0000
  C   C8        1.0  0.15225  0.32863  0.28724  1.0000
  C   C9        1.0  0.04708  0.90533  0.23245  1.0000
  C   C10       1.0  0.95292  0.59467  0.73245  1.0000
  C   C11       1.0  0.95292  0.09467  0.76755  1.0000
  C   C12       1.0  0.04708  0.40533  0.26756  1.0000
  C   C13       1.0  0.92301  0.88493  0.15953  1.0000
  C   C14       1.0  0.07699  0.61507  0.65953  1.0000
  C   C15       1.0  0.07699  0.11508  0.84047  1.0000
  C   C16       1.0  0.92301  0.38493  0.34048  1.0000
  C   C17       1.0  0.90538  0.78730  0.06448  1.0000
  C   C18       1.0  0.09462  0.71270  0.56448  1.0000
  C   C19       1.0  0.09462  0.21270  0.93552  1.0000
  C   C20       1.0  0.90538  0.28730  0.43552  1.0000
  C   C21       1.0  0.00844  0.70859  0.04606  1.0000
  C   C22       1.0  0.99155  0.79141  0.54606  1.0000
  C   C23       1.0  0.99156  0.29141  0.95394  1.0000
  C   C24       1.0  0.00844  0.20859  0.45394  1.0000
  C   C25       1.0  0.13093  0.72810  0.11974  1.0000
  C   C26       1.0  0.86907  0.77190  0.61974  1.0000
  C   C27       1.0  0.86907  0.27190  0.88026  1.0000
  C   C28       1.0  0.13093  0.22811  0.38026  1.0000
  C   C29       1.0  0.80917  0.96104  0.18354  1.0000
  C   C30       1.0  0.19084  0.53896  0.68354  1.0000
  C   C31       1.0  0.19084  0.03896  0.81646  1.0000
  C   C32       1.0  0.80916  0.46104  0.31646  1.0000
  C   C33       1.0  0.74671  0.02539  0.09174  1.0000
  C   C34       1.0  0.25330  0.47461  0.59174  1.0000
  C   C35       1.0  0.25330  0.97461  0.90826  1.0000
  C   C36       1.0  0.74670  0.52539  0.40826  1.0000
  C   C37       1.0  0.59447  0.09362  0.22624  1.0000
  C   C38       1.0  0.40553  0.40638  0.72624  1.0000
  C   C39       1.0  0.40553  0.90638  0.77376  1.0000
  C   C40       1.0  0.59447  0.59362  0.27376  1.0000
  C   C41       1.0  0.75268  0.96903  0.29883  1.0000
  C   C42       1.0  0.24732  0.53097  0.79883  1.0000
  C   C43       1.0  0.24733  0.03097  0.70117  1.0000
  C   C44       1.0  0.75267  0.46903  0.20117  1.0000
  N   N1        1.0  0.64250  0.09399  0.11330  1.0000
  N   N2        1.0  0.35750  0.40601  0.61330  1.0000
  N   N3        1.0  0.35750  0.90601  0.88670  1.0000
  N   N4        1.0  0.64249  0.59399  0.38670  1.0000
  N   N5        1.0  0.64477  0.03298  0.31986  1.0000
  N   N6        1.0  0.35523  0.46702  0.81986  1.0000
  N   N7        1.0  0.35523  0.96702  0.68014  1.0000
  N   N8        1.0  0.64477  0.53298  0.18014  1.0000
  O   O1        1.0  0.51754  0.76243  0.53977  1.0000
  O   O2        1.0  0.48247  0.73757  0.03977  1.0000
  O   O3        1.0  0.48246  0.23757  0.46023  1.0000
  O   O4        1.0  0.51754  0.26243  0.96023  1.0000
  O   O5        1.0  0.29277  0.93674  0.38048  1.0000
  O   O6        1.0  0.70723  0.56326  0.88048  1.0000
  O   O7        1.0  0.70723  0.06326  0.61952  1.0000
  O   O8        1.0  0.29277  0.43674  0.11952  1.0000
  O   O9        1.0  0.38685  0.79374  0.26068  1.0000
  O   O10       1.0  0.61315  0.70626  0.76068  1.0000
  O   O11       1.0  0.61315  0.20626  0.73932  1.0000
  O   O12       1.0  0.38684  0.29374  0.23932  1.0000
