data_image0
_chemical_formula_structural       K2Ba2H12C16N2O16
_chemical_formula_sum              "K2 Ba2 H12 C16 N2 O16"
_cell_length_a       6.73924
_cell_length_b       9.7096
_cell_length_c       10.362
_cell_angle_alpha    117.218
_cell_angle_beta     108.032
_cell_angle_gamma    91.9462

_space_group_name_H-M_alt    "P 1"
_space_group_IT_number       1

loop_
  _space_group_symop_operation_xyz
  'x, y, z'

loop_
  _atom_site_type_symbol
  _atom_site_label
  _atom_site_symmetry_multiplicity
  _atom_site_fract_x
  _atom_site_fract_y
  _atom_site_fract_z
  _atom_site_occupancy
  K   K1        1.0  0.30256  0.05277  0.10542  1.0000
  K   K2        1.0  0.69745  0.94723  0.89458  1.0000
  Ba  Ba1       1.0  0.01352  0.76355  0.52710  1.0000
  Ba  Ba2       1.0  0.98648  0.23645  0.47290  1.0000
  H   H1        1.0  0.42792  0.76815  0.11744  1.0000
  H   H2        1.0  0.18983  0.35016  0.11762  1.0000
  H   H3        1.0  0.57208  0.23186  0.88256  1.0000
  H   H4        1.0  0.81016  0.64984  0.88238  1.0000
  H   H5        1.0  0.41585  0.05726  0.63781  1.0000
  H   H6        1.0  0.72174  0.58031  0.63775  1.0000
  H   H7        1.0  0.58414  0.94275  0.36220  1.0000
  H   H8        1.0  0.27826  0.41969  0.36225  1.0000
  H   H9        1.0  0.48968  0.89904  0.56245  1.0000
  H   H10       1.0  0.57275  0.66320  0.56224  1.0000
  H   H11       1.0  0.51031  0.10096  0.43756  1.0000
  H   H12       1.0  0.42725  0.33680  0.43776  1.0000
  C   C1        1.0  0.25854  0.64335  0.80037  1.0000
  C   C2        1.0  0.04220  0.15757  0.80061  1.0000
  C   C3        1.0  0.74146  0.35665  0.19963  1.0000
  C   C4        1.0  0.95780  0.84243  0.19939  1.0000
  C   C5        1.0  0.25371  0.56184  0.89523  1.0000
  C   C6        1.0  0.14161  0.33407  0.89537  1.0000
  C   C7        1.0  0.74629  0.43816  0.10477  1.0000
  C   C8        1.0  0.85839  0.66594  0.10463  1.0000
  C   C9        1.0  0.34364  0.64580  0.05807  1.0000
  C   C10       1.0  0.21450  0.41296  0.05817  1.0000
  C   C11       1.0  0.65636  0.35420  0.94193  1.0000
  C   C12       1.0  0.78550  0.58704  0.94183  1.0000
  C   C13       1.0  0.32104  0.57132  0.14200  1.0000
  C   C14       1.0  0.67896  0.42868  0.85800  1.0000
  C   C15       1.0  0.40907  0.65916  0.31779  1.0000
  C   C16       1.0  0.59093  0.34085  0.68221  1.0000
  N   N1        1.0  0.15780  0.40807  0.81563  1.0000
  N   N2        1.0  0.84220  0.59193  0.18437  1.0000
  O   O1        1.0  0.17538  0.55975  0.65276  1.0000
  O   O2        1.0  0.97826  0.09336  0.65299  1.0000
  O   O3        1.0  0.82463  0.44025  0.34723  1.0000
  O   O4        1.0  0.02174  0.90664  0.34701  1.0000
  O   O5        1.0  0.34094  0.78994  0.87492  1.0000
  O   O6        1.0  0.03398  0.08573  0.87526  1.0000
  O   O7        1.0  0.65906  0.21006  0.12508  1.0000
  O   O8        1.0  0.96602  0.91427  0.12474  1.0000
  O   O9        1.0  0.33089  0.60818  0.38903  1.0000
  O   O10       1.0  0.55870  0.78131  0.38916  1.0000
  O   O11       1.0  0.66911  0.39183  0.61097  1.0000
  O   O12       1.0  0.44130  0.21869  0.61084  1.0000
  O   O13       1.0  0.42577  0.95709  0.64109  1.0000
  O   O14       1.0  0.71526  0.68375  0.64102  1.0000
  O   O15       1.0  0.57422  0.04291  0.35891  1.0000
  O   O16       1.0  0.28474  0.31625  0.35898  1.0000
