data_image0
_chemical_formula_structural       K2Ca2Er2H12C32N4O26
_chemical_formula_sum              "K2 Ca2 Er2 H12 C32 N4 O26"
_cell_length_a       7.84724
_cell_length_b       10.9911
_cell_length_c       11.8508
_cell_angle_alpha    75.7498
_cell_angle_beta     72.236
_cell_angle_gamma    76.196

_space_group_name_H-M_alt    "P 1"
_space_group_IT_number       1

loop_
  _space_group_symop_operation_xyz
  'x, y, z'

loop_
  _atom_site_type_symbol
  _atom_site_label
  _atom_site_symmetry_multiplicity
  _atom_site_fract_x
  _atom_site_fract_y
  _atom_site_fract_z
  _atom_site_occupancy
  K   K1        1.0  0.78202  0.09271  0.39578  1.0000
  K   K2        1.0  0.21797  0.90728  0.60424  1.0000
  Ca  Ca1       1.0  0.54959  0.42202  0.15956  1.0000
  Ca  Ca2       1.0  0.45044  0.57799  0.84043  1.0000
  Er  Er1       1.0  0.67808  0.74539  0.28449  1.0000
  Er  Er2       1.0  0.32193  0.25461  0.71551  1.0000
  H   H1        1.0  0.87921  0.27919  0.07283  1.0000
  H   H2        1.0  0.12079  0.72081  0.92717  1.0000
  H   H3        1.0  0.66470  0.83270  0.80865  1.0000
  H   H4        1.0  0.33532  0.16729  0.19134  1.0000
  H   H5        1.0  0.79555  0.14698  0.90902  1.0000
  H   H6        1.0  0.20441  0.85303  0.09098  1.0000
  H   H7        1.0  0.33227  0.54749  0.39332  1.0000
  H   H8        1.0  0.66773  0.45250  0.60667  1.0000
  H   H9        1.0  0.91707  0.68635  0.69075  1.0000
  H   H10       1.0  0.08295  0.31365  0.30925  1.0000
  H   H11       1.0  0.91440  0.38989  0.96336  1.0000
  H   H12       1.0  0.08562  0.61011  0.03663  1.0000
  C   C1        1.0  0.62091  0.68373  0.04063  1.0000
  C   C2        1.0  0.37910  0.31626  0.95937  1.0000
  C   C3        1.0  0.68084  0.81079  0.99159  1.0000
  C   C4        1.0  0.31917  0.18921  0.00841  1.0000
  C   C5        1.0  0.69305  0.87569  0.87334  1.0000
  C   C6        1.0  0.30695  0.12431  0.12666  1.0000
  C   C7        1.0  0.73542  0.99863  0.84126  1.0000
  C   C8        1.0  0.26457  0.00137  0.15874  1.0000
  C   C9        1.0  0.76598  0.05080  0.92865  1.0000
  C   C10       1.0  0.23399  0.94920  0.07135  1.0000
  C   C11       1.0  0.75720  0.97692  0.04376  1.0000
  C   C12       1.0  0.24278  0.02309  0.95624  1.0000
  C   C13       1.0  0.78444  0.02079  0.14767  1.0000
  C   C14       1.0  0.21554  0.97923  0.85233  1.0000
  C   C15       1.0  0.73973  0.07257  0.71490  1.0000
  C   C16       1.0  0.26028  0.92742  0.28509  1.0000
  C   C17       1.0  0.10703  0.60799  0.23947  1.0000
  C   C18       1.0  0.89296  0.39201  0.76053  1.0000
  C   C19       1.0  0.06857  0.63600  0.36355  1.0000
  C   C20       1.0  0.93142  0.36399  0.63645  1.0000
  C   C21       1.0  0.19510  0.59465  0.43114  1.0000
  C   C22       1.0  0.80490  0.40535  0.56885  1.0000
  C   C23       1.0  0.14255  0.61413  0.54975  1.0000
  C   C24       1.0  0.85745  0.38588  0.45024  1.0000
  C   C25       1.0  0.96474  0.67336  0.59723  1.0000
  C   C26       1.0  0.03527  0.32664  0.40277  1.0000
  C   C27       1.0  0.84544  0.70965  0.52343  1.0000
  C   C28       1.0  0.15455  0.29034  0.47657  1.0000
  C   C29       1.0  0.64507  0.76008  0.56725  1.0000
  C   C30       1.0  0.35495  0.23992  0.43277  1.0000
  C   C31       1.0  0.27622  0.56338  0.62462  1.0000
  C   C32       1.0  0.72379  0.43662  0.37537  1.0000
  N   N1        1.0  0.71514  0.85981  0.07377  1.0000
  N   N2        1.0  0.28486  0.14019  0.92623  1.0000
  N   N3        1.0  0.89828  0.69353  0.40843  1.0000
  N   N4        1.0  0.10172  0.30648  0.59158  1.0000
  O   O1        1.0  0.62552  0.63339  0.14935  1.0000
  O   O2        1.0  0.37448  0.36660  0.85065  1.0000
  O   O3        1.0  0.56672  0.63261  0.97667  1.0000
  O   O4        1.0  0.43329  0.36738  0.02333  1.0000
  O   O5        1.0  0.76426  0.93967  0.24790  1.0000
  O   O6        1.0  0.23573  0.06032  0.75209  1.0000
  O   O7        1.0  0.82183  0.12880  0.13365  1.0000
  O   O8        1.0  0.17812  0.87122  0.86635  1.0000
  O   O9        1.0  0.61199  0.16923  0.70753  1.0000
  O   O10       1.0  0.38801  0.83076  0.29247  1.0000
  O   O11       1.0  0.86215  0.03437  0.62859  1.0000
  O   O12       1.0  0.13784  0.96561  0.37141  1.0000
  O   O13       1.0  0.97566  0.64860  0.18855  1.0000
  O   O14       1.0  0.02432  0.35141  0.81145  1.0000
  O   O15       1.0  0.25840  0.54471  0.19592  1.0000
  O   O16       1.0  0.74159  0.45531  0.80409  1.0000
  O   O17       1.0  0.56026  0.80164  0.48483  1.0000
  O   O18       1.0  0.43975  0.19834  0.51519  1.0000
  O   O19       1.0  0.57634  0.75489  0.67940  1.0000
  O   O20       1.0  0.42367  0.24511  0.32062  1.0000
  O   O21       1.0  0.36630  0.45137  0.61452  1.0000
  O   O22       1.0  0.63371  0.54863  0.38548  1.0000
  O   O23       1.0  0.29095  0.63307  0.68940  1.0000
  O   O24       1.0  0.70908  0.36694  0.31059  1.0000
  O   O25       1.0  0.86024  0.37310  0.05144  1.0000
  O   O26       1.0  0.13976  0.62691  0.94855  1.0000
