data_image0
_chemical_formula_structural       Zn2H36C44N8O12
_chemical_formula_sum              "Zn2 H36 C44 N8 O12"
_cell_length_a       8.16675
_cell_length_b       8.83025
_cell_length_c       14.5087
_cell_angle_alpha    90.0002
_cell_angle_beta     95.0389
_cell_angle_gamma    90.0009

_space_group_name_H-M_alt    "P 1"
_space_group_IT_number       1

loop_
  _space_group_symop_operation_xyz
  'x, y, z'

loop_
  _atom_site_type_symbol
  _atom_site_label
  _atom_site_symmetry_multiplicity
  _atom_site_fract_x
  _atom_site_fract_y
  _atom_site_fract_z
  _atom_site_occupancy
  Zn  Zn1       1.0  1.00000  1.00000  0.00000  1.0000
  Zn  Zn2       1.0  1.00000  0.49999  0.50000  1.0000
  H   H1        1.0  0.98323  0.77379  0.83683  1.0000
  H   H2        1.0  0.01677  0.27380  0.66317  1.0000
  H   H3        1.0  0.01677  0.22621  0.16317  1.0000
  H   H4        1.0  0.98325  0.72619  0.33684  1.0000
  H   H5        1.0  0.73769  0.38323  0.90410  1.0000
  H   H6        1.0  0.26231  0.88324  0.59589  1.0000
  H   H7        1.0  0.26232  0.61678  0.09589  1.0000
  H   H8        1.0  0.73770  0.11677  0.40411  1.0000
  H   H9        1.0  0.86096  0.73369  0.10636  1.0000
  H   H10       1.0  0.13905  0.23370  0.39363  1.0000
  H   H11       1.0  0.13904  0.26630  0.89364  1.0000
  H   H12       1.0  0.86094  0.76630  0.60637  1.0000
  H   H13       1.0  0.54220  0.33300  0.98779  1.0000
  H   H14       1.0  0.45779  0.83301  0.51221  1.0000
  H   H15       1.0  0.45779  0.66701  0.01221  1.0000
  H   H16       1.0  0.54222  0.16700  0.48779  1.0000
  H   H17       1.0  0.40962  0.18493  0.10361  1.0000
  H   H18       1.0  0.59037  0.68494  0.39639  1.0000
  H   H19       1.0  0.59037  0.81508  0.89639  1.0000
  H   H20       1.0  0.40964  0.31507  0.60361  1.0000
  H   H21       1.0  0.48719  0.22580  0.27225  1.0000
  H   H22       1.0  0.51280  0.72581  0.22775  1.0000
  H   H23       1.0  0.51281  0.77421  0.72775  1.0000
  H   H24       1.0  0.48719  0.27420  0.77225  1.0000
  H   H25       1.0  0.86074  0.53918  0.20616  1.0000
  H   H26       1.0  0.13926  0.03919  0.29384  1.0000
  H   H27       1.0  0.13927  0.46081  0.79383  1.0000
  H   H28       1.0  0.86073  0.96082  0.70617  1.0000
  H   H29       1.0  0.30089  0.92980  0.99280  1.0000
  H   H30       1.0  0.69911  0.42980  0.50720  1.0000
  H   H31       1.0  0.69910  0.07019  0.00721  1.0000
  H   H32       1.0  0.30089  0.57020  0.49280  1.0000
  H   H33       1.0  0.28585  0.01752  0.89506  1.0000
  H   H34       1.0  0.71414  0.51751  0.60494  1.0000
  H   H35       1.0  0.71415  0.98248  0.10495  1.0000
  H   H36       1.0  0.28586  0.48249  0.39505  1.0000
  C   C1        1.0  0.92553  0.70590  0.88775  1.0000
  C   C2        1.0  0.07448  0.20590  0.61225  1.0000
  C   C3        1.0  0.07448  0.29411  0.11225  1.0000
  C   C4        1.0  0.92553  0.79409  0.38776  1.0000
  C   C5        1.0  0.79096  0.49225  0.92600  1.0000
  C   C6        1.0  0.20904  0.99226  0.57400  1.0000
  C   C7        1.0  0.20904  0.50775  0.07399  1.0000
  C   C8        1.0  0.79097  0.00772  0.42601  1.0000
  C   C9        1.0  0.78570  0.54157  0.01795  1.0000
  C   C10       1.0  0.21430  0.04157  0.48205  1.0000
  C   C11       1.0  0.21430  0.45842  0.98204  1.0000
  C   C12       1.0  0.78570  0.95842  0.51797  1.0000
  C   C13       1.0  0.85814  0.68305  0.03760  1.0000
  C   C14       1.0  0.14187  0.18306  0.46240  1.0000
  C   C15       1.0  0.14187  0.31694  0.96239  1.0000
  C   C16       1.0  0.85813  0.81694  0.53762  1.0000
  C   C17       1.0  0.70660  0.45308  0.08781  1.0000
  C   C18       1.0  0.29340  0.95309  0.41219  1.0000
  C   C19       1.0  0.29341  0.54692  0.91218  1.0000
  C   C20       1.0  0.70660  0.04691  0.58782  1.0000
  C   C21       1.0  0.58041  0.35009  0.06074  1.0000
  C   C22       1.0  0.41958  0.85010  0.43925  1.0000
  C   C23       1.0  0.41958  0.64991  0.93925  1.0000
  C   C24       1.0  0.58042  0.14991  0.56075  1.0000
  C   C25       1.0  0.50402  0.26713  0.12640  1.0000
  C   C26       1.0  0.49598  0.76714  0.37359  1.0000
  C   C27       1.0  0.49598  0.73287  0.87359  1.0000
  C   C28       1.0  0.50403  0.23287  0.62641  1.0000
  C   C29       1.0  0.54860  0.28802  0.22030  1.0000
  C   C30       1.0  0.45139  0.78803  0.27970  1.0000
  C   C31       1.0  0.45140  0.71198  0.77970  1.0000
  C   C32       1.0  0.54860  0.21199  0.72030  1.0000
  C   C33       1.0  0.67661  0.38795  0.24852  1.0000
  C   C34       1.0  0.32340  0.88795  0.25148  1.0000
  C   C35       1.0  0.32340  0.61205  0.75148  1.0000
  C   C36       1.0  0.67660  0.11206  0.74852  1.0000
  C   C37       1.0  0.75602  0.46846  0.18253  1.0000
  C   C38       1.0  0.24398  0.96847  0.31747  1.0000
  C   C39       1.0  0.24399  0.53153  0.81747  1.0000
  C   C40       1.0  0.75601  0.03153  0.68253  1.0000
  C   C41       1.0  0.72957  0.40785  0.34954  1.0000
  C   C42       1.0  0.27043  0.90786  0.15045  1.0000
  C   C43       1.0  0.27044  0.59215  0.65046  1.0000
  C   C44       1.0  0.72955  0.09215  0.84955  1.0000
  N   N1        1.0  0.92606  0.76515  0.97311  1.0000
  N   N2        1.0  0.07394  0.26515  0.52689  1.0000
  N   N3        1.0  0.07394  0.23485  0.02688  1.0000
  N   N4        1.0  0.92605  0.73484  0.47313  1.0000
  N   N5        1.0  0.86058  0.57227  0.86149  1.0000
  N   N6        1.0  0.13943  0.07227  0.63850  1.0000
  N   N7        1.0  0.13943  0.42773  0.13850  1.0000
  N   N8        1.0  0.86059  0.92772  0.36150  1.0000
  O   O1        1.0  0.22380  0.95760  0.93617  1.0000
  O   O2        1.0  0.77619  0.45759  0.56383  1.0000
  O   O3        1.0  0.77619  0.04240  0.06383  1.0000
  O   O4        1.0  0.22380  0.54240  0.43617  1.0000
  O   O5        1.0  0.88033  0.44260  0.37038  1.0000
  O   O6        1.0  0.11966  0.94261  0.12962  1.0000
  O   O7        1.0  0.11968  0.55740  0.62962  1.0000
  O   O8        1.0  0.88031  0.05740  0.87039  1.0000
  O   O9        1.0  0.62112  0.38898  0.40643  1.0000
  O   O10       1.0  0.37886  0.88897  0.09357  1.0000
  O   O11       1.0  0.37888  0.61102  0.59357  1.0000
  O   O12       1.0  0.62111  0.11101  0.90643  1.0000
