data_image0
_chemical_formula_structural       CdH14C20N4O6F4
_chemical_formula_sum              "Cd1 H14 C20 N4 O6 F4"
_cell_length_a       6.9191
_cell_length_b       7.98441
_cell_length_c       11.0215
_cell_angle_alpha    104.217
_cell_angle_beta     106.813
_cell_angle_gamma    102.98

_space_group_name_H-M_alt    "P 1"
_space_group_IT_number       1

loop_
  _space_group_symop_operation_xyz
  'x, y, z'

loop_
  _atom_site_type_symbol
  _atom_site_label
  _atom_site_symmetry_multiplicity
  _atom_site_fract_x
  _atom_site_fract_y
  _atom_site_fract_z
  _atom_site_occupancy
  Cd  Cd1       1.0  0.99999  0.50000  0.50000  1.0000
  H   H1        1.0  0.35679  0.34812  0.94825  1.0000
  H   H2        1.0  0.64321  0.65190  0.05175  1.0000
  H   H3        1.0  0.31805  0.96423  0.58208  1.0000
  H   H4        1.0  0.68196  0.03577  0.41792  1.0000
  H   H5        1.0  0.43458  0.89570  0.78969  1.0000
  H   H6        1.0  0.56542  0.10431  0.21032  1.0000
  H   H7        1.0  0.15884  0.15275  0.45783  1.0000
  H   H8        1.0  0.84117  0.84725  0.54218  1.0000
  H   H9        1.0  0.20020  0.52417  0.80889  1.0000
  H   H10       1.0  0.79980  0.47583  0.19110  1.0000
  H   H11       1.0  0.45933  0.65764  0.59576  1.0000
  H   H12       1.0  0.54066  0.34235  0.40424  1.0000
  H   H13       1.0  0.35170  0.58632  0.43944  1.0000
  H   H14       1.0  0.64830  0.41367  0.56056  1.0000
  C   C1        1.0  0.31583  0.30200  0.83981  1.0000
  C   C2        1.0  0.68417  0.69802  0.16020  1.0000
  C   C3        1.0  0.90536  0.02394  0.87989  1.0000
  C   C4        1.0  0.09465  0.97605  0.12010  1.0000
  C   C5        1.0  0.02902  0.83457  0.99944  1.0000
  C   C6        1.0  0.97098  0.16542  0.00055  1.0000
  C   C7        1.0  0.93212  0.85581  0.87713  1.0000
  C   C8        1.0  0.06787  0.14418  0.12286  1.0000
  C   C9        1.0  0.86824  0.70374  0.74530  1.0000
  C   C10       1.0  0.13175  0.29625  0.25469  1.0000
  C   C11       1.0  0.29424  0.08747  0.63600  1.0000
  C   C12       1.0  0.70576  0.91254  0.36401  1.0000
  C   C13       1.0  0.34646  0.14017  0.77558  1.0000
  C   C14       1.0  0.65354  0.85983  0.22443  1.0000
  C   C15       1.0  0.42225  0.02310  0.84754  1.0000
  C   C16       1.0  0.57776  0.97692  0.15247  1.0000
  C   C17       1.0  0.20615  0.19228  0.56662  1.0000
  C   C18       1.0  0.79386  0.80772  0.43339  1.0000
  C   C19       1.0  0.22786  0.39887  0.76292  1.0000
  C   C20       1.0  0.77213  0.60114  0.23708  1.0000
  N   N1        1.0  0.46839  0.06596  0.97593  1.0000
  N   N2        1.0  0.53162  0.93406  0.02407  1.0000
  N   N3        1.0  0.16974  0.34345  0.62777  1.0000
  N   N4        1.0  0.83026  0.65655  0.37222  1.0000
  O   O1        1.0  0.34854  0.67123  0.52207  1.0000
  O   O2        1.0  0.65145  0.32876  0.47793  1.0000
  O   O3        1.0  0.01760  0.69844  0.70109  1.0000
  O   O4        1.0  0.98239  0.30155  0.29890  1.0000
  O   O5        1.0  0.67786  0.59865  0.69265  1.0000
  O   O6        1.0  0.32214  0.40133  0.30735  1.0000
  F   F1        1.0  0.06268  0.67411  0.00119  1.0000
  F   F2        1.0  0.93733  0.32589  0.99881  1.0000
  F   F3        1.0  0.81171  0.05051  0.76224  1.0000
  F   F4        1.0  0.18830  0.94949  0.23776  1.0000
