data_image0
_chemical_formula_structural       CdH14C20N4O6F4
_chemical_formula_sum              "Cd1 H14 C20 N4 O6 F4"
_cell_length_a       7.80475
_cell_length_b       8.29709
_cell_length_c       8.95232
_cell_angle_alpha    78.6488
_cell_angle_beta     66.5803
_cell_angle_gamma    83.5604

_space_group_name_H-M_alt    "P 1"
_space_group_IT_number       1

loop_
  _space_group_symop_operation_xyz
  'x, y, z'

loop_
  _atom_site_type_symbol
  _atom_site_label
  _atom_site_symmetry_multiplicity
  _atom_site_fract_x
  _atom_site_fract_y
  _atom_site_fract_z
  _atom_site_occupancy
  Cd  Cd1       1.0  0.00000  0.00000  0.50000  1.0000
  H   H1        1.0  0.01522  0.15074  0.17770  1.0000
  H   H2        1.0  0.98479  0.84927  0.82230  1.0000
  H   H3        1.0  0.05214  0.27412  0.28110  1.0000
  H   H4        1.0  0.94786  0.72589  0.71889  1.0000
  H   H5        1.0  0.76191  0.05269  0.21204  1.0000
  H   H6        1.0  0.23809  0.94730  0.78796  1.0000
  H   H7        1.0  0.40221  0.62654  0.03220  1.0000
  H   H8        1.0  0.59780  0.37346  0.96780  1.0000
  H   H9        1.0  0.44131  0.02697  0.35269  1.0000
  H   H10       1.0  0.55869  0.97304  0.64731  1.0000
  H   H11       1.0  0.12186  0.72835  0.25395  1.0000
  H   H12       1.0  0.87814  0.27164  0.74605  1.0000
  H   H13       1.0  0.71324  0.73800  0.96217  1.0000
  H   H14       1.0  0.28676  0.26200  0.03783  1.0000
  C   C1        1.0  0.37813  0.40727  0.46908  1.0000
  C   C2        1.0  0.62186  0.59274  0.53092  1.0000
  C   C3        1.0  0.55872  0.44056  0.35399  1.0000
  C   C4        1.0  0.44128  0.55945  0.64601  1.0000
  C   C5        1.0  0.77238  0.97291  0.12443  1.0000
  C   C6        1.0  0.22762  0.02709  0.87557  1.0000
  C   C7        1.0  0.41732  0.71774  0.09761  1.0000
  C   C8        1.0  0.58269  0.28225  0.90239  1.0000
  C   C9        1.0  0.43851  0.93996  0.27687  1.0000
  C   C10       1.0  0.56149  0.06004  0.72313  1.0000
  C   C11       1.0  0.60313  0.89455  0.15122  1.0000
  C   C12       1.0  0.39687  0.10545  0.84878  1.0000
  C   C13       1.0  0.26022  0.77296  0.22233  1.0000
  C   C14       1.0  0.73978  0.22704  0.77767  1.0000
  C   C15       1.0  0.67758  0.53236  0.38306  1.0000
  C   C16       1.0  0.32242  0.46764  0.61695  1.0000
  C   C17       1.0  0.59027  0.77978  0.05986  1.0000
  C   C18       1.0  0.40973  0.22023  0.94014  1.0000
  C   C19       1.0  0.24663  0.31296  0.43337  1.0000
  C   C20       1.0  0.75336  0.68704  0.56663  1.0000
  N   N1        1.0  0.92895  0.95550  0.00139  1.0000
  N   N2        1.0  0.07105  0.04450  0.99861  1.0000
  N   N3        1.0  0.27102  0.88306  0.31009  1.0000
  N   N4        1.0  0.72898  0.11694  0.68991  1.0000
  O   O1        1.0  0.18930  0.17979  0.53359  1.0000
  O   O2        1.0  0.81069  0.82021  0.46641  1.0000
  O   O3        1.0  0.20818  0.37415  0.30959  1.0000
  O   O4        1.0  0.79182  0.62585  0.69041  1.0000
  O   O5        1.0  0.96419  0.19202  0.28506  1.0000
  O   O6        1.0  0.03581  0.80799  0.71493  1.0000
  F   F1        1.0  0.85028  0.56247  0.26478  1.0000
  F   F2        1.0  0.14971  0.43752  0.73522  1.0000
  F   F3        1.0  0.62221  0.38181  0.20928  1.0000
  F   F4        1.0  0.37778  0.61818  0.79073  1.0000
