data_image0
_chemical_formula_structural       CdH12C18N2O6F4
_chemical_formula_sum              "Cd1 H12 C18 N2 O6 F4"
_cell_length_a       7.12381
_cell_length_b       7.91442
_cell_length_c       8.27039
_cell_angle_alpha    85.9095
_cell_angle_beta     72.1112
_cell_angle_gamma    86.9158

_space_group_name_H-M_alt    "P 1"
_space_group_IT_number       1

loop_
  _space_group_symop_operation_xyz
  'x, y, z'

loop_
  _atom_site_type_symbol
  _atom_site_label
  _atom_site_symmetry_multiplicity
  _atom_site_fract_x
  _atom_site_fract_y
  _atom_site_fract_z
  _atom_site_occupancy
  Cd  Cd1       1.0  0.00001  1.00000  1.00000  1.0000
  H   H1        1.0  0.35695  0.86435  0.09819  1.0000
  H   H2        1.0  0.64305  0.13565  0.90181  1.0000
  H   H3        1.0  0.38703  0.93587  0.91076  1.0000
  H   H4        1.0  0.61298  0.06413  0.08924  1.0000
  H   H5        1.0  0.86461  0.40365  0.79244  1.0000
  H   H6        1.0  0.13538  0.59635  0.20756  1.0000
  H   H7        1.0  0.13643  0.96369  0.59266  1.0000
  H   H8        1.0  0.86357  0.03630  0.40734  1.0000
  H   H9        1.0  0.13987  0.76375  0.37717  1.0000
  H   H10       1.0  0.86012  0.23624  0.62283  1.0000
  H   H11       1.0  0.86557  0.62184  0.98779  1.0000
  H   H12       1.0  0.13444  0.37815  0.01221  1.0000
  C   C1        1.0  0.00030  0.56253  0.56248  1.0000
  C   C2        1.0  0.99970  0.43747  0.43752  1.0000
  C   C3        1.0  0.47763  0.50486  0.67148  1.0000
  C   C4        1.0  0.52236  0.49515  0.32852  1.0000
  C   C5        1.0  0.92460  0.52587  0.73887  1.0000
  C   C6        1.0  0.07540  0.47413  0.26113  1.0000
  C   C7        1.0  0.43470  0.35625  0.61140  1.0000
  C   C8        1.0  0.56529  0.64375  0.38860  1.0000
  C   C9        1.0  0.07472  0.83867  0.63117  1.0000
  C   C10       1.0  0.92529  0.16132  0.36883  1.0000
  C   C11       1.0  0.54219  0.64613  0.56182  1.0000
  C   C12       1.0  0.45781  0.35387  0.43817  1.0000
  C   C13       1.0  0.36312  0.20239  0.73086  1.0000
  C   C14       1.0  0.63689  0.79762  0.26914  1.0000
  C   C15       1.0  0.07687  0.72421  0.51066  1.0000
  C   C16       1.0  0.92313  0.27578  0.48934  1.0000
  C   C17       1.0  0.92540  0.64811  0.85102  1.0000
  C   C18       1.0  0.07461  0.35189  0.14898  1.0000
  N   N1        1.0  0.99861  0.80283  0.79956  1.0000
  N   N2        1.0  0.00139  0.19716  0.20044  1.0000
  O   O1        1.0  0.49083  0.11065  0.77616  1.0000
  O   O2        1.0  0.50917  0.88936  0.22384  1.0000
  O   O3        1.0  0.29920  0.86301  0.00372  1.0000
  O   O4        1.0  0.70081  0.13699  0.99628  1.0000
  O   O5        1.0  0.17891  0.18076  0.77306  1.0000
  O   O6        1.0  0.82109  0.81924  0.22693  1.0000
  F   F1        1.0  0.58253  0.78866  0.62463  1.0000
  F   F2        1.0  0.41746  0.21134  0.37537  1.0000
  F   F3        1.0  0.45711  0.51185  0.83938  1.0000
  F   F4        1.0  0.54289  0.48816  0.16062  1.0000
