data_image0
_chemical_formula_structural       CdH14C20N2O6F4
_chemical_formula_sum              "Cd1 H14 C20 N2 O6 F4"
_cell_length_a       7.02347
_cell_length_b       7.83311
_cell_length_c       9.91083
_cell_angle_alpha    76.0553
_cell_angle_beta     68.5461
_cell_angle_gamma    79.4965

_space_group_name_H-M_alt    "P 1"
_space_group_IT_number       1

loop_
  _space_group_symop_operation_xyz
  'x, y, z'

loop_
  _atom_site_type_symbol
  _atom_site_label
  _atom_site_symmetry_multiplicity
  _atom_site_fract_x
  _atom_site_fract_y
  _atom_site_fract_z
  _atom_site_occupancy
  Cd  Cd1       1.0  1.00000  0.00000  1.00000  1.0000
  H   H1        1.0  0.41274  0.91616  0.92237  1.0000
  H   H2        1.0  0.58725  0.08382  0.07765  1.0000
  H   H3        1.0  0.36092  0.85191  0.09258  1.0000
  H   H4        1.0  0.63907  0.14809  0.90743  1.0000
  H   H5        1.0  0.88617  0.18225  0.51328  1.0000
  H   H6        1.0  0.11381  0.81777  0.48672  1.0000
  H   H7        1.0  0.08938  0.64200  0.36269  1.0000
  H   H8        1.0  0.91063  0.35801  0.63730  1.0000
  H   H9        1.0  0.18829  0.56173  0.12753  1.0000
  H   H10       1.0  0.81173  0.43827  0.87245  1.0000
  H   H11       1.0  0.88056  0.00049  0.34268  1.0000
  H   H12       1.0  0.11942  0.99953  0.65732  1.0000
  H   H13       1.0  0.17476  0.35956  0.97453  1.0000
  H   H14       1.0  0.82526  0.64042  0.02547  1.0000
  C   C1        1.0  0.95396  0.22799  0.39463  1.0000
  C   C2        1.0  0.04601  0.77203  0.60536  1.0000
  C   C3        1.0  0.03364  0.51517  0.42540  1.0000
  C   C4        1.0  0.96637  0.48484  0.57458  1.0000
  C   C5        1.0  0.11954  0.43802  0.18089  1.0000
  C   C6        1.0  0.88047  0.56199  0.81910  1.0000
  C   C7        1.0  0.53014  0.65548  0.52794  1.0000
  C   C8        1.0  0.46986  0.34452  0.47208  1.0000
  C   C9        1.0  0.03597  0.39198  0.33563  1.0000
  C   C10       1.0  0.96404  0.60802  0.66436  1.0000
  C   C11       1.0  0.61604  0.80470  0.25944  1.0000
  C   C12       1.0  0.38395  0.19530  0.74057  1.0000
  C   C13       1.0  0.95027  0.12462  0.30031  1.0000
  C   C14       1.0  0.04973  0.87539  0.69968  1.0000
  C   C15       1.0  0.52083  0.48994  0.35829  1.0000
  C   C16       1.0  0.47918  0.51005  0.64172  1.0000
  C   C17       1.0  0.11270  0.32532  0.09444  1.0000
  C   C18       1.0  0.88731  0.67467  0.90555  1.0000
  C   C19       1.0  0.55094  0.64829  0.38427  1.0000
  C   C20       1.0  0.44906  0.35172  0.61574  1.0000
  N   N1        1.0  0.02661  0.17230  0.15191  1.0000
  N   N2        1.0  0.97338  0.82770  0.84808  1.0000
  O   O1        1.0  0.80646  0.82184  0.21505  1.0000
  O   O2        1.0  0.19354  0.17814  0.78495  1.0000
  O   O3        1.0  0.47956  0.90066  0.21233  1.0000
  O   O4        1.0  0.52043  0.09933  0.78768  1.0000
  O   O5        1.0  0.32279  0.83894  0.00918  1.0000
  O   O6        1.0  0.67720  0.16105  0.99083  1.0000
  F   F1        1.0  0.54365  0.47588  0.21909  1.0000
  F   F2        1.0  0.45636  0.52412  0.78092  1.0000
  F   F3        1.0  0.56119  0.80638  0.55771  1.0000
  F   F4        1.0  0.43884  0.19361  0.44230  1.0000
