data_image0
_chemical_formula_structural       Cd3H28C44N2O14
_chemical_formula_sum              "Cd3 H28 C44 N2 O14"
_cell_length_a       9.57583
_cell_length_b       10.0384
_cell_length_c       14.0565
_cell_angle_alpha    67.74
_cell_angle_beta     67.483
_cell_angle_gamma    63.3332

_space_group_name_H-M_alt    "P 1"
_space_group_IT_number       1

loop_
  _space_group_symop_operation_xyz
  'x, y, z'

loop_
  _atom_site_type_symbol
  _atom_site_label
  _atom_site_symmetry_multiplicity
  _atom_site_fract_x
  _atom_site_fract_y
  _atom_site_fract_z
  _atom_site_occupancy
  Cd  Cd1       1.0  1.00000  0.50000  0.50000  1.0000
  Cd  Cd2       1.0  0.84616  0.78075  0.65030  1.0000
  Cd  Cd3       1.0  0.15385  0.21924  0.34970  1.0000
  H   H1        1.0  0.99900  0.84578  0.41635  1.0000
  H   H2        1.0  0.00100  0.15422  0.58365  1.0000
  H   H3        1.0  0.82975  0.83733  0.42450  1.0000
  H   H4        1.0  0.17025  0.16267  0.57550  1.0000
  H   H5        1.0  0.44278  0.24731  0.60404  1.0000
  H   H6        1.0  0.55721  0.75269  0.39596  1.0000
  H   H7        1.0  0.34789  0.68787  0.64398  1.0000
  H   H8        1.0  0.65212  0.31213  0.35602  1.0000
  H   H9        1.0  0.80429  0.32185  0.66600  1.0000
  H   H10       1.0  0.19571  0.67814  0.33400  1.0000
  H   H11       1.0  0.55190  0.83954  0.80365  1.0000
  H   H12       1.0  0.44809  0.16048  0.19635  1.0000
  H   H13       1.0  0.29719  0.88800  0.94582  1.0000
  H   H14       1.0  0.70281  0.11201  0.05418  1.0000
  H   H15       1.0  0.30328  0.85314  0.13019  1.0000
  H   H16       1.0  0.69672  0.14686  0.86981  1.0000
  H   H17       1.0  0.56111  0.77644  0.16999  1.0000
  H   H18       1.0  0.43890  0.22356  0.83001  1.0000
  H   H19       1.0  0.08921  0.70019  0.77375  1.0000
  H   H20       1.0  0.91078  0.29982  0.22624  1.0000
  H   H21       1.0  0.26340  0.63278  0.88822  1.0000
  H   H22       1.0  0.73660  0.36723  0.11178  1.0000
  H   H23       1.0  0.29471  0.58543  0.06773  1.0000
  H   H24       1.0  0.70529  0.41458  0.93226  1.0000
  H   H25       1.0  0.05162  0.62686  0.22054  1.0000
  H   H26       1.0  0.94838  0.37314  0.77946  1.0000
  H   H27       1.0  0.77989  0.71444  0.19757  1.0000
  H   H28       1.0  0.22011  0.28556  0.80243  1.0000
  C   C1        1.0  0.21149  0.52954  0.60786  1.0000
  C   C2        1.0  0.78850  0.47046  0.39214  1.0000
  C   C3        1.0  0.37545  0.47179  0.62615  1.0000
  C   C4        1.0  0.62455  0.52821  0.37385  1.0000
  C   C5        1.0  0.48071  0.32211  0.62011  1.0000
  C   C6        1.0  0.51928  0.67789  0.37988  1.0000
  C   C7        1.0  0.64262  0.62298  0.66570  1.0000
  C   C8        1.0  0.35738  0.37701  0.33431  1.0000
  C   C9        1.0  0.58214  0.51543  0.65673  1.0000
  C   C10       1.0  0.41786  0.48456  0.34327  1.0000
  C   C11       1.0  0.42655  0.56889  0.64397  1.0000
  C   C12       1.0  0.57346  0.43110  0.35603  1.0000
  C   C13       1.0  0.68471  0.36402  0.65363  1.0000
  C   C14       1.0  0.31529  0.63597  0.34637  1.0000
  C   C15       1.0  0.63599  0.26753  0.63372  1.0000
  C   C16       1.0  0.36401  0.73246  0.36628  1.0000
  C   C17       1.0  0.74727  0.10673  0.62707  1.0000
  C   C18       1.0  0.25273  0.89327  0.37293  1.0000
  C   C19       1.0  0.70348  0.78134  0.90555  1.0000
  C   C20       1.0  0.29651  0.21867  0.09445  1.0000
  C   C21       1.0  0.55425  0.82628  0.88381  1.0000
  C   C22       1.0  0.44575  0.17373  0.11619  1.0000
  C   C23       1.0  0.41201  0.85231  0.96359  1.0000
  C   C24       1.0  0.58799  0.14770  0.03641  1.0000
  C   C25       1.0  0.41547  0.83292  0.06730  1.0000
  C   C26       1.0  0.58453  0.16708  0.93270  1.0000
  C   C27       1.0  0.56088  0.78956  0.08964  1.0000
  C   C28       1.0  0.43912  0.21044  0.91036  1.0000
  C   C29       1.0  0.70812  0.76380  0.00996  1.0000
  C   C30       1.0  0.29188  0.23620  0.99004  1.0000
  C   C31       1.0  0.86275  0.71993  0.02936  1.0000
  C   C32       1.0  0.13725  0.28007  0.97064  1.0000
  C   C33       1.0  0.00262  0.69687  0.94220  1.0000
  C   C34       1.0  0.99738  0.30314  0.05780  1.0000
  C   C35       1.0  0.98321  0.71767  0.84133  1.0000
  C   C36       1.0  0.01679  0.28234  0.15866  1.0000
  C   C37       1.0  0.15805  0.64982  0.95632  1.0000
  C   C38       1.0  0.84196  0.35018  0.04367  1.0000
  C   C39       1.0  0.17516  0.62432  0.05574  1.0000
  C   C40       1.0  0.82484  0.37569  0.94426  1.0000
  C   C41       1.0  0.03707  0.64891  0.14210  1.0000
  C   C42       1.0  0.96293  0.35110  0.85790  1.0000
  C   C43       1.0  0.88386  0.69683  0.12918  1.0000
  C   C44       1.0  0.11614  0.30317  0.87082  1.0000
  N   N1        1.0  0.84352  0.75584  0.82341  1.0000
  N   N2        1.0  0.15648  0.24416  0.17659  1.0000
  O   O1        1.0  0.17851  0.43493  0.58694  1.0000
  O   O2        1.0  0.82148  0.56507  0.41306  1.0000
  O   O3        1.0  0.11997  0.66620  0.61372  1.0000
  O   O4        1.0  0.88003  0.33381  0.38628  1.0000
  O   O5        1.0  0.79974  0.57449  0.65251  1.0000
  O   O6        1.0  0.20026  0.42551  0.34749  1.0000
  O   O7        1.0  0.54942  0.75128  0.68261  1.0000
  O   O8        1.0  0.45058  0.24870  0.31742  1.0000
  O   O9        1.0  0.68552  0.02378  0.61813  1.0000
  O   O10       1.0  0.31447  0.97621  0.38188  1.0000
  O   O11       1.0  0.89189  0.05798  0.63317  1.0000
  O   O12       1.0  0.10811  0.94202  0.36683  1.0000
  O   O13       1.0  0.92202  0.78421  0.45538  1.0000
  O   O14       1.0  0.07798  0.21578  0.54462  1.0000
