data_image0
_chemical_formula_structural       Cu2H24C16N12Cl4
_chemical_formula_sum              "Cu2 H24 C16 N12 Cl4"
_cell_length_a       7.50984
_cell_length_b       8.95965
_cell_length_c       9.39002
_cell_angle_alpha    90.0002
_cell_angle_beta     89.9999
_cell_angle_gamma    96.862

_space_group_name_H-M_alt    "P 1"
_space_group_IT_number       1

loop_
  _space_group_symop_operation_xyz
  'x, y, z'

loop_
  _atom_site_type_symbol
  _atom_site_label
  _atom_site_symmetry_multiplicity
  _atom_site_fract_x
  _atom_site_fract_y
  _atom_site_fract_z
  _atom_site_occupancy
  Cu  Cu1       1.0  0.00000  1.00000  0.50000  1.0000
  Cu  Cu2       1.0  0.00000  0.50000  1.00000  1.0000
  H   H1        1.0  0.39074  0.94887  0.36379  1.0000
  H   H2        1.0  0.60926  0.55113  0.86379  1.0000
  H   H3        1.0  0.60926  0.05113  0.63621  1.0000
  H   H4        1.0  0.39074  0.44887  0.13621  1.0000
  H   H5        1.0  0.86854  0.79715  0.22026  1.0000
  H   H6        1.0  0.13146  0.70285  0.72026  1.0000
  H   H7        1.0  0.13145  0.20285  0.77974  1.0000
  H   H8        1.0  0.86855  0.29714  0.27974  1.0000
  H   H9        1.0  0.43611  0.69142  0.05833  1.0000
  H   H10       1.0  0.56389  0.80858  0.55833  1.0000
  H   H11       1.0  0.56388  0.30858  0.94167  1.0000
  H   H12       1.0  0.43611  0.19142  0.44167  1.0000
  H   H13       1.0  0.56193  0.82134  0.17578  1.0000
  H   H14       1.0  0.43807  0.67866  0.67579  1.0000
  H   H15       1.0  0.43807  0.17866  0.82422  1.0000
  H   H16       1.0  0.56193  0.32134  0.32421  1.0000
  H   H17       1.0  0.37085  0.90152  0.90071  1.0000
  H   H18       1.0  0.62915  0.59848  0.40071  1.0000
  H   H19       1.0  0.62915  0.09848  0.09929  1.0000
  H   H20       1.0  0.37085  0.40152  0.59929  1.0000
  H   H21       1.0  0.60252  0.88798  0.91838  1.0000
  H   H22       1.0  0.39748  0.61202  0.41838  1.0000
  H   H23       1.0  0.39748  0.11202  0.08163  1.0000
  H   H24       1.0  0.60252  0.38798  0.58162  1.0000
  C   C1        1.0  0.27616  0.90047  0.30176  1.0000
  C   C2        1.0  0.72384  0.59953  0.80176  1.0000
  C   C3        1.0  0.72384  0.09953  0.69824  1.0000
  C   C4        1.0  0.27616  0.40047  0.19824  1.0000
  C   C5        1.0  0.01297  0.82160  0.22553  1.0000
  C   C6        1.0  0.98703  0.67840  0.72553  1.0000
  C   C7        1.0  0.98703  0.17840  0.77447  1.0000
  C   C8        1.0  0.01297  0.32160  0.27447  1.0000
  C   C9        1.0  0.45117  0.80683  0.09884  1.0000
  C   C10       1.0  0.54883  0.69317  0.59884  1.0000
  C   C11       1.0  0.54883  0.19317  0.90116  1.0000
  C   C12       1.0  0.45117  0.30683  0.40116  1.0000
  C   C13       1.0  0.48400  0.91810  0.97588  1.0000
  C   C14       1.0  0.51600  0.58190  0.47588  1.0000
  C   C15       1.0  0.51600  0.08190  0.02412  1.0000
  C   C16       1.0  0.48400  0.41810  0.52412  1.0000
  N   N1        1.0  0.10209  0.89990  0.33429  1.0000
  N   N2        1.0  0.89791  0.60010  0.83429  1.0000
  N   N3        1.0  0.89791  0.10011  0.66571  1.0000
  N   N4        1.0  0.10209  0.39990  0.16571  1.0000
  N   N5        1.0  0.28880  0.82634  0.17884  1.0000
  N   N6        1.0  0.71120  0.67365  0.67884  1.0000
  N   N7        1.0  0.71120  0.17366  0.82116  1.0000
  N   N8        1.0  0.28880  0.32634  0.32116  1.0000
  N   N9        1.0  0.12220  0.77495  0.12851  1.0000
  N   N10       1.0  0.87781  0.72505  0.62851  1.0000
  N   N11       1.0  0.87780  0.22505  0.87149  1.0000
  N   N12       1.0  0.12220  0.27495  0.37149  1.0000
  Cl  Cl1       1.0  0.73287  0.00827  0.37622  1.0000
  Cl  Cl2       1.0  0.26713  0.49173  0.87622  1.0000
  Cl  Cl3       1.0  0.26713  0.99173  0.62378  1.0000
  Cl  Cl4       1.0  0.73287  0.50827  0.12378  1.0000
