data_image0
_chemical_formula_structural       Cd2H42C66N6O12
_chemical_formula_sum              "Cd2 H42 C66 N6 O12"
_cell_length_a       10.0119
_cell_length_b       10.3791
_cell_length_c       14.0863
_cell_angle_alpha    99.5705
_cell_angle_beta     93.9325
_cell_angle_gamma    102.461

_space_group_name_H-M_alt    "P 1"
_space_group_IT_number       1

loop_
  _space_group_symop_operation_xyz
  'x, y, z'

loop_
  _atom_site_type_symbol
  _atom_site_label
  _atom_site_symmetry_multiplicity
  _atom_site_fract_x
  _atom_site_fract_y
  _atom_site_fract_z
  _atom_site_occupancy
  Cd  Cd1       1.0  0.07592  0.87307  0.92147  1.0000
  Cd  Cd2       1.0  0.92408  0.12693  0.07853  1.0000
  H   H1        1.0  0.34319  0.74507  0.86614  1.0000
  H   H2        1.0  0.65681  0.25492  0.13387  1.0000
  H   H3        1.0  0.39283  0.52440  0.79439  1.0000
  H   H4        1.0  0.60717  0.47559  0.20561  1.0000
  H   H5        1.0  0.20444  0.31472  0.77499  1.0000
  H   H6        1.0  0.79556  0.68528  0.22501  1.0000
  H   H7        1.0  0.96410  0.20776  0.79822  1.0000
  H   H8        1.0  0.03590  0.79223  0.20178  1.0000
  H   H9        1.0  0.73426  0.23256  0.84438  1.0000
  H   H10       1.0  0.26573  0.76743  0.15563  1.0000
  H   H11       1.0  0.58060  0.37976  0.90312  1.0000
  H   H12       1.0  0.41940  0.62024  0.09688  1.0000
  H   H13       1.0  0.55111  0.61343  0.96516  1.0000
  H   H14       1.0  0.44888  0.38657  0.03484  1.0000
  H   H15       1.0  0.75336  0.80655  0.98267  1.0000
  H   H16       1.0  0.24664  0.19345  0.01733  1.0000
  H   H17       1.0  0.39423  0.24252  0.79968  1.0000
  H   H18       1.0  0.60577  0.75749  0.20032  1.0000
  H   H19       1.0  0.51067  0.34289  0.67022  1.0000
  H   H20       1.0  0.48933  0.65711  0.32978  1.0000
  H   H21       1.0  0.31214  0.98499  0.46397  1.0000
  H   H22       1.0  0.68787  0.01501  0.53603  1.0000
  H   H23       1.0  0.18575  0.89468  0.58987  1.0000
  H   H24       1.0  0.81425  0.10532  0.41012  1.0000
  H   H25       1.0  0.69563  0.24069  0.61183  1.0000
  H   H26       1.0  0.30438  0.75931  0.38817  1.0000
  H   H27       1.0  0.90291  0.42666  0.65295  1.0000
  H   H28       1.0  0.09709  0.57334  0.34705  1.0000
  H   H29       1.0  0.76159  0.61522  0.42848  1.0000
  H   H30       1.0  0.23841  0.38478  0.57153  1.0000
  H   H31       1.0  0.54840  0.43170  0.38957  1.0000
  H   H32       1.0  0.45160  0.56830  0.61043  1.0000
  H   H33       1.0  0.60736  0.16943  0.32327  1.0000
  H   H34       1.0  0.39264  0.83057  0.67673  1.0000
  H   H35       1.0  0.48954  0.06082  0.15817  1.0000
  H   H36       1.0  0.51046  0.93918  0.84182  1.0000
  H   H37       1.0  0.09805  0.08467  0.25963  1.0000
  H   H38       1.0  0.90195  0.91534  0.74037  1.0000
  H   H39       1.0  0.21254  0.18309  0.42427  1.0000
  H   H40       1.0  0.78747  0.81691  0.57573  1.0000
  H   H41       1.0  0.08817  0.74821  0.68622  1.0000
  H   H42       1.0  0.91183  0.25179  0.31378  1.0000
  C   C1        1.0  0.26374  0.65204  0.85529  1.0000
  C   C2        1.0  0.73625  0.34796  0.14471  1.0000
  C   C3        1.0  0.29099  0.52797  0.81584  1.0000
  C   C4        1.0  0.70900  0.47201  0.18416  1.0000
  C   C5        1.0  0.18741  0.41281  0.80503  1.0000
  C   C6        1.0  0.81258  0.58719  0.19497  1.0000
  C   C7        1.0  0.05659  0.42190  0.83288  1.0000
  C   C8        1.0  0.94341  0.57810  0.16712  1.0000
  C   C9        1.0  0.94519  0.30651  0.82430  1.0000
  C   C10       1.0  0.05480  0.69349  0.17571  1.0000
  C   C11       1.0  0.81893  0.32010  0.84941  1.0000
  C   C12       1.0  0.18107  0.67990  0.15059  1.0000
  C   C13       1.0  0.79504  0.44972  0.88479  1.0000
  C   C14       1.0  0.20495  0.55027  0.11521  1.0000
  C   C15       1.0  0.66555  0.46781  0.91054  1.0000
  C   C16       1.0  0.33445  0.53219  0.08947  1.0000
  C   C17       1.0  0.64932  0.59555  0.94454  1.0000
  C   C18       1.0  0.35068  0.40444  0.05546  1.0000
  C   C19       1.0  0.76234  0.70560  0.95271  1.0000
  C   C20       1.0  0.23766  0.29440  0.04729  1.0000
  C   C21       1.0  0.03751  0.55213  0.86946  1.0000
  C   C22       1.0  0.96248  0.44787  0.13054  1.0000
  C   C23       1.0  0.90339  0.56677  0.89489  1.0000
  C   C24       1.0  0.09660  0.43322  0.10511  1.0000
  C   C25       1.0  0.21116  0.00957  0.78380  1.0000
  C   C26       1.0  0.78884  0.99043  0.21620  1.0000
  C   C27       1.0  0.28191  0.06312  0.70443  1.0000
  C   C28       1.0  0.71809  0.93688  0.29556  1.0000
  C   C29       1.0  0.37566  0.18839  0.72502  1.0000
  C   C30       1.0  0.62434  0.81161  0.27498  1.0000
  C   C31       1.0  0.44153  0.24370  0.65274  1.0000
  C   C32       1.0  0.55847  0.75630  0.34726  1.0000
  C   C33       1.0  0.41915  0.17156  0.55677  1.0000
  C   C34       1.0  0.58085  0.82845  0.44323  1.0000
  C   C35       1.0  0.32957  0.04328  0.53715  1.0000
  C   C36       1.0  0.67043  0.95673  0.46286  1.0000
  C   C37       1.0  0.25969  0.99135  0.60904  1.0000
  C   C38       1.0  0.74032  0.00865  0.39095  1.0000
  C   C39       1.0  0.60607  0.32565  0.49965  1.0000
  C   C40       1.0  0.39393  0.67435  0.50035  1.0000
  C   C41       1.0  0.70873  0.32350  0.57234  1.0000
  C   C42       1.0  0.29128  0.67650  0.42766  1.0000
  C   C43       1.0  0.82505  0.42783  0.59551  1.0000
  C   C44       1.0  0.17495  0.57218  0.40449  1.0000
  C   C45       1.0  0.84404  0.53482  0.54487  1.0000
  C   C46       1.0  0.15596  0.46519  0.45513  1.0000
  C   C47       1.0  0.74570  0.53256  0.46824  1.0000
  C   C48       1.0  0.25430  0.46744  0.53176  1.0000
  C   C49       1.0  0.62743  0.43017  0.44627  1.0000
  C   C50       1.0  0.37258  0.56983  0.55373  1.0000
  C   C51       1.0  0.95947  0.65452  0.57459  1.0000
  C   C52       1.0  0.04052  0.34549  0.42541  1.0000
  C   C53       1.0  0.41744  0.18060  0.38480  1.0000
  C   C54       1.0  0.58256  0.81940  0.61520  1.0000
  C   C55       1.0  0.49605  0.15095  0.30880  1.0000
  C   C56       1.0  0.50395  0.84905  0.69120  1.0000
  C   C57       1.0  0.43073  0.09153  0.21682  1.0000
  C   C58       1.0  0.56927  0.90847  0.78318  1.0000
  C   C59       1.0  0.28687  0.06478  0.19838  1.0000
  C   C60       1.0  0.71313  0.93523  0.80162  1.0000
  C   C61       1.0  0.20960  0.10220  0.27338  1.0000
  C   C62       1.0  0.79041  0.89781  0.72662  1.0000
  C   C63       1.0  0.27411  0.15911  0.36589  1.0000
  C   C64       1.0  0.72590  0.84089  0.63411  1.0000
  C   C65       1.0  0.21833  0.99339  0.10126  1.0000
  C   C66       1.0  0.78167  0.00661  0.89874  1.0000
  N   N1        1.0  0.14085  0.66333  0.88084  1.0000
  N   N2        1.0  0.85914  0.33667  0.11916  1.0000
  N   N3        1.0  0.88487  0.69161  0.92751  1.0000
  N   N4        1.0  0.11513  0.30838  0.07249  1.0000
  N   N5        1.0  0.48179  0.22633  0.48125  1.0000
  N   N6        1.0  0.51822  0.77367  0.51875  1.0000
  O   O1        1.0  0.22312  0.08202  0.86650  1.0000
  O   O2        1.0  0.77688  0.91798  0.13350  1.0000
  O   O3        1.0  0.13790  0.88672  0.76595  1.0000
  O   O4        1.0  0.86210  0.11328  0.23405  1.0000
  O   O5        1.0  0.98192  0.74817  0.52979  1.0000
  O   O6        1.0  0.01808  0.25183  0.47021  1.0000
  O   O7        1.0  0.03288  0.65420  0.65813  1.0000
  O   O8        1.0  0.96712  0.34580  0.34187  1.0000
  O   O9        1.0  0.08881  0.98898  0.08093  1.0000
  O   O10       1.0  0.91119  0.01102  0.91907  1.0000
  O   O11       1.0  0.28463  0.93582  0.04099  1.0000
  O   O12       1.0  0.71536  0.06418  0.95900  1.0000
