data_image0
_chemical_formula_structural       Cd2P2H48C34N18O18
_chemical_formula_sum              "Cd2 P2 H48 C34 N18 O18"
_cell_length_a       8.34225
_cell_length_b       14.1004
_cell_length_c       14.8353
_cell_angle_alpha    62.3549
_cell_angle_beta     79.3119
_cell_angle_gamma    78.6988

_space_group_name_H-M_alt    "P 1"
_space_group_IT_number       1

loop_
  _space_group_symop_operation_xyz
  'x, y, z'

loop_
  _atom_site_type_symbol
  _atom_site_label
  _atom_site_symmetry_multiplicity
  _atom_site_fract_x
  _atom_site_fract_y
  _atom_site_fract_z
  _atom_site_occupancy
  Cd  Cd1       1.0  0.24773  0.52996  0.76444  1.0000
  Cd  Cd2       1.0  0.75227  0.47004  0.23556  1.0000
  P   P1        1.0  0.18717  0.02627  0.26091  1.0000
  P   P2        1.0  0.81283  0.97373  0.73909  1.0000
  H   H1        1.0  0.71894  0.10205  0.29464  1.0000
  H   H2        1.0  0.28106  0.89795  0.70535  1.0000
  H   H3        1.0  0.61884  0.98377  0.36667  1.0000
  H   H4        1.0  0.38116  0.01623  0.63333  1.0000
  H   H5        1.0  0.54745  0.08588  0.24932  1.0000
  H   H6        1.0  0.45256  0.91412  0.75068  1.0000
  H   H7        1.0  0.75726  0.95115  0.11380  1.0000
  H   H8        1.0  0.24275  0.04884  0.88620  1.0000
  H   H9        1.0  0.56616  0.96157  0.18957  1.0000
  H   H10       1.0  0.43384  0.03843  0.81043  1.0000
  H   H11       1.0  0.71813  0.84748  0.23942  1.0000
  H   H12       1.0  0.28188  0.15252  0.76058  1.0000
  H   H13       1.0  0.49890  0.92477  0.07346  1.0000
  H   H14       1.0  0.50111  0.07523  0.92654  1.0000
  H   H15       1.0  0.48373  0.82605  0.03329  1.0000
  H   H16       1.0  0.51627  0.17395  0.96670  1.0000
  H   H17       1.0  0.49142  0.78785  0.16548  1.0000
  H   H18       1.0  0.50857  0.21215  0.83451  1.0000
  H   H19       1.0  0.19450  0.73166  0.11599  1.0000
  H   H20       1.0  0.80550  0.26834  0.88401  1.0000
  H   H21       1.0  0.22874  0.83542  0.98942  1.0000
  H   H22       1.0  0.77125  0.16459  0.01058  1.0000
  H   H23       1.0  0.04860  0.85100  0.07125  1.0000
  H   H24       1.0  0.95140  0.14901  0.92874  1.0000
  H   H25       1.0  0.11905  0.95399  0.55640  1.0000
  H   H26       1.0  0.88095  0.04602  0.44360  1.0000
  H   H27       1.0  0.10161  0.77314  0.70400  1.0000
  H   H28       1.0  0.89839  0.22686  0.29601  1.0000
  H   H29       1.0  0.32211  0.61796  0.52393  1.0000
  H   H30       1.0  0.67790  0.38204  0.47608  1.0000
  H   H31       1.0  0.34595  0.79178  0.36841  1.0000
  H   H32       1.0  0.65405  0.20821  0.63160  1.0000
  H   H33       1.0  0.08660  0.31253  0.89482  1.0000
  H   H34       1.0  0.91341  0.68747  0.10517  1.0000
  H   H35       1.0  0.06950  0.16306  0.07108  1.0000
  H   H36       1.0  0.93049  0.83694  0.92892  1.0000
  H   H37       1.0  0.44589  0.29197  0.13305  1.0000
  H   H38       1.0  0.55410  0.70803  0.86695  1.0000
  H   H39       1.0  0.44649  0.43564  0.95354  1.0000
  H   H40       1.0  0.55351  0.56436  0.04646  1.0000
  H   H41       1.0  0.87770  0.51129  0.89553  1.0000
  H   H42       1.0  0.12230  0.48871  0.10447  1.0000
  H   H43       1.0  0.72906  0.47983  0.84318  1.0000
  H   H44       1.0  0.27094  0.52018  0.15682  1.0000
  H   H45       1.0  0.79545  0.61129  0.78024  1.0000
  H   H46       1.0  0.20455  0.38871  0.21976  1.0000
  H   H47       1.0  0.93080  0.48894  0.71021  1.0000
  H   H48       1.0  0.06920  0.51106  0.28979  1.0000
  C   C1        1.0  0.93351  0.98736  0.22477  1.0000
  C   C2        1.0  0.06649  0.01264  0.77523  1.0000
  C   C3        1.0  0.18660  0.92506  0.16017  1.0000
  C   C4        1.0  0.81340  0.07494  0.83983  1.0000
  C   C5        1.0  0.65750  0.04386  0.28873  1.0000
  C   C6        1.0  0.34251  0.95614  0.71127  1.0000
  C   C7        1.0  0.69854  0.93536  0.19108  1.0000
  C   C8        1.0  0.30146  0.06464  0.80892  1.0000
  C   C9        1.0  0.44492  0.85169  0.09414  1.0000
  C   C10       1.0  0.55508  0.14831  0.90586  1.0000
  C   C11       1.0  0.17912  0.81970  0.06819  1.0000
  C   C12       1.0  0.82088  0.18030  0.93181  1.0000
  C   C13       1.0  0.23414  0.88633  0.45098  1.0000
  C   C14       1.0  0.76586  0.11367  0.54903  1.0000
  C   C15       1.0  0.16402  0.88160  0.54572  1.0000
  C   C16       1.0  0.83598  0.11840  0.45429  1.0000
  C   C17       1.0  0.15534  0.78062  0.62851  1.0000
  C   C18       1.0  0.84467  0.21938  0.37149  1.0000
  C   C19       1.0  0.27764  0.69395  0.52828  1.0000
  C   C20       1.0  0.72237  0.30605  0.47172  1.0000
  C   C21       1.0  0.29106  0.79146  0.44098  1.0000
  C   C22       1.0  0.70895  0.20854  0.55903  1.0000
  C   C23       1.0  0.16557  0.30381  0.94973  1.0000
  C   C24       1.0  0.83442  0.69619  0.05027  1.0000
  C   C25       1.0  0.15717  0.22005  0.04825  1.0000
  C   C26       1.0  0.84282  0.77995  0.95175  1.0000
  C   C27       1.0  0.25627  0.21683  0.11603  1.0000
  C   C28       1.0  0.74372  0.78317  0.88397  1.0000
  C   C29       1.0  0.36435  0.29346  0.08279  1.0000
  C   C30       1.0  0.63565  0.70654  0.91721  1.0000
  C   C31       1.0  0.36494  0.37361  0.98282  1.0000
  C   C32       1.0  0.63506  0.62639  0.01719  1.0000
  C   C33       1.0  0.83356  0.52463  0.82506  1.0000
  C   C34       1.0  0.16644  0.47537  0.17494  1.0000
  N   N1        1.0  0.28374  0.96204  0.19893  1.0000
  N   N2        1.0  0.71626  0.03797  0.80107  1.0000
  N   N3        1.0  0.99241  0.03380  0.27319  1.0000
  N   N4        1.0  0.00759  0.96619  0.72682  1.0000
  N   N5        1.0  0.02121  0.93586  0.17097  1.0000
  N   N6        1.0  0.97878  0.06414  0.82902  1.0000
  N   N7        1.0  0.26640  0.87264  0.10462  1.0000
  N   N8        1.0  0.73360  0.12736  0.89538  1.0000
  N   N9        1.0  0.76800  0.99378  0.23066  1.0000
  N   N10       1.0  0.23200  0.00622  0.76934  1.0000
  N   N11       1.0  0.21222  0.68814  0.62057  1.0000
  N   N12       1.0  0.78778  0.31186  0.37944  1.0000
  N   N13       1.0  0.26571  0.38009  0.91744  1.0000
  N   N14       1.0  0.73429  0.61991  0.08256  1.0000
  N   N15       1.0  0.51800  0.42595  0.67983  1.0000
  N   N16       1.0  0.48199  0.57405  0.32017  1.0000
  N   N17       1.0  0.23553  0.64891  0.88314  1.0000
  N   N18       1.0  0.76447  0.35109  0.11686  1.0000
  O   O1        1.0  0.25189  0.98719  0.37055  1.0000
  O   O2        1.0  0.74812  0.01281  0.62945  1.0000
  O   O3        1.0  0.25289  0.14250  0.21741  1.0000
  O   O4        1.0  0.74711  0.85751  0.78259  1.0000
  O   O5        1.0  0.10305  0.62367  0.87234  1.0000
  O   O6        1.0  0.89696  0.37633  0.12766  1.0000
  O   O7        1.0  0.37053  0.62645  0.83449  1.0000
  O   O8        1.0  0.62947  0.37355  0.16551  1.0000
  O   O9        1.0  0.23443  0.69347  0.93864  1.0000
  O   O10       1.0  0.76556  0.30653  0.06136  1.0000
  O   O11       1.0  0.36755  0.42301  0.67228  1.0000
  O   O12       1.0  0.63245  0.57700  0.32771  1.0000
  O   O13       1.0  0.54403  0.48639  0.71754  1.0000
  O   O14       1.0  0.45596  0.51361  0.28246  1.0000
  O   O15       1.0  0.63357  0.37138  0.65213  1.0000
  O   O16       1.0  0.36641  0.62861  0.34787  1.0000
  O   O17       1.0  0.96991  0.48563  0.76963  1.0000
  O   O18       1.0  0.03010  0.51438  0.23037  1.0000
