data_image0
_chemical_formula_structural       Zn4H24C48S8N8O16
_chemical_formula_sum              "Zn4 H24 C48 S8 N8 O16"
_cell_length_a       11.0907
_cell_length_b       12.8229
_cell_length_c       12.8229
_cell_angle_alpha    62.4641
_cell_angle_beta     84.6077
_cell_angle_gamma    84.6078

_space_group_name_H-M_alt    "P 1"
_space_group_IT_number       1

loop_
  _space_group_symop_operation_xyz
  'x, y, z'

loop_
  _atom_site_type_symbol
  _atom_site_label
  _atom_site_symmetry_multiplicity
  _atom_site_fract_x
  _atom_site_fract_y
  _atom_site_fract_z
  _atom_site_occupancy
  Zn  Zn1       1.0  0.13275  0.97557  0.50112  1.0000
  Zn  Zn2       1.0  0.36724  0.49888  0.02444  1.0000
  Zn  Zn3       1.0  0.86725  0.02443  0.49888  1.0000
  Zn  Zn4       1.0  0.63275  0.50113  0.97556  1.0000
  H   H1        1.0  0.24786  0.30676  0.20227  1.0000
  H   H2        1.0  0.25213  0.79774  0.69324  1.0000
  H   H3        1.0  0.75214  0.69324  0.79773  1.0000
  H   H4        1.0  0.74787  0.20227  0.30676  1.0000
  H   H5        1.0  0.87284  0.39876  0.25872  1.0000
  H   H6        1.0  0.62715  0.74128  0.60124  1.0000
  H   H7        1.0  0.12716  0.60124  0.74128  1.0000
  H   H8        1.0  0.37285  0.25872  0.39876  1.0000
  H   H9        1.0  0.90559  0.60275  0.09811  1.0000
  H   H10       1.0  0.59441  0.90188  0.39725  1.0000
  H   H11       1.0  0.09442  0.39725  0.90189  1.0000
  H   H12       1.0  0.40559  0.09811  0.60275  1.0000
  H   H13       1.0  0.80408  0.97108  0.18253  1.0000
  H   H14       1.0  0.69592  0.81747  0.02891  1.0000
  H   H15       1.0  0.19591  0.02892  0.81747  1.0000
  H   H16       1.0  0.30408  0.18253  0.97108  1.0000
  H   H17       1.0  0.16135  0.81114  0.28066  1.0000
  H   H18       1.0  0.33864  0.71934  0.18886  1.0000
  H   H19       1.0  0.83863  0.18886  0.71935  1.0000
  H   H20       1.0  0.66136  0.28065  0.81114  1.0000
  H   H21       1.0  0.16838  0.75377  0.11605  1.0000
  H   H22       1.0  0.33162  0.88395  0.24624  1.0000
  H   H23       1.0  0.83162  0.24624  0.88396  1.0000
  H   H24       1.0  0.66838  0.11604  0.75376  1.0000
  C   C1        1.0  0.04393  0.21441  0.33982  1.0000
  C   C2        1.0  0.45607  0.66017  0.78559  1.0000
  C   C3        1.0  0.95607  0.78559  0.66018  1.0000
  C   C4        1.0  0.54395  0.33983  0.21441  1.0000
  C   C5        1.0  0.05915  0.33762  0.24467  1.0000
  C   C6        1.0  0.44085  0.75533  0.66238  1.0000
  C   C7        1.0  0.94086  0.66238  0.75533  1.0000
  C   C8        1.0  0.55915  0.24467  0.33762  1.0000
  C   C9        1.0  0.17001  0.36982  0.18183  1.0000
  C   C10       1.0  0.32999  0.81817  0.63018  1.0000
  C   C11       1.0  0.83000  0.63018  0.81817  1.0000
  C   C12       1.0  0.67001  0.18183  0.36982  1.0000
  C   C13       1.0  0.96187  0.42244  0.21357  1.0000
  C   C14       1.0  0.53813  0.78643  0.57756  1.0000
  C   C15       1.0  0.03813  0.57756  0.78643  1.0000
  C   C16       1.0  0.46187  0.21357  0.42244  1.0000
  C   C17       1.0  0.97967  0.53531  0.12446  1.0000
  C   C18       1.0  0.52033  0.87554  0.46470  1.0000
  C   C19       1.0  0.02033  0.46469  0.87554  1.0000
  C   C20       1.0  0.47968  0.12446  0.53531  1.0000
  C   C21       1.0  0.09435  0.56108  0.06572  1.0000
  C   C22       1.0  0.40564  0.93428  0.43892  1.0000
  C   C23       1.0  0.90565  0.43892  0.93428  1.0000
  C   C24       1.0  0.59436  0.06572  0.56108  1.0000
  C   C25       1.0  0.98884  0.83478  0.06631  1.0000
  C   C26       1.0  0.51116  0.93370  0.16522  1.0000
  C   C27       1.0  0.01116  0.16522  0.93370  1.0000
  C   C28       1.0  0.48884  0.06630  0.83478  1.0000
  C   C29       1.0  0.88650  0.92312  0.17079  1.0000
  C   C30       1.0  0.61350  0.82922  0.07687  1.0000
  C   C31       1.0  0.11349  0.07688  0.82922  1.0000
  C   C32       1.0  0.38650  0.17078  0.92313  1.0000
  C   C33       1.0  0.98316  0.89602  0.24380  1.0000
  C   C34       1.0  0.51684  0.75620  0.10398  1.0000
  C   C35       1.0  0.01684  0.10398  0.75620  1.0000
  C   C36       1.0  0.48316  0.24379  0.89602  1.0000
  C   C37       1.0  0.08568  0.83335  0.22446  1.0000
  C   C38       1.0  0.41432  0.77554  0.16665  1.0000
  C   C39       1.0  0.91431  0.16665  0.77554  1.0000
  C   C40       1.0  0.58568  0.22445  0.83335  1.0000
  C   C41       1.0  0.98183  0.93682  0.33605  1.0000
  C   C42       1.0  0.51817  0.66395  0.06317  1.0000
  C   C43       1.0  0.01816  0.06318  0.66395  1.0000
  C   C44       1.0  0.48185  0.33605  0.93682  1.0000
  C   C45       1.0  0.08966  0.80103  0.13476  1.0000
  C   C46       1.0  0.41034  0.86524  0.19897  1.0000
  C   C47       1.0  0.91034  0.19897  0.86524  1.0000
  C   C48       1.0  0.58966  0.13476  0.80103  1.0000
  S   S1        1.0  0.97603  0.80374  0.94558  1.0000
  S   S2        1.0  0.52397  0.05442  0.19626  1.0000
  S   S3        1.0  0.02397  0.19626  0.05442  1.0000
  S   S4        1.0  0.47603  0.94558  0.80374  1.0000
  S   S5        1.0  0.12861  0.70161  0.94906  1.0000
  S   S6        1.0  0.37139  0.05094  0.29839  1.0000
  S   S7        1.0  0.87139  0.29839  0.05094  1.0000
  S   S8        1.0  0.62861  0.94906  0.70161  1.0000
  N   N1        1.0  0.88947  0.89361  0.08304  1.0000
  N   N2        1.0  0.61053  0.91697  0.10639  1.0000
  N   N3        1.0  0.11053  0.10639  0.91696  1.0000
  N   N4        1.0  0.38947  0.08304  0.89361  1.0000
  N   N5        1.0  0.18820  0.47908  0.09392  1.0000
  N   N6        1.0  0.31180  0.90608  0.52092  1.0000
  N   N7        1.0  0.81181  0.52092  0.90608  1.0000
  N   N8        1.0  0.68820  0.09392  0.47908  1.0000
  O   O1        1.0  0.88056  0.97341  0.36671  1.0000
  O   O2        1.0  0.61943  0.63329  0.02658  1.0000
  O   O3        1.0  0.11942  0.02659  0.63329  1.0000
  O   O4        1.0  0.38057  0.36671  0.97341  1.0000
  O   O5        1.0  0.08448  0.93238  0.37559  1.0000
  O   O6        1.0  0.41551  0.62441  0.06761  1.0000
  O   O7        1.0  0.91550  0.06762  0.62441  1.0000
  O   O8        1.0  0.58449  0.37558  0.93239  1.0000
  O   O9        1.0  0.93563  0.18514  0.37375  1.0000
  O   O10       1.0  0.56437  0.62625  0.81487  1.0000
  O   O11       1.0  0.06438  0.81486  0.62625  1.0000
  O   O12       1.0  0.43563  0.37375  0.18513  1.0000
  O   O13       1.0  0.14023  0.14982  0.37807  1.0000
  O   O14       1.0  0.35976  0.62192  0.85019  1.0000
  O   O15       1.0  0.85977  0.85018  0.62193  1.0000
  O   O16       1.0  0.64024  0.37809  0.14982  1.0000
