data_image0
_chemical_formula_structural       Zn2P2H40C32N14Cl4O4
_chemical_formula_sum              "Zn2 P2 H40 C32 N14 Cl4 O4"
_cell_length_a       9.22624
_cell_length_b       11.9745
_cell_length_c       12.0642
_cell_angle_alpha    67.4272
_cell_angle_beta     69.5053
_cell_angle_gamma    90.0958

_space_group_name_H-M_alt    "P 1"
_space_group_IT_number       1

loop_
  _space_group_symop_operation_xyz
  'x, y, z'

loop_
  _atom_site_type_symbol
  _atom_site_label
  _atom_site_symmetry_multiplicity
  _atom_site_fract_x
  _atom_site_fract_y
  _atom_site_fract_z
  _atom_site_occupancy
  Zn  Zn1       1.0  0.72240  0.28922  0.80205  1.0000
  Zn  Zn2       1.0  0.27760  0.71078  0.19795  1.0000
  P   P1        1.0  0.18007  0.81477  0.76435  1.0000
  P   P2        1.0  0.81993  0.18523  0.23565  1.0000
  H   H1        1.0  0.54132  0.67750  0.84938  1.0000
  H   H2        1.0  0.45868  0.32251  0.15062  1.0000
  H   H3        1.0  0.69841  0.62207  0.76026  1.0000
  H   H4        1.0  0.30159  0.37793  0.23974  1.0000
  H   H5        1.0  0.50280  0.54859  0.81770  1.0000
  H   H6        1.0  0.49720  0.45141  0.18230  1.0000
  H   H7        1.0  0.66507  0.68396  0.48727  1.0000
  H   H8        1.0  0.33492  0.31604  0.51273  1.0000
  H   H9        1.0  0.80098  0.70618  0.55482  1.0000
  H   H10       1.0  0.19902  0.29382  0.44518  1.0000
  H   H11       1.0  0.72788  0.83420  0.46659  1.0000
  H   H12       1.0  0.27212  0.16580  0.53341  1.0000
  H   H13       1.0  0.56777  0.98065  0.30607  1.0000
  H   H14       1.0  0.43223  0.01936  0.69393  1.0000
  H   H15       1.0  0.46239  0.04357  0.20343  1.0000
  H   H16       1.0  0.53760  0.95644  0.79657  1.0000
  H   H17       1.0  0.45127  0.88034  0.28185  1.0000
  H   H18       1.0  0.54873  0.11967  0.71814  1.0000
  H   H19       1.0  0.11900  0.96260  0.36450  1.0000
  H   H20       1.0  0.88100  0.03739  0.63551  1.0000
  H   H21       1.0  0.24102  0.10804  0.28807  1.0000
  H   H22       1.0  0.75897  0.89196  0.71193  1.0000
  H   H23       1.0  0.12591  0.04480  0.45839  1.0000
  H   H24       1.0  0.87409  0.95520  0.54161  1.0000
  H   H25       1.0  0.83807  0.84746  0.95261  1.0000
  H   H26       1.0  0.16193  0.15254  0.04740  1.0000
  H   H27       1.0  0.67234  0.01128  0.94136  1.0000
  H   H28       1.0  0.32767  0.98872  0.05864  1.0000
  H   H29       1.0  0.24518  0.12998  0.75436  1.0000
  H   H30       1.0  0.75482  0.87002  0.24564  1.0000
  H   H31       1.0  0.06189  0.28421  0.74747  1.0000
  H   H32       1.0  0.93811  0.71579  0.25253  1.0000
  H   H33       1.0  0.69973  0.36318  0.01487  1.0000
  H   H34       1.0  0.30028  0.63682  0.98513  1.0000
  H   H35       1.0  0.80480  0.53978  0.04038  1.0000
  H   H36       1.0  0.19521  0.46022  0.95962  1.0000
  H   H37       1.0  0.10864  0.68079  0.63285  1.0000
  H   H38       1.0  0.89136  0.31921  0.36715  1.0000
  H   H39       1.0  0.98547  0.50394  0.62229  1.0000
  H   H40       1.0  0.01454  0.49606  0.37771  1.0000
  C   C1        1.0  0.44180  0.77311  0.65220  1.0000
  C   C2        1.0  0.55820  0.22689  0.34780  1.0000
  C   C3        1.0  0.31774  0.90014  0.52429  1.0000
  C   C4        1.0  0.68226  0.09986  0.47571  1.0000
  C   C5        1.0  0.57747  0.63772  0.77759  1.0000
  C   C6        1.0  0.42253  0.36228  0.22241  1.0000
  C   C7        1.0  0.69812  0.73733  0.53390  1.0000
  C   C8        1.0  0.30188  0.26266  0.46610  1.0000
  C   C9        1.0  0.45939  0.96756  0.29187  1.0000
  C   C10       1.0  0.54060  0.03244  0.70813  1.0000
  C   C11       1.0  0.19577  0.02348  0.37714  1.0000
  C   C12       1.0  0.80423  0.97652  0.62286  1.0000
  C   C13       1.0  0.05482  0.97776  0.85071  1.0000
  C   C14       1.0  0.94518  0.02224  0.14930  1.0000
  C   C15       1.0  0.89264  0.94289  0.90651  1.0000
  C   C16       1.0  0.10736  0.05711  0.09350  1.0000
  C   C17       1.0  0.79969  0.03465  0.89988  1.0000
  C   C18       1.0  0.20031  0.96535  0.10011  1.0000
  C   C19       1.0  0.11897  0.10130  0.79570  1.0000
  C   C20       1.0  0.88104  0.89870  0.20430  1.0000
  C   C21       1.0  0.01713  0.18647  0.79250  1.0000
  C   C22       1.0  0.98287  0.81353  0.20749  1.0000
  C   C23       1.0  0.78828  0.43642  0.93226  1.0000
  C   C24       1.0  0.21172  0.56358  0.06774  1.0000
  C   C25       1.0  0.84775  0.53395  0.94680  1.0000
  C   C26       1.0  0.15226  0.46605  0.05320  1.0000
  C   C27       1.0  0.96397  0.62426  0.83882  1.0000
  C   C28       1.0  0.03604  0.37574  0.16118  1.0000
  C   C29       1.0  0.01846  0.61353  0.72017  1.0000
  C   C30       1.0  0.98154  0.38647  0.27983  1.0000
  C   C31       1.0  0.95013  0.51358  0.71409  1.0000
  C   C32       1.0  0.04988  0.48642  0.28591  1.0000
  N   N1        1.0  0.32403  0.74447  0.77106  1.0000
  N   N2        1.0  0.67597  0.25553  0.22894  1.0000
  N   N3        1.0  0.44219  0.84424  0.53456  1.0000
  N   N4        1.0  0.55781  0.15576  0.46544  1.0000
  N   N5        1.0  0.18363  0.89608  0.62385  1.0000
  N   N6        1.0  0.81637  0.10392  0.37616  1.0000
  N   N7        1.0  0.32651  0.96694  0.40200  1.0000
  N   N8        1.0  0.67349  0.03306  0.59800  1.0000
  N   N9        1.0  0.57175  0.72139  0.65483  1.0000
  N   N10       1.0  0.42825  0.27861  0.34517  1.0000
  N   N11       1.0  0.86025  0.15437  0.84196  1.0000
  N   N12       1.0  0.13975  0.84563  0.15804  1.0000
  N   N13       1.0  0.83702  0.42678  0.81752  1.0000
  N   N14       1.0  0.16299  0.57322  0.18248  1.0000
  Cl  Cl1       1.0  0.76096  0.35316  0.59333  1.0000
  Cl  Cl2       1.0  0.23904  0.64685  0.40666  1.0000
  Cl  Cl3       1.0  0.48307  0.22932  0.95793  1.0000
  Cl  Cl4       1.0  0.51693  0.77068  0.04206  1.0000
  O   O1        1.0  0.15623  0.89279  0.85198  1.0000
  O   O2        1.0  0.84377  0.10720  0.14802  1.0000
  O   O3        1.0  0.01541  0.72035  0.85791  1.0000
  O   O4        1.0  0.98459  0.27965  0.14209  1.0000
