data_image0
_chemical_formula_structural       Zn2H24C36S4N6O8
_chemical_formula_sum              "Zn2 H24 C36 S4 N6 O8"
_cell_length_a       8.10212
_cell_length_b       10.4722
_cell_length_c       12.0532
_cell_angle_alpha    70.1713
_cell_angle_beta     76.3937
_cell_angle_gamma    81.558

_space_group_name_H-M_alt    "P 1"
_space_group_IT_number       1

loop_
  _space_group_symop_operation_xyz
  'x, y, z'

loop_
  _atom_site_type_symbol
  _atom_site_label
  _atom_site_symmetry_multiplicity
  _atom_site_fract_x
  _atom_site_fract_y
  _atom_site_fract_z
  _atom_site_occupancy
  Zn  Zn1       1.0  0.38875  0.45574  0.44284  1.0000
  Zn  Zn2       1.0  0.61125  0.54425  0.55716  1.0000
  H   H1        1.0  0.04913  0.24807  0.51415  1.0000
  H   H2        1.0  0.95089  0.75194  0.48584  1.0000
  H   H3        1.0  0.27848  0.08856  0.44561  1.0000
  H   H4        1.0  0.72153  0.91144  0.55438  1.0000
  H   H5        1.0  0.75971  0.19573  0.27702  1.0000
  H   H6        1.0  0.24030  0.80430  0.72296  1.0000
  H   H7        1.0  0.42380  0.29677  0.89393  1.0000
  H   H8        1.0  0.57619  0.70323  0.10607  1.0000
  H   H9        1.0  0.18762  0.06870  0.74401  1.0000
  H   H10       1.0  0.81235  0.93130  0.25600  1.0000
  H   H11       1.0  0.13532  0.89346  0.94600  1.0000
  H   H12       1.0  0.86466  0.10654  0.05401  1.0000
  H   H13       1.0  0.46842  0.34105  0.24133  1.0000
  H   H14       1.0  0.53159  0.65895  0.75866  1.0000
  H   H15       1.0  0.36243  0.37943  0.05272  1.0000
  H   H16       1.0  0.63758  0.62056  0.94727  1.0000
  H   H17       1.0  0.94407  0.63369  0.18154  1.0000
  H   H18       1.0  0.05594  0.36630  0.81846  1.0000
  H   H19       1.0  0.06329  0.58055  0.36595  1.0000
  H   H20       1.0  0.93672  0.41944  0.63405  1.0000
  H   H21       1.0  0.03090  0.65173  0.95664  1.0000
  H   H22       1.0  0.96909  0.34827  0.04337  1.0000
  H   H23       1.0  0.17525  0.52322  0.91523  1.0000
  H   H24       1.0  0.82475  0.47678  0.08476  1.0000
  C   C1        1.0  0.74294  0.32867  0.43799  1.0000
  C   C2        1.0  0.25706  0.67133  0.56200  1.0000
  C   C3        1.0  0.88549  0.23474  0.40019  1.0000
  C   C4        1.0  0.11453  0.76528  0.59980  1.0000
  C   C5        1.0  0.03451  0.20400  0.44743  1.0000
  C   C6        1.0  0.96550  0.79602  0.55256  1.0000
  C   C7        1.0  0.16225  0.11570  0.40927  1.0000
  C   C8        1.0  0.83776  0.88431  0.59072  1.0000
  C   C9        1.0  0.13740  0.06172  0.32280  1.0000
  C   C10       1.0  0.86261  0.93829  0.67719  1.0000
  C   C11       1.0  0.87444  0.17468  0.31505  1.0000
  C   C12       1.0  0.12557  0.82533  0.68493  1.0000
  C   C13       1.0  0.25082  0.00678  0.02676  1.0000
  C   C14       1.0  0.74916  0.99321  0.97325  1.0000
  C   C15       1.0  0.35776  0.20841  0.90455  1.0000
  C   C16       1.0  0.64222  0.79159  0.09546  1.0000
  C   C17       1.0  0.31314  0.19607  0.80343  1.0000
  C   C18       1.0  0.68683  0.80394  0.19659  1.0000
  C   C19       1.0  0.22912  0.08151  0.81902  1.0000
  C   C20       1.0  0.77085  0.91850  0.18100  1.0000
  C   C21       1.0  0.19927  0.98395  0.93186  1.0000
  C   C22       1.0  0.80071  0.01605  0.06815  1.0000
  C   C23       1.0  0.36024  0.30187  0.68404  1.0000
  C   C24       1.0  0.63974  0.69812  0.31598  1.0000
  C   C25       1.0  0.35222  0.40469  0.22367  1.0000
  C   C26       1.0  0.64779  0.59531  0.77633  1.0000
  C   C27       1.0  0.29315  0.42785  0.11881  1.0000
  C   C28       1.0  0.70686  0.57214  0.88119  1.0000
  C   C29       1.0  0.14519  0.51319  0.09981  1.0000
  C   C30       1.0  0.85481  0.48681  0.90018  1.0000
  C   C31       1.0  0.06007  0.56713  0.19109  1.0000
  C   C32       1.0  0.93993  0.43286  0.80890  1.0000
  C   C33       1.0  0.12561  0.53865  0.29407  1.0000
  C   C34       1.0  0.87441  0.46134  0.70593  1.0000
  C   C35       1.0  0.07552  0.54345  0.98799  1.0000
  C   C36       1.0  0.92447  0.45655  0.01201  1.0000
  S   S1        1.0  0.30480  0.94902  0.27766  1.0000
  S   S2        1.0  0.69520  0.05097  0.72234  1.0000
  S   S3        1.0  0.21227  0.87891  0.16964  1.0000
  S   S4        1.0  0.78772  0.12108  0.83037  1.0000
  N   N1        1.0  0.27085  0.46008  0.30947  1.0000
  N   N2        1.0  0.72916  0.53992  0.69053  1.0000
  N   N3        1.0  0.99786  0.09120  0.27535  1.0000
  N   N4        1.0  0.00215  0.90881  0.72463  1.0000
  N   N5        1.0  0.32487  0.11774  0.01468  1.0000
  N   N6        1.0  0.67512  0.88225  0.98533  1.0000
  O   O1        1.0  0.60070  0.32786  0.41032  1.0000
  O   O2        1.0  0.39931  0.67213  0.58969  1.0000
  O   O3        1.0  0.77555  0.40267  0.49388  1.0000
  O   O4        1.0  0.22445  0.59733  0.50612  1.0000
  O   O5        1.0  0.46420  0.38474  0.67845  1.0000
  O   O6        1.0  0.53582  0.61525  0.32158  1.0000
  O   O7        1.0  0.29475  0.30263  0.59718  1.0000
  O   O8        1.0  0.70525  0.69738  0.40284  1.0000
