data_image0
_chemical_formula_structural       Zn2H40C50S4N8O8
_chemical_formula_sum              "Zn2 H40 C50 S4 N8 O8"
_cell_length_a       7.87037
_cell_length_b       11.5404
_cell_length_c       15.1054
_cell_angle_alpha    71.8623
_cell_angle_beta     83.4943
_cell_angle_gamma    74.7202

_space_group_name_H-M_alt    "P 1"
_space_group_IT_number       1

loop_
  _space_group_symop_operation_xyz
  'x, y, z'

loop_
  _atom_site_type_symbol
  _atom_site_label
  _atom_site_symmetry_multiplicity
  _atom_site_fract_x
  _atom_site_fract_y
  _atom_site_fract_z
  _atom_site_occupancy
  Zn  Zn1       1.0  0.18436  0.38586  0.68627  1.0000
  Zn  Zn2       1.0  0.81565  0.61414  0.31373  1.0000
  H   H1        1.0  0.15343  0.64820  0.54340  1.0000
  H   H2        1.0  0.84655  0.35180  0.45659  1.0000
  H   H3        1.0  0.99686  0.86758  0.54277  1.0000
  H   H4        1.0  0.00312  0.13242  0.45722  1.0000
  H   H5        1.0  0.71325  0.70584  0.79347  1.0000
  H   H6        1.0  0.28676  0.29416  0.20654  1.0000
  H   H7        1.0  0.88847  0.49628  0.78612  1.0000
  H   H8        1.0  0.11153  0.50372  0.21388  1.0000
  H   H9        1.0  0.85257  0.99461  0.65312  1.0000
  H   H10       1.0  0.14743  0.00539  0.34688  1.0000
  H   H11       1.0  0.65081  0.97905  0.62397  1.0000
  H   H12       1.0  0.34918  0.02095  0.37603  1.0000
  H   H13       1.0  0.77877  0.89113  0.82400  1.0000
  H   H14       1.0  0.22123  0.10887  0.17600  1.0000
  H   H15       1.0  0.57160  0.88936  0.79137  1.0000
  H   H16       1.0  0.42840  0.11064  0.20864  1.0000
  H   H17       1.0  0.49326  0.12380  0.72901  1.0000
  H   H18       1.0  0.50674  0.87621  0.27099  1.0000
  H   H19       1.0  0.53833  0.06780  0.84949  1.0000
  H   H20       1.0  0.46167  0.93220  0.15051  1.0000
  H   H21       1.0  0.62946  0.28173  0.63349  1.0000
  H   H22       1.0  0.37055  0.71827  0.36651  1.0000
  H   H23       1.0  0.86318  0.39743  0.60719  1.0000
  H   H24       1.0  0.13682  0.60258  0.39281  1.0000
  H   H25       1.0  0.10731  0.16257  0.85127  1.0000
  H   H26       1.0  0.89270  0.83743  0.14873  1.0000
  H   H27       1.0  0.88365  0.03437  0.88579  1.0000
  H   H28       1.0  0.11636  0.96563  0.11421  1.0000
  H   H29       1.0  0.46742  0.48748  0.35464  1.0000
  H   H30       1.0  0.53259  0.51252  0.64535  1.0000
  H   H31       1.0  0.64340  0.39205  0.23497  1.0000
  H   H32       1.0  0.35661  0.60794  0.76503  1.0000
  H   H33       1.0  0.44832  0.11430  0.52594  1.0000
  H   H34       1.0  0.55168  0.88570  0.47406  1.0000
  H   H35       1.0  0.87053  0.35022  0.94133  1.0000
  H   H36       1.0  0.12947  0.64978  0.05867  1.0000
  H   H37       1.0  0.64118  0.39698  0.82240  1.0000
  H   H38       1.0  0.35882  0.60302  0.17760  1.0000
  H   H39       1.0  0.27465  0.29371  0.04807  1.0000
  H   H40       1.0  0.72534  0.70630  0.95193  1.0000
  C   C1        1.0  0.05478  0.66696  0.59702  1.0000
  C   C2        1.0  0.94521  0.33304  0.40297  1.0000
  C   C3        1.0  0.96652  0.78781  0.59785  1.0000
  C   C4        1.0  0.03347  0.21219  0.40215  1.0000
  C   C5        1.0  0.84381  0.80688  0.67000  1.0000
  C   C6        1.0  0.15619  0.19312  0.33001  1.0000
  C   C7        1.0  0.81119  0.69917  0.73710  1.0000
  C   C8        1.0  0.18881  0.30083  0.26291  1.0000
  C   C9        1.0  0.90540  0.58125  0.73249  1.0000
  C   C10       1.0  0.09461  0.41875  0.26752  1.0000
  C   C11       1.0  0.75520  0.93698  0.67546  1.0000
  C   C12       1.0  0.24480  0.06303  0.32454  1.0000
  C   C13       1.0  0.67625  0.94045  0.77200  1.0000
  C   C14       1.0  0.32375  0.05955  0.22800  1.0000
  C   C15       1.0  0.59836  0.07404  0.77911  1.0000
  C   C16       1.0  0.40164  0.92597  0.22089  1.0000
  C   C17       1.0  0.73601  0.14779  0.76202  1.0000
  C   C18       1.0  0.26400  0.85222  0.23798  1.0000
  C   C19       1.0  0.73446  0.25083  0.68283  1.0000
  C   C20       1.0  0.26555  0.74917  0.31717  1.0000
  C   C21       1.0  0.86543  0.31570  0.66809  1.0000
  C   C22       1.0  0.13458  0.68429  0.33191  1.0000
  C   C23       1.0  0.00068  0.18389  0.80421  1.0000
  C   C24       1.0  0.99933  0.81611  0.19579  1.0000
  C   C25       1.0  0.87432  0.11437  0.82307  1.0000
  C   C26       1.0  0.12568  0.88563  0.17693  1.0000
  C   C27       1.0  0.34601  0.36336  0.52341  1.0000
  C   C28       1.0  0.65398  0.63664  0.47659  1.0000
  C   C29       1.0  0.44743  0.30807  0.45049  1.0000
  C   C30       1.0  0.55256  0.69193  0.54951  1.0000
  C   C31       1.0  0.50114  0.38617  0.36671  1.0000
  C   C32       1.0  0.49886  0.61383  0.63329  1.0000
  C   C33       1.0  0.59901  0.33368  0.30031  1.0000
  C   C34       1.0  0.40100  0.66632  0.69970  1.0000
  C   C35       1.0  0.64269  0.20279  0.32166  1.0000
  C   C36       1.0  0.35732  0.79721  0.67834  1.0000
  C   C37       1.0  0.49340  0.17822  0.46323  1.0000
  C   C38       1.0  0.50660  0.82177  0.53677  1.0000
  C   C39       1.0  0.68836  0.29274  0.05639  1.0000
  C   C40       1.0  0.31164  0.70727  0.94361  1.0000
  C   C41       1.0  0.73655  0.33976  0.96213  1.0000
  C   C42       1.0  0.26345  0.66024  0.03787  1.0000
  C   C43       1.0  0.61017  0.36548  0.89684  1.0000
  C   C44       1.0  0.38983  0.63453  0.10316  1.0000
  C   C45       1.0  0.44177  0.34625  0.92667  1.0000
  C   C46       1.0  0.55823  0.65374  0.07333  1.0000
  C   C47       1.0  0.40634  0.30602  0.02270  1.0000
  C   C48       1.0  0.59366  0.69397  0.97730  1.0000
  C   C49       1.0  0.30428  0.36031  0.86031  1.0000
  C   C50       1.0  0.69571  0.63969  0.13969  1.0000
  S   S1        1.0  0.77641  0.11707  0.24874  1.0000
  S   S2        1.0  0.22359  0.88292  0.75126  1.0000
  S   S3        1.0  0.85729  0.24749  0.13902  1.0000
  S   S4        1.0  0.14271  0.75250  0.86099  1.0000
  N   N1        1.0  0.99626  0.28356  0.72796  1.0000
  N   N2        1.0  0.00374  0.71644  0.27204  1.0000
  N   N3        1.0  0.02721  0.56425  0.66449  1.0000
  N   N4        1.0  0.97279  0.43575  0.33551  1.0000
  N   N5        1.0  0.52674  0.27896  0.08678  1.0000
  N   N6        1.0  0.47325  0.72104  0.91322  1.0000
  N   N7        1.0  0.59100  0.12570  0.40050  1.0000
  N   N8        1.0  0.40901  0.87430  0.59950  1.0000
  O   O1        1.0  0.36043  0.37454  0.77414  1.0000
  O   O2        1.0  0.63957  0.62545  0.22587  1.0000
  O   O3        1.0  0.15086  0.35450  0.89000  1.0000
  O   O4        1.0  0.84913  0.64551  0.11000  1.0000
  O   O5        1.0  0.31997  0.28514  0.60351  1.0000
  O   O6        1.0  0.68004  0.71485  0.39649  1.0000
  O   O7        1.0  0.29282  0.48034  0.50634  1.0000
  O   O8        1.0  0.70714  0.51965  0.49365  1.0000
