data_image0
_chemical_formula_structural       Ag4H40C24N24O8
_chemical_formula_sum              "Ag4 H40 C24 N24 O8"
_cell_length_a       11.1508
_cell_length_b       11.365
_cell_length_c       11.6887
_cell_angle_alpha    92.8991
_cell_angle_beta     116.399
_cell_angle_gamma    118.468

_space_group_name_H-M_alt    "P 1"
_space_group_IT_number       1

loop_
  _space_group_symop_operation_xyz
  'x, y, z'

loop_
  _atom_site_type_symbol
  _atom_site_label
  _atom_site_symmetry_multiplicity
  _atom_site_fract_x
  _atom_site_fract_y
  _atom_site_fract_z
  _atom_site_occupancy
  Ag  Ag1       1.0  0.05404  0.37952  0.19281  1.0000
  Ag  Ag2       1.0  0.94596  0.62048  0.80718  1.0000
  Ag  Ag3       1.0  0.75405  0.51284  0.50671  1.0000
  Ag  Ag4       1.0  0.24595  0.48716  0.49329  1.0000
  H   H1        1.0  0.27488  0.00250  0.72891  1.0000
  H   H2        1.0  0.72511  0.99749  0.27109  1.0000
  H   H3        1.0  0.14649  0.05130  0.62852  1.0000
  H   H4        1.0  0.85351  0.94870  0.37148  1.0000
  H   H5        1.0  0.22818  0.86614  0.51876  1.0000
  H   H6        1.0  0.77182  0.13386  0.48124  1.0000
  H   H7        1.0  0.08924  0.90561  0.41707  1.0000
  H   H8        1.0  0.91076  0.09439  0.58294  1.0000
  H   H9        1.0  0.31432  0.16875  0.53214  1.0000
  H   H10       1.0  0.68568  0.83125  0.46787  1.0000
  H   H11       1.0  0.32634  0.06687  0.42475  1.0000
  H   H12       1.0  0.67365  0.93313  0.57525  1.0000
  H   H13       1.0  0.52744  0.05162  0.62796  1.0000
  H   H14       1.0  0.47255  0.94838  0.37203  1.0000
  H   H15       1.0  0.52299  0.15968  0.73682  1.0000
  H   H16       1.0  0.47701  0.84032  0.26318  1.0000
  H   H17       1.0  0.99294  0.61694  0.42975  1.0000
  H   H18       1.0  0.00707  0.38306  0.57026  1.0000
  H   H19       1.0  0.06497  0.59527  0.32715  1.0000
  H   H20       1.0  0.93504  0.40474  0.67286  1.0000
  H   H21       1.0  0.40526  0.07701  0.22710  1.0000
  H   H22       1.0  0.59474  0.92299  0.77289  1.0000
  H   H23       1.0  0.52498  0.22834  0.37080  1.0000
  H   H24       1.0  0.47502  0.77166  0.62920  1.0000
  H   H25       1.0  0.58562  0.02604  0.95494  1.0000
  H   H26       1.0  0.41438  0.97396  0.04505  1.0000
  H   H27       1.0  0.77898  0.17088  0.99599  1.0000
  H   H28       1.0  0.22103  0.82913  0.00400  1.0000
  H   H29       1.0  0.43111  0.33956  0.43726  1.0000
  H   H30       1.0  0.56889  0.66043  0.56274  1.0000
  H   H31       1.0  0.22384  0.27348  0.33314  1.0000
  H   H32       1.0  0.77615  0.72652  0.66686  1.0000
  H   H33       1.0  0.71784  0.70600  0.18920  1.0000
  H   H34       1.0  0.28216  0.29399  0.81080  1.0000
  H   H35       1.0  0.79709  0.67363  0.34319  1.0000
  H   H36       1.0  0.20291  0.32637  0.65681  1.0000
  H   H37       1.0  0.18408  0.53301  0.92446  1.0000
  H   H38       1.0  0.81593  0.46699  0.07555  1.0000
  H   H39       1.0  0.04479  0.40728  0.95574  1.0000
  H   H40       1.0  0.95521  0.59272  0.04426  1.0000
  C   C1        1.0  0.85563  0.41837  0.29119  1.0000
  C   C2        1.0  0.14438  0.58164  0.70881  1.0000
  C   C3        1.0  0.70445  0.20798  0.11412  1.0000
  C   C4        1.0  0.29555  0.79203  0.88588  1.0000
  C   C5        1.0  0.61448  0.23385  0.24872  1.0000
  C   C6        1.0  0.38552  0.76616  0.75127  1.0000
  C   C7        1.0  0.28334  0.48201  0.09121  1.0000
  C   C8        1.0  0.71665  0.51799  0.90879  1.0000
  C   C9        1.0  0.37398  0.41765  0.28074  1.0000
  C   C10       1.0  0.62602  0.58235  0.71926  1.0000
  C   C11       1.0  0.54921  0.56982  0.22539  1.0000
  C   C12       1.0  0.45079  0.43018  0.77461  1.0000
  C   C13       1.0  0.02673  0.83520  0.61861  1.0000
  C   C14       1.0  0.97327  0.16480  0.38138  1.0000
  C   C15       1.0  0.16864  0.96674  0.62760  1.0000
  C   C16       1.0  0.83136  0.03326  0.37240  1.0000
  C   C17       1.0  0.20064  0.94739  0.51614  1.0000
  C   C18       1.0  0.79935  0.05261  0.48386  1.0000
  C   C19       1.0  0.33553  0.08459  0.52259  1.0000
  C   C20       1.0  0.66447  0.91541  0.47742  1.0000
  C   C21       1.0  0.50604  0.13602  0.63613  1.0000
  C   C22       1.0  0.49396  0.86398  0.36386  1.0000
  C   C23       1.0  0.64273  0.26808  0.63935  1.0000
  C   C24       1.0  0.35728  0.73192  0.36065  1.0000
  N   N1        1.0  0.84439  0.33898  0.18993  1.0000
  N   N2        1.0  0.15561  0.66102  0.81007  1.0000
  N   N3        1.0  0.58587  0.15241  0.13934  1.0000
  N   N4        1.0  0.41413  0.84760  0.86065  1.0000
  N   N5        1.0  0.74464  0.36706  0.32549  1.0000
  N   N6        1.0  0.25536  0.63294  0.67451  1.0000
  N   N7        1.0  0.98257  0.55258  0.35626  1.0000
  N   N8        1.0  0.01743  0.44742  0.64374  1.0000
  N   N9        1.0  0.50298  0.17727  0.28218  1.0000
  N   N10       1.0  0.49703  0.82273  0.71782  1.0000
  N   N11       1.0  0.68421  0.13144  0.00845  1.0000
  N   N12       1.0  0.31580  0.86858  0.99155  1.0000
  N   N13       1.0  0.24865  0.41291  0.17515  1.0000
  N   N14       1.0  0.75135  0.58708  0.82485  1.0000
  N   N15       1.0  0.43116  0.56209  0.11226  1.0000
  N   N16       1.0  0.56885  0.43791  0.88775  1.0000
  N   N17       1.0  0.52680  0.49736  0.31057  1.0000
  N   N18       1.0  0.47320  0.50264  0.68943  1.0000
  N   N19       1.0  0.34106  0.34006  0.35769  1.0000
  N   N20       1.0  0.65893  0.65993  0.64231  1.0000
  N   N21       1.0  0.70098  0.65527  0.25462  1.0000
  N   N22       1.0  0.29902  0.34473  0.74538  1.0000
  N   N23       1.0  0.16010  0.46832  0.97903  1.0000
  N   N24       1.0  0.83990  0.53168  0.02097  1.0000
  O   O1        1.0  0.96164  0.71662  0.52963  1.0000
  O   O2        1.0  0.03835  0.28337  0.47037  1.0000
  O   O3        1.0  0.98168  0.84772  0.69712  1.0000
  O   O4        1.0  0.01831  0.15227  0.30288  1.0000
  O   O5        1.0  0.60000  0.32441  0.54866  1.0000
  O   O6        1.0  0.40000  0.67559  0.45133  1.0000
  O   O7        1.0  0.78688  0.31410  0.72730  1.0000
  O   O8        1.0  0.21313  0.68590  0.27270  1.0000
