data_image0
_chemical_formula_structural       Zn2H30C26N6O14
_chemical_formula_sum              "Zn2 H30 C26 N6 O14"
_cell_length_a       8.63902
_cell_length_b       9.73493
_cell_length_c       9.89813
_cell_angle_alpha    82.3535
_cell_angle_beta     69.1538
_cell_angle_gamma    79.4611

_space_group_name_H-M_alt    "P 1"
_space_group_IT_number       1

loop_
  _space_group_symop_operation_xyz
  'x, y, z'

loop_
  _atom_site_type_symbol
  _atom_site_label
  _atom_site_symmetry_multiplicity
  _atom_site_fract_x
  _atom_site_fract_y
  _atom_site_fract_z
  _atom_site_occupancy
  Zn  Zn1       1.0  0.52513  0.61848  0.62620  1.0000
  Zn  Zn2       1.0  0.47486  0.38152  0.37381  1.0000
  H   H1        1.0  0.29029  0.09507  0.73261  1.0000
  H   H2        1.0  0.70971  0.90493  0.26739  1.0000
  H   H3        1.0  0.25506  0.00810  0.18107  1.0000
  H   H4        1.0  0.74494  0.99191  0.81893  1.0000
  H   H5        1.0  0.40458  0.39619  0.95059  1.0000
  H   H6        1.0  0.59543  0.60381  0.04941  1.0000
  H   H7        1.0  0.01901  0.71003  0.96995  1.0000
  H   H8        1.0  0.98099  0.28997  0.03005  1.0000
  H   H9        1.0  0.23108  0.64163  0.93555  1.0000
  H   H10       1.0  0.76892  0.35837  0.06445  1.0000
  H   H11       1.0  0.95385  0.61708  0.23388  1.0000
  H   H12       1.0  0.04615  0.38292  0.76612  1.0000
  H   H13       1.0  0.16631  0.53894  0.19335  1.0000
  H   H14       1.0  0.83369  0.46106  0.80666  1.0000
  H   H15       1.0  0.03663  0.48229  0.11270  1.0000
  H   H16       1.0  0.96337  0.51771  0.88730  1.0000
  H   H17       1.0  0.86452  0.45155  0.39979  1.0000
  H   H18       1.0  0.13548  0.54845  0.60021  1.0000
  H   H19       1.0  0.38698  0.87357  0.45292  1.0000
  H   H20       1.0  0.61302  0.12643  0.54708  1.0000
  H   H21       1.0  0.07944  0.01670  0.66840  1.0000
  H   H22       1.0  0.92056  0.98330  0.33160  1.0000
  H   H23       1.0  0.18557  0.06182  0.48277  1.0000
  H   H24       1.0  0.81443  0.93818  0.51723  1.0000
  H   H25       1.0  0.25378  0.86813  0.85075  1.0000
  H   H26       1.0  0.74622  0.13187  0.14925  1.0000
  H   H27       1.0  0.94666  0.26120  0.63511  1.0000
  H   H28       1.0  0.05334  0.73880  0.36489  1.0000
  H   H29       1.0  0.07057  0.27948  0.44826  1.0000
  H   H30       1.0  0.92943  0.72052  0.55174  1.0000
  C   C1        1.0  0.37196  0.35453  0.69627  1.0000
  C   C2        1.0  0.62804  0.64547  0.30373  1.0000
  C   C3        1.0  0.34734  0.25546  0.82906  1.0000
  C   C4        1.0  0.65266  0.74454  0.17094  1.0000
  C   C5        1.0  0.30231  0.12427  0.83040  1.0000
  C   C6        1.0  0.69770  0.87573  0.16960  1.0000
  C   C7        1.0  0.26687  0.03430  0.95712  1.0000
  C   C8        1.0  0.73313  0.96570  0.04288  1.0000
  C   C9        1.0  0.28091  0.07620  0.08195  1.0000
  C   C10       1.0  0.71909  0.92380  0.91805  1.0000
  C   C11       1.0  0.33284  0.20506  0.07811  1.0000
  C   C12       1.0  0.66716  0.79494  0.92189  1.0000
  C   C13       1.0  0.36564  0.29560  0.95241  1.0000
  C   C14       1.0  0.63436  0.70440  0.04759  1.0000
  C   C15       1.0  0.14017  0.81824  0.06499  1.0000
  C   C16       1.0  0.85983  0.18176  0.93501  1.0000
  C   C17       1.0  0.11625  0.68248  0.02109  1.0000
  C   C18       1.0  0.88375  0.31752  0.97891  1.0000
  C   C19       1.0  0.06575  0.57370  0.14769  1.0000
  C   C20       1.0  0.93425  0.42631  0.85231  1.0000
  C   C21       1.0  0.35161  0.24536  0.21178  1.0000
  C   C22       1.0  0.64839  0.75464  0.78822  1.0000
  C   C23       1.0  0.84260  0.40555  0.51163  1.0000
  C   C24       1.0  0.15740  0.59446  0.48837  1.0000
  C   C25       1.0  0.29339  0.88471  0.56224  1.0000
  C   C26       1.0  0.70661  0.11529  0.43776  1.0000
  N   N1        1.0  0.22211  0.90378  0.95210  1.0000
  N   N2        1.0  0.77789  0.09622  0.04790  1.0000
  N   N3        1.0  0.96185  0.30761  0.53208  1.0000
  N   N4        1.0  0.03815  0.69239  0.46792  1.0000
  N   N5        1.0  0.17227  0.99236  0.57239  1.0000
  N   N6        1.0  0.82773  0.00764  0.42761  1.0000
  O   O1        1.0  0.35819  0.48422  0.71108  1.0000
  O   O2        1.0  0.64181  0.51577  0.28892  1.0000
  O   O3        1.0  0.39956  0.30042  0.57741  1.0000
  O   O4        1.0  0.60044  0.69958  0.42259  1.0000
  O   O5        1.0  0.08539  0.85035  0.19375  1.0000
  O   O6        1.0  0.91460  0.14965  0.80625  1.0000
  O   O7        1.0  0.45248  0.33364  0.19250  1.0000
  O   O8        1.0  0.54752  0.66636  0.80750  1.0000
  O   O9        1.0  0.26949  0.19277  0.33503  1.0000
  O   O10       1.0  0.73051  0.80723  0.66498  1.0000
  O   O11       1.0  0.71021  0.44391  0.61324  1.0000
  O   O12       1.0  0.28979  0.55610  0.38676  1.0000
  O   O13       1.0  0.30743  0.79879  0.66586  1.0000
  O   O14       1.0  0.69257  0.20121  0.33414  1.0000
