data_image0
_chemical_formula_structural       Cd4H32C32N24Cl4O16
_chemical_formula_sum              "Cd4 H32 C32 N24 Cl4 O16"
_cell_length_a       7.65589
_cell_length_b       12.2911
_cell_length_c       15.3828
_cell_angle_alpha    104.043
_cell_angle_beta     90.0018
_cell_angle_gamma    90.0006

_space_group_name_H-M_alt    "P 1"
_space_group_IT_number       1

loop_
  _space_group_symop_operation_xyz
  'x, y, z'

loop_
  _atom_site_type_symbol
  _atom_site_label
  _atom_site_symmetry_multiplicity
  _atom_site_fract_x
  _atom_site_fract_y
  _atom_site_fract_z
  _atom_site_occupancy
  Cd  Cd1       1.0  0.85413  0.00301  0.74221  1.0000
  Cd  Cd2       1.0  0.35413  0.99698  0.75778  1.0000
  Cd  Cd3       1.0  0.14585  0.99699  0.25779  1.0000
  Cd  Cd4       1.0  0.64586  0.00301  0.24220  1.0000
  H   H1        1.0  0.88710  0.69906  0.69686  1.0000
  H   H2        1.0  0.38711  0.30093  0.80314  1.0000
  H   H3        1.0  0.11290  0.30095  0.30317  1.0000
  H   H4        1.0  0.61288  0.69905  0.19682  1.0000
  H   H5        1.0  0.33775  0.69564  0.72866  1.0000
  H   H6        1.0  0.83776  0.30434  0.77134  1.0000
  H   H7        1.0  0.66224  0.30434  0.27133  1.0000
  H   H8        1.0  0.16221  0.69566  0.22866  1.0000
  H   H9        1.0  0.74270  0.50648  0.66517  1.0000
  H   H10       1.0  0.24274  0.49350  0.83482  1.0000
  H   H11       1.0  0.25731  0.49352  0.33485  1.0000
  H   H12       1.0  0.75728  0.50648  0.16516  1.0000
  H   H13       1.0  0.51506  0.50465  0.64154  1.0000
  H   H14       1.0  0.01512  0.49535  0.85849  1.0000
  H   H15       1.0  0.48495  0.49534  0.35849  1.0000
  H   H16       1.0  0.98490  0.50467  0.14150  1.0000
  H   H17       1.0  0.79411  0.89379  0.93004  1.0000
  H   H18       1.0  0.29409  0.10620  0.56996  1.0000
  H   H19       1.0  0.20590  0.10619  0.06996  1.0000
  H   H20       1.0  0.70590  0.89379  0.43003  1.0000
  H   H21       1.0  0.33699  0.83163  0.93255  1.0000
  H   H22       1.0  0.83699  0.16837  0.56746  1.0000
  H   H23       1.0  0.66301  0.16838  0.06745  1.0000
  H   H24       1.0  0.16301  0.83163  0.43255  1.0000
  H   H25       1.0  0.96262  0.81201  0.07192  1.0000
  H   H26       1.0  0.46261  0.18800  0.42808  1.0000
  H   H27       1.0  0.03737  0.18800  0.92809  1.0000
  H   H28       1.0  0.53737  0.81202  0.57192  1.0000
  H   H29       1.0  0.14681  0.73037  0.02645  1.0000
  H   H30       1.0  0.64683  0.26964  0.47355  1.0000
  H   H31       1.0  0.85319  0.26964  0.97356  1.0000
  H   H32       1.0  0.35320  0.73036  0.52644  1.0000
  C   C1        1.0  0.75273  0.72838  0.70796  1.0000
  C   C2        1.0  0.25274  0.27161  0.79205  1.0000
  C   C3        1.0  0.24727  0.27162  0.29205  1.0000
  C   C4        1.0  0.74724  0.72838  0.20794  1.0000
  C   C5        1.0  0.47031  0.72688  0.72574  1.0000
  C   C6        1.0  0.97032  0.27311  0.77425  1.0000
  C   C7        1.0  0.52968  0.27311  0.27425  1.0000
  C   C8        1.0  0.02966  0.72689  0.22574  1.0000
  C   C9        1.0  0.61492  0.53826  0.69208  1.0000
  C   C10       1.0  0.11494  0.46174  0.80792  1.0000
  C   C11       1.0  0.38508  0.46174  0.30794  1.0000
  C   C12       1.0  0.88506  0.53826  0.19206  1.0000
  C   C13       1.0  0.57074  0.49892  0.77588  1.0000
  C   C14       1.0  0.07071  0.50107  0.72414  1.0000
  C   C15       1.0  0.42928  0.50108  0.22415  1.0000
  C   C16       1.0  0.92930  0.49893  0.27585  1.0000
  C   C17       1.0  0.93275  0.89541  0.91626  1.0000
  C   C18       1.0  0.43273  0.10459  0.58373  1.0000
  C   C19       1.0  0.06726  0.10458  0.08373  1.0000
  C   C20       1.0  0.56726  0.89541  0.41626  1.0000
  C   C21       1.0  0.21175  0.86350  0.91695  1.0000
  C   C22       1.0  0.71174  0.13651  0.58307  1.0000
  C   C23       1.0  0.78826  0.13651  0.08305  1.0000
  C   C24       1.0  0.28826  0.86349  0.41694  1.0000
  C   C25       1.0  0.02271  0.76468  0.00950  1.0000
  C   C26       1.0  0.52272  0.23533  0.49050  1.0000
  C   C27       1.0  0.97729  0.23533  0.99051  1.0000
  C   C28       1.0  0.47731  0.76467  0.50950  1.0000
  C   C29       1.0  0.89978  0.66915  0.96292  1.0000
  C   C30       1.0  0.39978  0.33087  0.53708  1.0000
  C   C31       1.0  0.10024  0.33086  0.03709  1.0000
  C   C32       1.0  0.60027  0.66915  0.46293  1.0000
  N   N1        1.0  0.69768  0.83345  0.72443  1.0000
  N   N2        1.0  0.19770  0.16654  0.77556  1.0000
  N   N3        1.0  0.30231  0.16655  0.27557  1.0000
  N   N4        1.0  0.80230  0.83345  0.22442  1.0000
  N   N5        1.0  0.51893  0.83236  0.73594  1.0000
  N   N6        1.0  0.01895  0.16764  0.76406  1.0000
  N   N7        1.0  0.48106  0.16764  0.26405  1.0000
  N   N8        1.0  0.98105  0.83236  0.23593  1.0000
  N   N9        1.0  0.61351  0.65972  0.70800  1.0000
  N   N10       1.0  0.11353  0.34027  0.79201  1.0000
  N   N11       1.0  0.38649  0.34028  0.29202  1.0000
  N   N12       1.0  0.88647  0.65972  0.20798  1.0000
  N   N13       1.0  0.00688  0.95066  0.86255  1.0000
  N   N14       1.0  0.50686  0.04933  0.63744  1.0000
  N   N15       1.0  0.99311  0.04933  0.13745  1.0000
  N   N16       1.0  0.49312  0.95066  0.36254  1.0000
  N   N17       1.0  0.18353  0.93040  0.86279  1.0000
  N   N18       1.0  0.68352  0.06960  0.63721  1.0000
  N   N19       1.0  0.81647  0.06961  0.13721  1.0000
  N   N20       1.0  0.31647  0.93040  0.36278  1.0000
  N   N21       1.0  0.05721  0.84059  0.95238  1.0000
  N   N22       1.0  0.55721  0.15942  0.54762  1.0000
  N   N23       1.0  0.94279  0.15941  0.04762  1.0000
  N   N24       1.0  0.44279  0.84058  0.45237  1.0000
  Cl  Cl1       1.0  0.60924  0.09240  0.86391  1.0000
  Cl  Cl2       1.0  0.10922  0.90759  0.63608  1.0000
  Cl  Cl3       1.0  0.39074  0.90759  0.13609  1.0000
  Cl  Cl4       1.0  0.89076  0.09241  0.36391  1.0000
  O   O1        1.0  0.48579  0.56168  0.83898  1.0000
  O   O2        1.0  0.98573  0.43831  0.66103  1.0000
  O   O3        1.0  0.51423  0.43832  0.16104  1.0000
  O   O4        1.0  0.01427  0.56170  0.33895  1.0000
  O   O5        1.0  0.61142  0.39936  0.77788  1.0000
  O   O6        1.0  0.11140  0.60064  0.72213  1.0000
  O   O7        1.0  0.38859  0.60065  0.22214  1.0000
  O   O8        1.0  0.88860  0.39936  0.27787  1.0000
  O   O9        1.0  0.85679  0.59921  0.00680  1.0000
  O   O10       1.0  0.35685  0.40081  0.49319  1.0000
  O   O11       1.0  0.14317  0.40080  0.99320  1.0000
  O   O12       1.0  0.64320  0.59924  0.50683  1.0000
  O   O13       1.0  0.84819  0.66445  0.88390  1.0000
  O   O14       1.0  0.34821  0.33555  0.61608  1.0000
  O   O15       1.0  0.15181  0.33554  0.11610  1.0000
  O   O16       1.0  0.65183  0.66445  0.38393  1.0000
