data_image0
_chemical_formula_structural       Zn4H36C64N28O4
_chemical_formula_sum              "Zn4 H36 C64 N28 O4"
_cell_length_a       8.48507
_cell_length_b       12.6096
_cell_length_c       15.6171
_cell_angle_alpha    90.0002
_cell_angle_beta     89.9998
_cell_angle_gamma    90.0001

_space_group_name_H-M_alt    "P 1"
_space_group_IT_number       1

loop_
  _space_group_symop_operation_xyz
  'x, y, z'

loop_
  _atom_site_type_symbol
  _atom_site_label
  _atom_site_symmetry_multiplicity
  _atom_site_fract_x
  _atom_site_fract_y
  _atom_site_fract_z
  _atom_site_occupancy
  Zn  Zn1       1.0  0.18773  0.40275  0.80121  1.0000
  Zn  Zn2       1.0  0.31227  0.59725  0.30121  1.0000
  Zn  Zn3       1.0  0.81227  0.90275  0.69879  1.0000
  Zn  Zn4       1.0  0.68773  0.09725  0.19879  1.0000
  H   H1        1.0  0.97379  0.20916  0.77711  1.0000
  H   H2        1.0  0.52622  0.79084  0.27711  1.0000
  H   H3        1.0  0.02622  0.70916  0.72289  1.0000
  H   H4        1.0  0.47378  0.29084  0.22289  1.0000
  H   H5        1.0  0.70320  0.15187  0.81953  1.0000
  H   H6        1.0  0.79681  0.84813  0.31953  1.0000
  H   H7        1.0  0.29681  0.65187  0.68047  1.0000
  H   H8        1.0  0.20319  0.34813  0.18047  1.0000
  H   H9        1.0  0.53945  0.27485  0.91158  1.0000
  H   H10       1.0  0.96056  0.72514  0.41158  1.0000
  H   H11       1.0  0.46056  0.77486  0.58841  1.0000
  H   H12       1.0  0.03944  0.22514  0.08842  1.0000
  H   H13       1.0  0.65585  0.44791  0.95612  1.0000
  H   H14       1.0  0.84415  0.55209  0.45612  1.0000
  H   H15       1.0  0.34414  0.94792  0.54388  1.0000
  H   H16       1.0  0.15585  0.05209  0.04388  1.0000
  H   H17       1.0  0.93433  0.73718  0.90229  1.0000
  H   H18       1.0  0.56567  0.26282  0.40229  1.0000
  H   H19       1.0  0.06566  0.23718  0.59771  1.0000
  H   H20       1.0  0.43433  0.76282  0.09771  1.0000
  H   H21       1.0  0.84945  0.85769  0.02008  1.0000
  H   H22       1.0  0.65054  0.14231  0.52007  1.0000
  H   H23       1.0  0.15055  0.35769  0.47993  1.0000
  H   H24       1.0  0.34945  0.64231  0.97993  1.0000
  H   H25       1.0  0.76490  0.78403  0.15888  1.0000
  H   H26       1.0  0.73510  0.21597  0.65888  1.0000
  H   H27       1.0  0.23511  0.28403  0.34113  1.0000
  H   H28       1.0  0.26489  0.71597  0.84113  1.0000
  H   H29       1.0  0.76714  0.58796  0.18332  1.0000
  H   H30       1.0  0.73286  0.41204  0.68332  1.0000
  H   H31       1.0  0.23286  0.08796  0.31668  1.0000
  H   H32       1.0  0.26714  0.91204  0.81668  1.0000
  H   H33       1.0  0.84604  0.46735  0.06581  1.0000
  H   H34       1.0  0.65395  0.53264  0.56581  1.0000
  H   H35       1.0  0.15395  0.96735  0.43419  1.0000
  H   H36       1.0  0.34605  0.03265  0.93419  1.0000
  C   C1        1.0  0.89950  0.25975  0.81691  1.0000
  C   C2        1.0  0.60051  0.74025  0.31691  1.0000
  C   C3        1.0  0.10050  0.75975  0.68309  1.0000
  C   C4        1.0  0.39949  0.24025  0.18309  1.0000
  C   C5        1.0  0.74798  0.22828  0.84109  1.0000
  C   C6        1.0  0.75202  0.77172  0.34109  1.0000
  C   C7        1.0  0.25202  0.72828  0.65891  1.0000
  C   C8        1.0  0.24798  0.27172  0.15891  1.0000
  C   C9        1.0  0.65884  0.29576  0.89224  1.0000
  C   C10       1.0  0.84116  0.70424  0.39224  1.0000
  C   C11       1.0  0.34116  0.79577  0.60776  1.0000
  C   C12       1.0  0.15884  0.20424  0.10776  1.0000
  C   C13       1.0  0.72374  0.39264  0.91748  1.0000
  C   C14       1.0  0.77626  0.60736  0.41748  1.0000
  C   C15       1.0  0.27626  0.89264  0.58252  1.0000
  C   C16       1.0  0.22374  0.10736  0.08252  1.0000
  C   C17       1.0  0.87542  0.41887  0.89038  1.0000
  C   C18       1.0  0.62458  0.58113  0.39038  1.0000
  C   C19       1.0  0.12458  0.91887  0.60962  1.0000
  C   C20       1.0  0.37542  0.08113  0.10962  1.0000
  C   C21       1.0  0.94809  0.52592  0.90537  1.0000
  C   C22       1.0  0.55191  0.47408  0.40537  1.0000
  C   C23       1.0  0.05191  0.02592  0.59463  1.0000
  C   C24       1.0  0.44809  0.97408  0.09463  1.0000
  C   C25       1.0  0.89323  0.59455  0.97581  1.0000
  C   C26       1.0  0.60677  0.40545  0.47581  1.0000
  C   C27       1.0  0.10677  0.09455  0.52419  1.0000
  C   C28       1.0  0.39323  0.90545  0.02419  1.0000
  C   C29       1.0  0.89709  0.70510  0.96380  1.0000
  C   C30       1.0  0.60291  0.29490  0.46380  1.0000
  C   C31       1.0  0.10291  0.20509  0.53620  1.0000
  C   C32       1.0  0.39709  0.79491  0.03620  1.0000
  C   C33       1.0  0.85022  0.77221  0.02964  1.0000
  C   C34       1.0  0.64978  0.22779  0.52964  1.0000
  C   C35       1.0  0.14978  0.27221  0.47037  1.0000
  C   C36       1.0  0.35022  0.72779  0.97036  1.0000
  C   C37       1.0  0.80308  0.73029  0.10845  1.0000
  C   C38       1.0  0.69693  0.26971  0.60845  1.0000
  C   C39       1.0  0.19693  0.23028  0.39155  1.0000
  C   C40       1.0  0.30307  0.76971  0.89155  1.0000
  C   C41       1.0  0.80275  0.62078  0.12173  1.0000
  C   C42       1.0  0.69725  0.37922  0.62173  1.0000
  C   C43       1.0  0.19725  0.12078  0.37827  1.0000
  C   C44       1.0  0.30275  0.87922  0.87827  1.0000
  C   C45       1.0  0.84594  0.55283  0.05538  1.0000
  C   C46       1.0  0.65406  0.44717  0.55537  1.0000
  C   C47       1.0  0.15406  0.05282  0.44463  1.0000
  C   C48       1.0  0.34594  0.94717  0.94463  1.0000
  C   C49       1.0  0.33598  0.42024  0.99202  1.0000
  C   C50       1.0  0.16402  0.57976  0.49201  1.0000
  C   C51       1.0  0.66402  0.92024  0.50799  1.0000
  C   C52       1.0  0.83598  0.07976  0.00799  1.0000
  C   C53       1.0  0.40944  0.50839  0.11548  1.0000
  C   C54       1.0  0.09056  0.49162  0.61548  1.0000
  C   C55       1.0  0.59056  0.00838  0.38451  1.0000
  C   C56       1.0  0.90944  0.99161  0.88452  1.0000
  C   C57       1.0  0.50235  0.54159  0.78478  1.0000
  C   C58       1.0  0.99766  0.45841  0.28478  1.0000
  C   C59       1.0  0.49765  0.04159  0.71522  1.0000
  C   C60       1.0  0.00234  0.95841  0.21522  1.0000
  C   C61       1.0  0.67910  0.67582  0.75681  1.0000
  C   C62       1.0  0.82091  0.32418  0.25681  1.0000
  C   C63       1.0  0.32091  0.17582  0.74319  1.0000
  C   C64       1.0  0.17909  0.82418  0.24318  1.0000
  N   N1        1.0  0.96069  0.35283  0.84057  1.0000
  N   N2        1.0  0.53932  0.64717  0.34057  1.0000
  N   N3        1.0  0.03931  0.85282  0.65943  1.0000
  N   N4        1.0  0.46069  0.14718  0.15943  1.0000
  N   N5        1.0  0.25657  0.38425  0.93719  1.0000
  N   N6        1.0  0.24343  0.61575  0.43719  1.0000
  N   N7        1.0  0.74343  0.88425  0.56281  1.0000
  N   N8        1.0  0.75657  0.11575  0.06281  1.0000
  N   N9        1.0  0.43785  0.45333  0.04752  1.0000
  N   N10       1.0  0.06215  0.54667  0.54752  1.0000
  N   N11       1.0  0.56215  0.95332  0.45248  1.0000
  N   N12       1.0  0.93785  0.04667  0.95248  1.0000
  N   N13       1.0  0.39893  0.55908  0.17855  1.0000
  N   N14       1.0  0.10107  0.44092  0.67855  1.0000
  N   N15       1.0  0.60107  0.05908  0.32145  1.0000
  N   N16       1.0  0.89893  0.94092  0.82145  1.0000
  N   N17       1.0  0.38163  0.49588  0.78662  1.0000
  N   N18       1.0  0.11838  0.50412  0.28662  1.0000
  N   N19       1.0  0.61837  0.99588  0.71339  1.0000
  N   N20       1.0  0.88162  0.00412  0.21338  1.0000
  N   N21       1.0  0.64086  0.58351  0.78554  1.0000
  N   N22       1.0  0.85915  0.41649  0.28554  1.0000
  N   N23       1.0  0.35914  0.08350  0.71447  1.0000
  N   N24       1.0  0.14085  0.91649  0.21446  1.0000
  N   N25       1.0  0.72849  0.75732  0.73213  1.0000
  N   N26       1.0  0.77151  0.24268  0.23213  1.0000
  N   N27       1.0  0.27151  0.25732  0.76787  1.0000
  N   N28       1.0  0.22849  0.74268  0.26787  1.0000
  O   O1        1.0  0.05297  0.55625  0.85540  1.0000
  O   O2        1.0  0.44702  0.44376  0.35540  1.0000
  O   O3        1.0  0.94702  0.05624  0.64460  1.0000
  O   O4        1.0  0.55298  0.94376  0.14460  1.0000
