data_image0
_chemical_formula_structural       Cd2H4C8N2O10
_chemical_formula_sum              "Cd2 H4 C8 N2 O10"
_cell_length_a       5.09401
_cell_length_b       6.75005
_cell_length_c       8.56928
_cell_angle_alpha    87.5077
_cell_angle_beta     75.3468
_cell_angle_gamma    77.8136

_space_group_name_H-M_alt    "P 1"
_space_group_IT_number       1

loop_
  _space_group_symop_operation_xyz
  'x, y, z'

loop_
  _atom_site_type_symbol
  _atom_site_label
  _atom_site_symmetry_multiplicity
  _atom_site_fract_x
  _atom_site_fract_y
  _atom_site_fract_z
  _atom_site_occupancy
  Cd  Cd1       1.0  0.00000  0.50000  1.00000  1.0000
  Cd  Cd2       1.0  0.50000  1.00000  0.50000  1.0000
  H   H1        1.0  0.77943  0.62575  0.65476  1.0000
  H   H2        1.0  0.22057  0.37425  0.34524  1.0000
  H   H3        1.0  0.00323  0.72097  0.52224  1.0000
  H   H4        1.0  0.99677  0.27903  0.47776  1.0000
  C   C1        1.0  0.94319  0.11624  0.19276  1.0000
  C   C2        1.0  0.05682  0.88376  0.80723  1.0000
  C   C3        1.0  0.24003  0.05645  0.09302  1.0000
  C   C4        1.0  0.75997  0.94355  0.90698  1.0000
  C   C5        1.0  0.40646  0.86744  0.11453  1.0000
  C   C6        1.0  0.59354  0.13256  0.88547  1.0000
  C   C7        1.0  0.31054  0.71904  0.24419  1.0000
  C   C8        1.0  0.68946  0.28096  0.75581  1.0000
  N   N1        1.0  0.66422  0.81489  0.01978  1.0000
  N   N2        1.0  0.33578  0.18511  0.98022  1.0000
  O   O1        1.0  0.22901  0.56996  0.20134  1.0000
  O   O2        1.0  0.77099  0.43004  0.79866  1.0000
  O   O3        1.0  0.33333  0.74674  0.38497  1.0000
  O   O4        1.0  0.66667  0.25326  0.61504  1.0000
  O   O5        1.0  0.79937  0.28971  0.17738  1.0000
  O   O6        1.0  0.20062  0.71030  0.82261  1.0000
  O   O7        1.0  0.85908  0.97632  0.28168  1.0000
  O   O8        1.0  0.14092  0.02369  0.71831  1.0000
  O   O9        1.0  0.81023  0.74784  0.58929  1.0000
  O   O10       1.0  0.18977  0.25216  0.41072  1.0000
