data_image0
_chemical_formula_structural       Li4H60C48N24
_chemical_formula_sum              "Li4 H60 C48 N24"
_cell_length_a       9.15297
_cell_length_b       9.36983
_cell_length_c       14.6509
_cell_angle_alpha    89.9999
_cell_angle_beta     89.9998
_cell_angle_gamma    90.0001

_space_group_name_H-M_alt    "P 1"
_space_group_IT_number       1

loop_
  _space_group_symop_operation_xyz
  'x, y, z'

loop_
  _atom_site_type_symbol
  _atom_site_label
  _atom_site_symmetry_multiplicity
  _atom_site_fract_x
  _atom_site_fract_y
  _atom_site_fract_z
  _atom_site_occupancy
  Li  Li1       1.0  0.17521  0.39098  0.68291  1.0000
  Li  Li2       1.0  0.32479  0.60902  0.18291  1.0000
  Li  Li3       1.0  0.82479  0.89098  0.81709  1.0000
  Li  Li4       1.0  0.67521  0.10902  0.31709  1.0000
  H   H1        1.0  0.20074  0.22088  0.19004  1.0000
  H   H2        1.0  0.29927  0.77912  0.69005  1.0000
  H   H3        1.0  0.79926  0.72088  0.30996  1.0000
  H   H4        1.0  0.70073  0.27912  0.80995  1.0000
  H   H5        1.0  0.27595  0.09574  0.66864  1.0000
  H   H6        1.0  0.22405  0.90426  0.16864  1.0000
  H   H7        1.0  0.72405  0.59574  0.83136  1.0000
  H   H8        1.0  0.77595  0.40426  0.33135  1.0000
  H   H9        1.0  0.09569  0.66907  0.53344  1.0000
  H   H10       1.0  0.40431  0.33093  0.03344  1.0000
  H   H11       1.0  0.90430  0.16907  0.96656  1.0000
  H   H12       1.0  0.59569  0.83093  0.46656  1.0000
  H   H13       1.0  0.00634  0.58841  0.80967  1.0000
  H   H14       1.0  0.49366  0.41159  0.30967  1.0000
  H   H15       1.0  0.99366  0.08841  0.69033  1.0000
  H   H16       1.0  0.50634  0.91158  0.19033  1.0000
  H   H17       1.0  0.33215  0.93330  0.51295  1.0000
  H   H18       1.0  0.16785  0.06670  0.01295  1.0000
  H   H19       1.0  0.66785  0.43330  0.98705  1.0000
  H   H20       1.0  0.83215  0.56670  0.48705  1.0000
  H   H21       1.0  0.14884  0.47154  0.46365  1.0000
  H   H22       1.0  0.35116  0.52846  0.96365  1.0000
  H   H23       1.0  0.85116  0.97154  0.03635  1.0000
  H   H24       1.0  0.64884  0.02846  0.53635  1.0000
  H   H25       1.0  0.06614  0.35593  0.38347  1.0000
  H   H26       1.0  0.43386  0.64407  0.88347  1.0000
  H   H27       1.0  0.93386  0.85593  0.11653  1.0000
  H   H28       1.0  0.56614  0.14407  0.61653  1.0000
  H   H29       1.0  0.25103  0.40341  0.36907  1.0000
  H   H30       1.0  0.24897  0.59659  0.86907  1.0000
  H   H31       1.0  0.74898  0.90341  0.13092  1.0000
  H   H32       1.0  0.75103  0.09659  0.63092  1.0000
  H   H33       1.0  0.29968  0.96733  0.35333  1.0000
  H   H34       1.0  0.20033  0.03267  0.85333  1.0000
  H   H35       1.0  0.70032  0.46733  0.14667  1.0000
  H   H36       1.0  0.79967  0.53267  0.64667  1.0000
  H   H37       1.0  0.34946  0.14077  0.31491  1.0000
  H   H38       1.0  0.15054  0.85923  0.81491  1.0000
  H   H39       1.0  0.65054  0.64077  0.18509  1.0000
  H   H40       1.0  0.84947  0.35923  0.68509  1.0000
  H   H41       1.0  0.90130  0.20969  0.15003  1.0000
  H   H42       1.0  0.59870  0.79031  0.65003  1.0000
  H   H43       1.0  0.09870  0.70969  0.34997  1.0000
  H   H44       1.0  0.40130  0.29031  0.84997  1.0000
  H   H45       1.0  0.85290  0.93451  0.42091  1.0000
  H   H46       1.0  0.64710  0.06549  0.92091  1.0000
  H   H47       1.0  0.14710  0.43451  0.07909  1.0000
  H   H48       1.0  0.35290  0.56549  0.57909  1.0000
  H   H49       1.0  0.97394  0.05037  0.48080  1.0000
  H   H50       1.0  0.52606  0.94963  0.98080  1.0000
  H   H51       1.0  0.02606  0.55037  0.01920  1.0000
  H   H52       1.0  0.47393  0.44963  0.51920  1.0000
  H   H53       1.0  0.04077  0.88892  0.43449  1.0000
  H   H54       1.0  0.45923  0.11108  0.93448  1.0000
  H   H55       1.0  0.95923  0.38892  0.06552  1.0000
  H   H56       1.0  0.54077  0.61108  0.56552  1.0000
  H   H57       1.0  0.91848  0.88377  0.60173  1.0000
  H   H58       1.0  0.58152  0.11623  0.10173  1.0000
  H   H59       1.0  0.08152  0.38377  0.89827  1.0000
  H   H60       1.0  0.41848  0.61623  0.39827  1.0000
  C   C1        1.0  0.99285  0.05185  0.33489  1.0000
  C   C2        1.0  0.50715  0.94814  0.83489  1.0000
  C   C3        1.0  0.00715  0.55185  0.16511  1.0000
  C   C4        1.0  0.49285  0.44814  0.66511  1.0000
  C   C5        1.0  0.10890  0.17198  0.22498  1.0000
  C   C6        1.0  0.39110  0.82802  0.72499  1.0000
  C   C7        1.0  0.89110  0.67198  0.27502  1.0000
  C   C8        1.0  0.60890  0.32802  0.77502  1.0000
  C   C9        1.0  0.26307  0.12287  0.59725  1.0000
  C   C10       1.0  0.23694  0.87713  0.09725  1.0000
  C   C11       1.0  0.73693  0.62287  0.90275  1.0000
  C   C12       1.0  0.76306  0.37713  0.40275  1.0000
  C   C13       1.0  0.05191  0.68285  0.60190  1.0000
  C   C14       1.0  0.44809  0.31715  0.10190  1.0000
  C   C15       1.0  0.94809  0.18285  0.89810  1.0000
  C   C16       1.0  0.55190  0.81715  0.39810  1.0000
  C   C17       1.0  0.00916  0.64129  0.74360  1.0000
  C   C18       1.0  0.49084  0.35871  0.24360  1.0000
  C   C19       1.0  0.99084  0.14129  0.75640  1.0000
  C   C20       1.0  0.50916  0.85871  0.25640  1.0000
  C   C21       1.0  0.21218  0.25673  0.47979  1.0000
  C   C22       1.0  0.28782  0.74327  0.97979  1.0000
  C   C23       1.0  0.78782  0.75673  0.02021  1.0000
  C   C24       1.0  0.71218  0.24327  0.52021  1.0000
  C   C25       1.0  0.29137  0.04099  0.52187  1.0000
  C   C26       1.0  0.20863  0.95901  0.02187  1.0000
  C   C27       1.0  0.70863  0.54098  0.97813  1.0000
  C   C28       1.0  0.79137  0.45902  0.47813  1.0000
  C   C29       1.0  0.16784  0.37786  0.42066  1.0000
  C   C30       1.0  0.33216  0.62214  0.92066  1.0000
  C   C31       1.0  0.83216  0.87786  0.07934  1.0000
  C   C32       1.0  0.66784  0.12214  0.57934  1.0000
  C   C33       1.0  0.26678  0.08002  0.35292  1.0000
  C   C34       1.0  0.23322  0.91998  0.85292  1.0000
  C   C35       1.0  0.73322  0.58002  0.14708  1.0000
  C   C36       1.0  0.76678  0.41998  0.64708  1.0000
  C   C37       1.0  0.96177  0.16578  0.20710  1.0000
  C   C38       1.0  0.53823  0.83422  0.70710  1.0000
  C   C39       1.0  0.03822  0.66578  0.29290  1.0000
  C   C40       1.0  0.46178  0.33422  0.79290  1.0000
  C   C41       1.0  0.96433  0.97707  0.42246  1.0000
  C   C42       1.0  0.53567  0.02294  0.92246  1.0000
  C   C43       1.0  0.03567  0.47707  0.07754  1.0000
  C   C44       1.0  0.46433  0.52293  0.57754  1.0000
  C   C45       1.0  0.96272  0.79044  0.63592  1.0000
  C   C46       1.0  0.53728  0.20956  0.13592  1.0000
  C   C47       1.0  0.03728  0.29043  0.86408  1.0000
  C   C48       1.0  0.46272  0.70956  0.36408  1.0000
  N   N1        1.0  0.21293  0.25612  0.57075  1.0000
  N   N2        1.0  0.28707  0.74388  0.07075  1.0000
  N   N3        1.0  0.78707  0.75612  0.92925  1.0000
  N   N4        1.0  0.71293  0.24388  0.42925  1.0000
  N   N5        1.0  0.08131  0.58687  0.67084  1.0000
  N   N6        1.0  0.41869  0.41313  0.17084  1.0000
  N   N7        1.0  0.91868  0.08687  0.82916  1.0000
  N   N8        1.0  0.58131  0.91313  0.32916  1.0000
  N   N9        1.0  0.89085  0.09202  0.27557  1.0000
  N   N10       1.0  0.60915  0.90798  0.77557  1.0000
  N   N11       1.0  0.10915  0.59202  0.22443  1.0000
  N   N12       1.0  0.39085  0.40798  0.72443  1.0000
  N   N13       1.0  0.25923  0.12665  0.44747  1.0000
  N   N14       1.0  0.24077  0.87335  0.94747  1.0000
  N   N15       1.0  0.74077  0.62665  0.05253  1.0000
  N   N16       1.0  0.75923  0.37335  0.55253  1.0000
  N   N17       1.0  0.12771  0.09857  0.30631  1.0000
  N   N18       1.0  0.37229  0.90144  0.80631  1.0000
  N   N19       1.0  0.87229  0.59856  0.19369  1.0000
  N   N20       1.0  0.62770  0.40144  0.69369  1.0000
  N   N21       1.0  0.93545  0.76384  0.72687  1.0000
  N   N22       1.0  0.56455  0.23616  0.22687  1.0000
  N   N23       1.0  0.06455  0.26384  0.77313  1.0000
  N   N24       1.0  0.43546  0.73616  0.27313  1.0000
