data_image0
_chemical_formula_structural       Li3H39C42N18
_chemical_formula_sum              "Li3 H39 C42 N18"
_cell_length_a       8.95219
_cell_length_b       8.95217
_cell_length_c       15.2979
_cell_angle_alpha    89.9985
_cell_angle_beta     90.0011
_cell_angle_gamma    120

_space_group_name_H-M_alt    "P 1"
_space_group_IT_number       1

loop_
  _space_group_symop_operation_xyz
  'x, y, z'

loop_
  _atom_site_type_symbol
  _atom_site_label
  _atom_site_symmetry_multiplicity
  _atom_site_fract_x
  _atom_site_fract_y
  _atom_site_fract_z
  _atom_site_occupancy
  Li  Li1       1.0  0.44189  0.89293  0.12279  1.0000
  Li  Li2       1.0  0.10707  0.54896  0.78946  1.0000
  Li  Li3       1.0  0.45104  0.55811  0.45613  1.0000
  H   H1        1.0  0.58954  0.39379  0.87683  1.0000
  H   H2        1.0  0.60621  0.19577  0.54350  1.0000
  H   H3        1.0  0.80424  0.41046  0.21016  1.0000
  H   H4        1.0  0.53410  0.21355  0.01053  1.0000
  H   H5        1.0  0.78645  0.32057  0.67720  1.0000
  H   H6        1.0  0.67946  0.46590  0.34387  1.0000
  H   H7        1.0  0.51720  0.26187  0.73000  1.0000
  H   H8        1.0  0.73813  0.25534  0.39668  1.0000
  H   H9        1.0  0.74465  0.48278  0.06334  1.0000
  H   H10       1.0  0.19197  0.31469  0.28101  1.0000
  H   H11       1.0  0.68533  0.87727  0.94768  1.0000
  H   H12       1.0  0.12270  0.80803  0.61435  1.0000
  H   H13       1.0  0.02089  0.14806  0.34273  1.0000
  H   H14       1.0  0.85196  0.87283  0.00941  1.0000
  H   H15       1.0  0.12716  0.97911  0.67607  1.0000
  H   H16       1.0  0.39235  0.94436  0.71002  1.0000
  H   H17       1.0  0.05564  0.44799  0.37669  1.0000
  H   H18       1.0  0.55197  0.60762  0.04335  1.0000
  H   H19       1.0  0.80749  0.23826  0.03148  1.0000
  H   H20       1.0  0.76174  0.56923  0.69816  1.0000
  H   H21       1.0  0.43077  0.19251  0.36482  1.0000
  H   H22       1.0  0.11815  0.37321  0.12269  1.0000
  H   H23       1.0  0.62678  0.74492  0.78937  1.0000
  H   H24       1.0  0.25507  0.88185  0.45603  1.0000
  H   H25       1.0  0.71473  0.98182  0.27333  1.0000
  H   H26       1.0  0.01822  0.73291  0.93999  1.0000
  H   H27       1.0  0.26709  0.28528  0.60666  1.0000
  H   H28       1.0  0.37884  0.23499  0.18934  1.0000
  H   H29       1.0  0.76501  0.14382  0.85601  1.0000
  H   H30       1.0  0.85616  0.62118  0.52268  1.0000
  H   H31       1.0  0.90361  0.82214  0.28210  1.0000
  H   H32       1.0  0.17788  0.08147  0.94877  1.0000
  H   H33       1.0  0.91852  0.09642  0.61542  1.0000
  H   H34       1.0  0.08640  0.69198  0.19552  1.0000
  H   H35       1.0  0.30802  0.39442  0.86219  1.0000
  H   H36       1.0  0.60557  0.91361  0.52884  1.0000
  H   H37       1.0  0.27623  0.57676  0.97688  1.0000
  H   H38       1.0  0.42325  0.69947  0.64354  1.0000
  H   H39       1.0  0.30054  0.72378  0.31021  1.0000
  C   C1        1.0  0.53470  0.25487  0.87079  1.0000
  C   C2        1.0  0.74513  0.27985  0.53745  1.0000
  C   C3        1.0  0.72016  0.46529  0.20412  1.0000
  C   C4        1.0  0.50595  0.15542  0.94556  1.0000
  C   C5        1.0  0.84459  0.35055  0.61223  1.0000
  C   C6        1.0  0.64946  0.49404  0.27890  1.0000
  C   C7        1.0  0.39180  0.89941  0.84983  1.0000
  C   C8        1.0  0.10060  0.49240  0.51649  1.0000
  C   C9        1.0  0.50759  0.60818  0.18316  1.0000
  C   C10       1.0  0.49383  0.17930  0.78678  1.0000
  C   C11       1.0  0.82070  0.31454  0.45345  1.0000
  C   C12       1.0  0.68545  0.50615  0.12011  1.0000
  C   C13       1.0  0.07788  0.18547  0.27733  1.0000
  C   C14       1.0  0.81455  0.89240  0.94400  1.0000
  C   C15       1.0  0.10758  0.92213  0.61067  1.0000
  C   C16       1.0  0.43557  0.97701  0.93470  1.0000
  C   C17       1.0  0.02299  0.45857  0.60137  1.0000
  C   C18       1.0  0.54143  0.56442  0.26804  1.0000
  C   C19       1.0  0.42269  0.00196  0.77508  1.0000
  C   C20       1.0  0.99804  0.42073  0.44175  1.0000
  C   C21       1.0  0.57924  0.57729  0.10841  1.0000
  C   C22       1.0  0.83349  0.20346  0.09525  1.0000
  C   C23       1.0  0.79654  0.63002  0.76192  1.0000
  C   C24       1.0  0.36997  0.16651  0.42859  1.0000
  C   C25       1.0  0.98831  0.27216  0.13867  1.0000
  C   C26       1.0  0.72784  0.71613  0.80536  1.0000
  C   C27       1.0  0.28386  0.01170  0.47202  1.0000
  C   C28       1.0  0.77811  0.06941  0.21903  1.0000
  C   C29       1.0  0.93061  0.70869  0.88570  1.0000
  C   C30       1.0  0.29130  0.22191  0.55236  1.0000
  C   C31       1.0  0.27655  0.10345  0.20149  1.0000
  C   C32       1.0  0.89654  0.17308  0.86815  1.0000
  C   C33       1.0  0.82691  0.72346  0.53482  1.0000
  C   C34       1.0  0.02882  0.88684  0.25063  1.0000
  C   C35       1.0  0.11317  0.14197  0.91730  1.0000
  C   C36       1.0  0.85801  0.97120  0.58396  1.0000
  C   C37       1.0  0.12071  0.82474  0.20723  1.0000
  C   C38       1.0  0.17526  0.29596  0.87390  1.0000
  C   C39       1.0  0.70403  0.87930  0.54056  1.0000
  C   C40       1.0  0.32540  0.70339  0.94710  1.0000
  C   C41       1.0  0.29662  0.62202  0.61376  1.0000
  C   C42       1.0  0.37798  0.67459  0.28043  1.0000
  N   N1        1.0  0.95114  0.18669  0.21825  1.0000
  N   N2        1.0  0.81332  0.76444  0.88492  1.0000
  N   N3        1.0  0.23554  0.04887  0.55158  1.0000
  N   N4        1.0  0.27550  0.96059  0.17759  1.0000
  N   N5        1.0  0.03941  0.31490  0.84425  1.0000
  N   N6        1.0  0.68508  0.72451  0.51091  1.0000
  N   N7        1.0  0.12969  0.06462  0.24687  1.0000
  N   N8        1.0  0.93540  0.06506  0.91353  1.0000
  N   N9        1.0  0.93492  0.87033  0.58020  1.0000
  N   N10       1.0  0.70301  0.07707  0.14581  1.0000
  N   N11       1.0  0.92295  0.62594  0.81248  1.0000
  N   N12       1.0  0.37406  0.29700  0.47915  1.0000
  N   N13       1.0  0.39350  0.84845  0.99589  1.0000
  N   N14       1.0  0.15156  0.54506  0.66255  1.0000
  N   N15       1.0  0.45494  0.60649  0.32922  1.0000
  N   N16       1.0  0.31968  0.72276  0.85955  1.0000
  N   N17       1.0  0.27724  0.59692  0.52621  1.0000
  N   N18       1.0  0.40307  0.68031  0.19288  1.0000
