data_image0
_chemical_formula_structural       Sm4H32C24S4N4O36
_chemical_formula_sum              "Sm4 H32 C24 S4 N4 O36"
_cell_length_a       6.92518
_cell_length_b       8.78864
_cell_length_c       18.6733
_cell_angle_alpha    90
_cell_angle_beta     90.0003
_cell_angle_gamma    99.8487

_space_group_name_H-M_alt    "P 1"
_space_group_IT_number       1

loop_
  _space_group_symop_operation_xyz
  'x, y, z'

loop_
  _atom_site_type_symbol
  _atom_site_label
  _atom_site_symmetry_multiplicity
  _atom_site_fract_x
  _atom_site_fract_y
  _atom_site_fract_z
  _atom_site_occupancy
  Sm  Sm1       1.0  0.77153  0.60131  0.54856  1.0000
  Sm  Sm2       1.0  0.22847  0.89869  0.04856  1.0000
  Sm  Sm3       1.0  0.22847  0.39869  0.45144  1.0000
  Sm  Sm4       1.0  0.77153  0.10131  0.95144  1.0000
  H   H1        1.0  0.66758  0.64915  0.79848  1.0000
  H   H2        1.0  0.33242  0.85085  0.29848  1.0000
  H   H3        1.0  0.33242  0.35085  0.20152  1.0000
  H   H4        1.0  0.66758  0.14915  0.70152  1.0000
  H   H5        1.0  0.03090  0.65108  0.69239  1.0000
  H   H6        1.0  0.96910  0.84893  0.19240  1.0000
  H   H7        1.0  0.96910  0.34892  0.30761  1.0000
  H   H8        1.0  0.03090  0.15107  0.80760  1.0000
  H   H9        1.0  0.09507  0.73134  0.81974  1.0000
  H   H10       1.0  0.90493  0.76866  0.31974  1.0000
  H   H11       1.0  0.90493  0.26866  0.18026  1.0000
  H   H12       1.0  0.09507  0.23134  0.68026  1.0000
  H   H13       1.0  0.43217  0.72594  0.87044  1.0000
  H   H14       1.0  0.56783  0.77406  0.37044  1.0000
  H   H15       1.0  0.56783  0.27406  0.12956  1.0000
  H   H16       1.0  0.43217  0.22594  0.62956  1.0000
  H   H17       1.0  0.46043  0.82117  0.52067  1.0000
  H   H18       1.0  0.53957  0.67883  0.02067  1.0000
  H   H19       1.0  0.53957  0.17883  0.47933  1.0000
  H   H20       1.0  0.46043  0.32117  0.97933  1.0000
  H   H21       1.0  0.67190  0.91668  0.52018  1.0000
  H   H22       1.0  0.32810  0.58332  0.02018  1.0000
  H   H23       1.0  0.32810  0.08332  0.47982  1.0000
  H   H24       1.0  0.67190  0.41668  0.97982  1.0000
  H   H25       1.0  0.91063  0.92793  0.61650  1.0000
  H   H26       1.0  0.08937  0.57207  0.11651  1.0000
  H   H27       1.0  0.08937  0.07207  0.38350  1.0000
  H   H28       1.0  0.91063  0.42793  0.88349  1.0000
  H   H29       1.0  0.08114  0.87162  0.57195  1.0000
  H   H30       1.0  0.91886  0.62838  0.07195  1.0000
  H   H31       1.0  0.91886  0.12838  0.42805  1.0000
  H   H32       1.0  0.08114  0.37162  0.92805  1.0000
  C   C1        1.0  0.51769  0.62208  0.70150  1.0000
  C   C2        1.0  0.48231  0.87791  0.20150  1.0000
  C   C3        1.0  0.48231  0.37792  0.29851  1.0000
  C   C4        1.0  0.51768  0.12209  0.79851  1.0000
  C   C5        1.0  0.32382  0.61551  0.67195  1.0000
  C   C6        1.0  0.67619  0.88449  0.17195  1.0000
  C   C7        1.0  0.67618  0.38449  0.32805  1.0000
  C   C8        1.0  0.32381  0.11551  0.82805  1.0000
  C   C9        1.0  0.17644  0.65568  0.71506  1.0000
  C   C10       1.0  0.82356  0.84432  0.21506  1.0000
  C   C11       1.0  0.82356  0.34432  0.28494  1.0000
  C   C12       1.0  0.17644  0.15568  0.78494  1.0000
  C   C13       1.0  0.21045  0.70102  0.78634  1.0000
  C   C14       1.0  0.78956  0.79898  0.28634  1.0000
  C   C15       1.0  0.78955  0.29898  0.21366  1.0000
  C   C16       1.0  0.21044  0.20102  0.71366  1.0000
  C   C17       1.0  0.39250  0.69744  0.81501  1.0000
  C   C18       1.0  0.60750  0.80256  0.31501  1.0000
  C   C19       1.0  0.60750  0.30256  0.18499  1.0000
  C   C20       1.0  0.39250  0.19744  0.68499  1.0000
  C   C21       1.0  0.27612  0.56158  0.59791  1.0000
  C   C22       1.0  0.72389  0.93843  0.09791  1.0000
  C   C23       1.0  0.72388  0.43842  0.40209  1.0000
  C   C24       1.0  0.27611  0.06157  0.90209  1.0000
  S   S1        1.0  0.15456  0.80260  0.43571  1.0000
  S   S2        1.0  0.84544  0.69740  0.93571  1.0000
  S   S3        1.0  0.84544  0.19740  0.56429  1.0000
  S   S4        1.0  0.15456  0.30260  0.06429  1.0000
  N   N1        1.0  0.53607  0.65807  0.77357  1.0000
  N   N2        1.0  0.46394  0.84194  0.27357  1.0000
  N   N3        1.0  0.46393  0.34194  0.22643  1.0000
  N   N4        1.0  0.53606  0.15807  0.72643  1.0000
  O   O1        1.0  0.67130  0.59877  0.66918  1.0000
  O   O2        1.0  0.32870  0.90123  0.16918  1.0000
  O   O3        1.0  0.32870  0.40123  0.33082  1.0000
  O   O4        1.0  0.67130  0.09877  0.83082  1.0000
  O   O5        1.0  0.40633  0.50999  0.56001  1.0000
  O   O6        1.0  0.59367  0.99001  0.06001  1.0000
  O   O7        1.0  0.59367  0.49001  0.43999  1.0000
  O   O8        1.0  0.40633  0.00999  0.93999  1.0000
  O   O9        1.0  0.10621  0.56145  0.57177  1.0000
  O   O10       1.0  0.89380  0.93855  0.07177  1.0000
  O   O11       1.0  0.89380  0.43855  0.42823  1.0000
  O   O12       1.0  0.10620  0.06145  0.92823  1.0000
  O   O13       1.0  0.59870  0.81151  0.53033  1.0000
  O   O14       1.0  0.40130  0.68849  0.03033  1.0000
  O   O15       1.0  0.40130  0.18849  0.46967  1.0000
  O   O16       1.0  0.59870  0.31151  0.96967  1.0000
  O   O17       1.0  0.96762  0.83535  0.60352  1.0000
  O   O18       1.0  0.03239  0.66465  0.10352  1.0000
  O   O19       1.0  0.03238  0.16465  0.39648  1.0000
  O   O20       1.0  0.96761  0.33535  0.89648  1.0000
  O   O21       1.0  0.94271  0.75644  0.45139  1.0000
  O   O22       1.0  0.05729  0.74356  0.95139  1.0000
  O   O23       1.0  0.05729  0.24356  0.54861  1.0000
  O   O24       1.0  0.94271  0.25644  0.04861  1.0000
  O   O25       1.0  0.25070  0.89074  0.49932  1.0000
  O   O26       1.0  0.74930  0.60926  0.99932  1.0000
  O   O27       1.0  0.74930  0.10926  0.50068  1.0000
  O   O28       1.0  0.25070  0.39074  0.00068  1.0000
  O   O29       1.0  0.25089  0.66635  0.42278  1.0000
  O   O30       1.0  0.74911  0.83365  0.92278  1.0000
  O   O31       1.0  0.74911  0.33365  0.57722  1.0000
  O   O32       1.0  0.25089  0.16635  0.07721  1.0000
  O   O33       1.0  0.18200  0.90296  0.37131  1.0000
  O   O34       1.0  0.81800  0.59704  0.87131  1.0000
  O   O35       1.0  0.81800  0.09704  0.62869  1.0000
  O   O36       1.0  0.18200  0.40296  0.12869  1.0000
