data_image0
_chemical_formula_structural       CuH42C36N18Cl2
_chemical_formula_sum              "Cu1 H42 C36 N18 Cl2"
_cell_length_a       9.60481
_cell_length_b       11.2776
_cell_length_c       12.139
_cell_angle_alpha    74.6867
_cell_angle_beta     71.0902
_cell_angle_gamma    82.2431

_space_group_name_H-M_alt    "P 1"
_space_group_IT_number       1

loop_
  _space_group_symop_operation_xyz
  'x, y, z'

loop_
  _atom_site_type_symbol
  _atom_site_label
  _atom_site_symmetry_multiplicity
  _atom_site_fract_x
  _atom_site_fract_y
  _atom_site_fract_z
  _atom_site_occupancy
  Cu  Cu1       1.0  0.50000  0.50000  1.00000  1.0000
  H   H1        1.0  0.92952  0.36041  0.58554  1.0000
  H   H2        1.0  0.07047  0.63959  0.41447  1.0000
  H   H3        1.0  0.74421  0.39031  0.58242  1.0000
  H   H4        1.0  0.25578  0.60969  0.41758  1.0000
  H   H5        1.0  0.88918  0.39156  0.44854  1.0000
  H   H6        1.0  0.11082  0.60844  0.55147  1.0000
  H   H7        1.0  0.90091  0.09316  0.83089  1.0000
  H   H8        1.0  0.09908  0.90683  0.16912  1.0000
  H   H9        1.0  0.96786  0.23226  0.72951  1.0000
  H   H10       1.0  0.03213  0.76774  0.27049  1.0000
  H   H11       1.0  0.39840  0.29419  0.90016  1.0000
  H   H12       1.0  0.60159  0.70580  0.09985  1.0000
  H   H13       1.0  0.82254  0.37770  0.87283  1.0000
  H   H14       1.0  0.17745  0.62230  0.12716  1.0000
  H   H15       1.0  0.78917  0.89666  0.85991  1.0000
  H   H16       1.0  0.21083  0.10333  0.14009  1.0000
  H   H17       1.0  0.97830  0.92938  0.80102  1.0000
  H   H18       1.0  0.02171  0.07061  0.19898  1.0000
  H   H19       1.0  0.91444  0.81137  0.76412  1.0000
  H   H20       1.0  0.08556  0.18862  0.23588  1.0000
  H   H21       1.0  0.80155  0.80149  0.51747  1.0000
  H   H22       1.0  0.19846  0.19851  0.48253  1.0000
  H   H23       1.0  0.91206  0.77048  0.61346  1.0000
  H   H24       1.0  0.08795  0.22952  0.38654  1.0000
  H   H25       1.0  0.79557  0.60980  0.80035  1.0000
  H   H26       1.0  0.20444  0.39019  0.19964  1.0000
  H   H27       1.0  0.35330  0.73318  0.84930  1.0000
  H   H28       1.0  0.64672  0.26682  0.15070  1.0000
  H   H29       1.0  0.80058  0.97397  0.33368  1.0000
  H   H30       1.0  0.19942  0.02603  0.66633  1.0000
  H   H31       1.0  0.63708  0.06689  0.37739  1.0000
  H   H32       1.0  0.36292  0.93311  0.62261  1.0000
  H   H33       1.0  0.64983  0.91575  0.45915  1.0000
  H   H34       1.0  0.35017  0.08425  0.54086  1.0000
  H   H35       1.0  0.84727  0.32736  0.32655  1.0000
  H   H36       1.0  0.15273  0.67264  0.67346  1.0000
  H   H37       1.0  0.76196  0.21309  0.30158  1.0000
  H   H38       1.0  0.23803  0.78690  0.69843  1.0000
  H   H39       1.0  0.63847  0.48294  0.25503  1.0000
  H   H40       1.0  0.36154  0.51706  0.74497  1.0000
  H   H41       1.0  0.29539  0.35558  0.56888  1.0000
  H   H42       1.0  0.70460  0.64443  0.43112  1.0000
  C   C1        1.0  0.85084  0.34369  0.54354  1.0000
  C   C2        1.0  0.14916  0.65631  0.45646  1.0000
  C   C3        1.0  0.83696  0.20858  0.55925  1.0000
  C   C4        1.0  0.16304  0.79142  0.44075  1.0000
  C   C5        1.0  0.79500  0.16672  0.47567  1.0000
  C   C6        1.0  0.20499  0.83328  0.52434  1.0000
  C   C7        1.0  0.77680  0.04067  0.49212  1.0000
  C   C8        1.0  0.22319  0.95933  0.50788  1.0000
  C   C9        1.0  0.81468  0.95576  0.58750  1.0000
  C   C10       1.0  0.18533  0.04423  0.41250  1.0000
  C   C11       1.0  0.85421  0.99576  0.67323  1.0000
  C   C12       1.0  0.14579  0.00424  0.32677  1.0000
  C   C13       1.0  0.85933  0.12286  0.66067  1.0000
  C   C14       1.0  0.14067  0.87714  0.33933  1.0000
  C   C15       1.0  0.87780  0.16926  0.76057  1.0000
  C   C16       1.0  0.12220  0.83074  0.23943  1.0000
  C   C17       1.0  0.51768  0.28891  0.87865  1.0000
  C   C18       1.0  0.48231  0.71109  0.12135  1.0000
  C   C19       1.0  0.73285  0.33618  0.86278  1.0000
  C   C20       1.0  0.26715  0.66382  0.13721  1.0000
  C   C21       1.0  0.88563  0.90416  0.77925  1.0000
  C   C22       1.0  0.11438  0.09584  0.22074  1.0000
  C   C23       1.0  0.81068  0.81980  0.59900  1.0000
  C   C24       1.0  0.18933  0.18020  0.40099  1.0000
  C   C25       1.0  0.69633  0.66102  0.78623  1.0000
  C   C26       1.0  0.30368  0.33898  0.21376  1.0000
  C   C27       1.0  0.47228  0.72887  0.81090  1.0000
  C   C28       1.0  0.52772  0.27113  0.18910  1.0000
  C   C29       1.0  0.71388  0.99739  0.41150  1.0000
  C   C30       1.0  0.28612  0.00261  0.58850  1.0000
  C   C31       1.0  0.76301  0.25885  0.37047  1.0000
  C   C32       1.0  0.23699  0.74115  0.62953  1.0000
  C   C33       1.0  0.57159  0.43306  0.34234  1.0000
  C   C34       1.0  0.42841  0.56695  0.65766  1.0000
  C   C35       1.0  0.40081  0.36347  0.49897  1.0000
  C   C36       1.0  0.59919  0.63654  0.50102  1.0000
  N   N1        1.0  0.56002  0.63772  0.85767  1.0000
  N   N2        1.0  0.43999  0.36228  0.14232  1.0000
  N   N3        1.0  0.54746  0.80733  0.71403  1.0000
  N   N4        1.0  0.45255  0.19267  0.28597  1.0000
  N   N5        1.0  0.68948  0.76218  0.69970  1.0000
  N   N6        1.0  0.31053  0.23782  0.30030  1.0000
  N   N7        1.0  0.51211  0.28053  0.50632  1.0000
  N   N8        1.0  0.48789  0.71948  0.49368  1.0000
  N   N9        1.0  0.62099  0.32739  0.40565  1.0000
  N   N10       1.0  0.37901  0.67261  0.59435  1.0000
  N   N11       1.0  0.43102  0.45849  0.39963  1.0000
  N   N12       1.0  0.56897  0.54152  0.60037  1.0000
  N   N13       1.0  0.74368  0.23843  0.81600  1.0000
  N   N14       1.0  0.25631  0.76156  0.18400  1.0000
  N   N15       1.0  0.60752  0.20632  0.82596  1.0000
  N   N16       1.0  0.39247  0.79367  0.17405  1.0000
  N   N17       1.0  0.59045  0.37025  0.90292  1.0000
  N   N18       1.0  0.40954  0.62975  0.09708  1.0000
  Cl  Cl1       1.0  0.76936  0.50178  0.03793  1.0000
  Cl  Cl2       1.0  0.23063  0.49821  0.96207  1.0000
