data_image0
_chemical_formula_structural       Cu4H16C40N12O12
_chemical_formula_sum              "Cu4 H16 C40 N12 O12"
_cell_length_a       7.07121
_cell_length_b       8.66932
_cell_length_c       15.6065
_cell_angle_alpha    90.0001
_cell_angle_beta     95.6968
_cell_angle_gamma    89.9999

_space_group_name_H-M_alt    "P 1"
_space_group_IT_number       1

loop_
  _space_group_symop_operation_xyz
  'x, y, z'

loop_
  _atom_site_type_symbol
  _atom_site_label
  _atom_site_symmetry_multiplicity
  _atom_site_fract_x
  _atom_site_fract_y
  _atom_site_fract_z
  _atom_site_occupancy
  Cu  Cu1       1.0  0.61552  0.89005  0.52438  1.0000
  Cu  Cu2       1.0  0.88449  0.39006  0.47562  1.0000
  Cu  Cu3       1.0  0.38449  0.10994  0.47562  1.0000
  Cu  Cu4       1.0  0.11551  0.60995  0.52438  1.0000
  H   H1        1.0  0.55863  0.54622  0.60530  1.0000
  H   H2        1.0  0.94137  0.04622  0.39470  1.0000
  H   H3        1.0  0.44137  0.45378  0.39470  1.0000
  H   H4        1.0  0.05863  0.95378  0.60530  1.0000
  H   H5        1.0  0.44548  0.50141  0.75382  1.0000
  H   H6        1.0  0.05452  0.00140  0.24618  1.0000
  H   H7        1.0  0.55452  0.49859  0.24618  1.0000
  H   H8        1.0  0.94548  0.99859  0.75382  1.0000
  H   H9        1.0  0.51315  0.10635  0.67687  1.0000
  H   H10       1.0  0.98684  0.60635  0.32313  1.0000
  H   H11       1.0  0.48684  0.89365  0.32313  1.0000
  H   H12       1.0  0.01315  0.39365  0.67687  1.0000
  H   H13       1.0  0.34190  0.69887  0.89391  1.0000
  H   H14       1.0  0.15810  0.19886  0.10609  1.0000
  H   H15       1.0  0.65810  0.30114  0.10609  1.0000
  H   H16       1.0  0.84191  0.80113  0.89391  1.0000
  C   C1        1.0  0.71516  0.08971  0.52943  1.0000
  C   C2        1.0  0.78486  0.58973  0.47057  1.0000
  C   C3        1.0  0.28485  0.91027  0.47057  1.0000
  C   C4        1.0  0.21516  0.41028  0.52943  1.0000
  C   C5        1.0  0.52555  0.63701  0.64935  1.0000
  C   C6        1.0  0.97445  0.13700  0.35065  1.0000
  C   C7        1.0  0.47445  0.36299  0.35065  1.0000
  C   C8        1.0  0.02555  0.86299  0.64935  1.0000
  C   C9        1.0  0.48632  0.86145  0.70600  1.0000
  C   C10       1.0  0.01368  0.36145  0.29400  1.0000
  C   C11       1.0  0.51368  0.13855  0.29400  1.0000
  C   C12       1.0  0.98632  0.63855  0.70600  1.0000
  C   C13       1.0  0.43795  0.74810  0.76706  1.0000
  C   C14       1.0  0.06205  0.24809  0.23294  1.0000
  C   C15       1.0  0.56205  0.25191  0.23294  1.0000
  C   C16       1.0  0.93794  0.75190  0.76706  1.0000
  C   C17       1.0  0.47712  0.01955  0.72313  1.0000
  C   C18       1.0  0.02288  0.51955  0.27688  1.0000
  C   C19       1.0  0.52288  0.98045  0.27688  1.0000
  C   C20       1.0  0.97712  0.48045  0.72312  1.0000
  C   C21       1.0  0.37772  0.78537  0.84735  1.0000
  C   C22       1.0  0.12227  0.28537  0.15265  1.0000
  C   C23       1.0  0.62227  0.21463  0.15265  1.0000
  C   C24       1.0  0.87772  0.71463  0.84735  1.0000
  C   C25       1.0  0.41752  0.05540  0.80276  1.0000
  C   C26       1.0  0.08248  0.55539  0.19725  1.0000
  C   C27       1.0  0.58248  0.94461  0.19725  1.0000
  C   C28       1.0  0.91752  0.44460  0.80275  1.0000
  C   C29       1.0  0.36851  0.94318  0.86257  1.0000
  C   C30       1.0  0.13148  0.44317  0.13743  1.0000
  C   C31       1.0  0.63148  0.05683  0.13743  1.0000
  C   C32       1.0  0.86852  0.55682  0.86257  1.0000
  C   C33       1.0  0.39571  0.20731  0.84175  1.0000
  C   C34       1.0  0.10428  0.70730  0.15825  1.0000
  C   C35       1.0  0.60428  0.79270  0.15825  1.0000
  C   C36       1.0  0.89571  0.29269  0.84175  1.0000
  C   C37       1.0  0.31251  0.02650  0.93820  1.0000
  C   C38       1.0  0.18749  0.52650  0.06180  1.0000
  C   C39       1.0  0.68749  0.97350  0.06180  1.0000
  C   C40       1.0  0.81252  0.47350  0.93820  1.0000
  N   N1        1.0  0.70204  0.70851  0.46838  1.0000
  N   N2        1.0  0.79799  0.20851  0.53163  1.0000
  N   N3        1.0  0.29797  0.29149  0.53163  1.0000
  N   N4        1.0  0.20204  0.79149  0.46837  1.0000
  N   N5        1.0  0.54064  0.78719  0.63406  1.0000
  N   N6        1.0  0.95937  0.28718  0.36594  1.0000
  N   N7        1.0  0.45936  0.21281  0.36594  1.0000
  N   N8        1.0  0.04064  0.71281  0.63406  1.0000
  N   N9        1.0  0.46526  0.60858  0.72792  1.0000
  N   N10       1.0  0.03474  0.10857  0.27208  1.0000
  N   N11       1.0  0.53474  0.39143  0.27208  1.0000
  N   N12       1.0  0.96526  0.89142  0.72792  1.0000
  O   O1        1.0  0.33281  0.18703  0.92212  1.0000
  O   O2        1.0  0.16719  0.68703  0.07789  1.0000
  O   O3        1.0  0.66718  0.81297  0.07789  1.0000
  O   O4        1.0  0.83281  0.31297  0.92211  1.0000
  O   O5        1.0  0.42480  0.33617  0.81460  1.0000
  O   O6        1.0  0.07519  0.83616  0.18540  1.0000
  O   O7        1.0  0.57520  0.66383  0.18540  1.0000
  O   O8        1.0  0.92480  0.16383  0.81460  1.0000
  O   O9        1.0  0.25894  0.98433  0.00544  1.0000
  O   O10       1.0  0.24105  0.48433  0.99456  1.0000
  O   O11       1.0  0.74106  0.01567  0.99456  1.0000
  O   O12       1.0  0.75895  0.51566  0.00544  1.0000
