data_image0
_chemical_formula_structural       Co3H24C30N14O8
_chemical_formula_sum              "Co3 H24 C30 N14 O8"
_cell_length_a       10.1399
_cell_length_b       10.3271
_cell_length_c       10.5073
_cell_angle_alpha    99.634
_cell_angle_beta     101.913
_cell_angle_gamma    119.442

_space_group_name_H-M_alt    "P 1"
_space_group_IT_number       1

loop_
  _space_group_symop_operation_xyz
  'x, y, z'

loop_
  _atom_site_type_symbol
  _atom_site_label
  _atom_site_symmetry_multiplicity
  _atom_site_fract_x
  _atom_site_fract_y
  _atom_site_fract_z
  _atom_site_occupancy
  Co  Co1       1.0  0.50168  0.50075  0.50117  1.0000
  Co  Co2       1.0  0.84841  0.71994  0.77801  1.0000
  Co  Co3       1.0  0.15155  0.27916  0.22151  1.0000
  H   H1        1.0  0.76712  0.09829  0.85997  1.0000
  H   H2        1.0  0.23234  0.90136  0.14042  1.0000
  H   H3        1.0  0.81890  0.57853  0.43966  1.0000
  H   H4        1.0  0.18319  0.42295  0.56110  1.0000
  H   H5        1.0  0.93427  0.91161  0.10355  1.0000
  H   H6        1.0  0.06505  0.08772  0.89537  1.0000
  H   H7        1.0  0.28948  0.68273  0.69802  1.0000
  H   H8        1.0  0.70991  0.31700  0.30224  1.0000
  H   H9        1.0  0.36493  0.12341  0.90042  1.0000
  H   H10       1.0  0.63455  0.87663  0.09926  1.0000
  H   H11       1.0  0.65786  0.25393  0.94071  1.0000
  H   H12       1.0  0.34157  0.74594  0.05915  1.0000
  H   H13       1.0  0.83687  0.96650  0.34009  1.0000
  H   H14       1.0  0.16317  0.03363  0.65940  1.0000
  H   H15       1.0  0.57366  0.81205  0.42742  1.0000
  H   H16       1.0  0.42768  0.18867  0.57382  1.0000
  H   H17       1.0  0.07462  0.77951  0.38743  1.0000
  H   H18       1.0  0.92608  0.22103  0.61199  1.0000
  H   H19       1.0  0.07986  0.94531  0.35276  1.0000
  H   H20       1.0  0.92073  0.05511  0.64630  1.0000
  H   H21       1.0  0.84272  0.46912  0.90750  1.0000
  H   H22       1.0  0.15664  0.52993  0.09247  1.0000
  H   H23       1.0  0.93118  0.52116  0.18815  1.0000
  H   H24       1.0  0.06876  0.47885  0.81200  1.0000
  C   C1        1.0  0.53466  0.88116  0.77044  1.0000
  C   C2        1.0  0.46481  0.11853  0.23016  1.0000
  C   C3        1.0  0.30881  0.89422  0.79672  1.0000
  C   C4        1.0  0.69053  0.10566  0.20317  1.0000
  C   C5        1.0  0.63855  0.04230  0.84054  1.0000
  C   C6        1.0  0.36091  0.95744  0.15983  1.0000
  C   C7        1.0  0.59629  0.78527  0.71936  1.0000
  C   C8        1.0  0.40357  0.21473  0.28155  1.0000
  C   C9        1.0  0.78622  0.66169  0.42562  1.0000
  C   C10       1.0  0.21558  0.33956  0.57508  1.0000
  C   C11       1.0  0.13509  0.80932  0.78098  1.0000
  C   C12       1.0  0.86424  0.19098  0.21870  1.0000
  C   C13       1.0  0.92065  0.79835  0.08497  1.0000
  C   C14       1.0  0.07885  0.20106  0.91430  1.0000
  C   C15       1.0  0.37034  0.80815  0.74968  1.0000
  C   C16       1.0  0.62906  0.19159  0.25057  1.0000
  C   C17       1.0  0.41276  0.05628  0.86311  1.0000
  C   C18       1.0  0.58666  0.94363  0.13673  1.0000
  C   C19       1.0  0.57702  0.12912  0.88543  1.0000
  C   C20       1.0  0.42242  0.87073  0.11457  1.0000
  C   C21       1.0  0.79283  0.86532  0.37616  1.0000
  C   C22       1.0  0.20786  0.13524  0.62396  1.0000
  C   C23       1.0  0.66327  0.78636  0.41751  1.0000
  C   C24       1.0  0.33804  0.21444  0.58341  1.0000
  C   C25       1.0  0.00343  0.81869  0.33324  1.0000
  C   C26       1.0  0.99715  0.18181  0.66627  1.0000
  C   C27       1.0  0.87254  0.56765  0.98988  1.0000
  C   C28       1.0  0.12698  0.43161  0.00996  1.0000
  C   C29       1.0  0.91752  0.59293  0.12840  1.0000
  C   C30       1.0  0.08233  0.40686  0.87150  1.0000
  N   N1        1.0  0.86983  0.78587  0.38247  1.0000
  N   N2        1.0  0.13119  0.21498  0.61755  1.0000
  N   N3        1.0  0.66054  0.65967  0.44780  1.0000
  N   N4        1.0  0.34160  0.34164  0.55363  1.0000
  N   N5        1.0  0.87529  0.69606  0.96402  1.0000
  N   N6        1.0  0.12404  0.30296  0.03543  1.0000
  N   N7        1.0  0.94877  0.73992  0.18721  1.0000
  N   N8        1.0  0.05109  0.25997  0.81232  1.0000
  N   N9        1.0  0.69645  0.51115  0.64838  1.0000
  N   N10       1.0  0.30313  0.48802  0.35035  1.0000
  N   N11       1.0  0.72096  0.40685  0.63158  1.0000
  N   N12       1.0  0.27852  0.59214  0.36750  1.0000
  N   N13       1.0  0.73860  0.30269  0.61201  1.0000
  N   N14       1.0  0.26028  0.69582  0.38727  1.0000
  O   O1        1.0  0.74643  0.84058  0.77092  1.0000
  O   O2        1.0  0.25288  0.15837  0.23151  1.0000
  O   O3        1.0  0.49167  0.65366  0.62727  1.0000
  O   O4        1.0  0.50884  0.34745  0.37182  1.0000
  O   O5        1.0  0.06460  0.88611  0.77938  1.0000
  O   O6        1.0  0.93455  0.11400  0.21903  1.0000
  O   O7        1.0  0.05700  0.66595  0.77022  1.0000
  O   O8        1.0  0.94200  0.33461  0.23063  1.0000
