data_image0
_chemical_formula_structural       Mn3H38C52N2O14
_chemical_formula_sum              "Mn3 H38 C52 N2 O14"
_cell_length_a       10.4476
_cell_length_b       10.6293
_cell_length_c       11.9345
_cell_angle_alpha    109.301
_cell_angle_beta     114.956
_cell_angle_gamma    93.4846

_space_group_name_H-M_alt    "P 1"
_space_group_IT_number       1

loop_
  _space_group_symop_operation_xyz
  'x, y, z'

loop_
  _atom_site_type_symbol
  _atom_site_label
  _atom_site_symmetry_multiplicity
  _atom_site_fract_x
  _atom_site_fract_y
  _atom_site_fract_z
  _atom_site_occupancy
  Mn  Mn1       1.0  0.49999  0.50000  0.50000  1.0000
  Mn  Mn2       1.0  0.22602  0.64346  0.54934  1.0000
  Mn  Mn3       1.0  0.77399  0.35654  0.45066  1.0000
  H   H1        1.0  0.03360  0.62448  0.64314  1.0000
  H   H2        1.0  0.96640  0.37552  0.35686  1.0000
  H   H3        1.0  0.88127  0.36964  0.09128  1.0000
  H   H4        1.0  0.11873  0.63038  0.90873  1.0000
  H   H5        1.0  0.80522  0.25591  0.84696  1.0000
  H   H6        1.0  0.19478  0.74410  0.15304  1.0000
  H   H7        1.0  0.99088  0.24280  0.76755  1.0000
  H   H8        1.0  0.00912  0.75720  0.23245  1.0000
  H   H9        1.0  0.32874  0.44336  0.17820  1.0000
  H   H10       1.0  0.67126  0.55664  0.82180  1.0000
  H   H11       1.0  0.17365  0.16763  0.21167  1.0000
  H   H12       1.0  0.82635  0.83236  0.78832  1.0000
  H   H13       1.0  0.02399  0.85158  0.81535  1.0000
  H   H14       1.0  0.97600  0.14842  0.18464  1.0000
  H   H15       1.0  0.27614  0.86155  0.85922  1.0000
  H   H16       1.0  0.72386  0.13845  0.14077  1.0000
  H   H17       1.0  0.47957  0.02788  0.08018  1.0000
  H   H18       1.0  0.52043  0.97211  0.91982  1.0000
  H   H19       1.0  0.15867  0.41426  0.76432  1.0000
  H   H20       1.0  0.84133  0.58575  0.23568  1.0000
  H   H21       1.0  0.43361  0.27262  0.06256  1.0000
  H   H22       1.0  0.56639  0.72738  0.93744  1.0000
  H   H23       1.0  0.61080  0.26428  0.97557  1.0000
  H   H24       1.0  0.38921  0.73572  0.02444  1.0000
  H   H25       1.0  0.56490  0.33611  0.78473  1.0000
  H   H26       1.0  0.43511  0.66389  0.21527  1.0000
  H   H27       1.0  0.34468  0.75949  0.39422  1.0000
  H   H28       1.0  0.65531  0.24050  0.60578  1.0000
  H   H29       1.0  0.37586  0.97560  0.35545  1.0000
  H   H30       1.0  0.62414  0.02440  0.64456  1.0000
  H   H31       1.0  0.27892  0.16828  0.45116  1.0000
  H   H32       1.0  0.72108  0.83172  0.54885  1.0000
  H   H33       1.0  0.14894  0.13638  0.58112  1.0000
  H   H34       1.0  0.85106  0.86362  0.41889  1.0000
  H   H35       1.0  0.12151  0.91255  0.60492  1.0000
  H   H36       1.0  0.87849  0.08744  0.39508  1.0000
  H   H37       1.0  0.95033  0.63817  0.50856  1.0000
  H   H38       1.0  0.04968  0.36183  0.49145  1.0000
  C   C1        1.0  0.15002  0.48290  0.29292  1.0000
  C   C2        1.0  0.84999  0.51710  0.70708  1.0000
  C   C3        1.0  0.10942  0.41080  0.14879  1.0000
  C   C4        1.0  0.89058  0.58920  0.85120  1.0000
  C   C5        1.0  0.96170  0.35936  0.05546  1.0000
  C   C6        1.0  0.03831  0.64065  0.94454  1.0000
  C   C7        1.0  0.91987  0.29763  0.91906  1.0000
  C   C8        1.0  0.08013  0.70238  0.08094  1.0000
  C   C9        1.0  0.02410  0.29000  0.87476  1.0000
  C   C10       1.0  0.97590  0.71001  0.12524  1.0000
  C   C11       1.0  0.17262  0.34239  0.96660  1.0000
  C   C12       1.0  0.82737  0.65761  0.03340  1.0000
  C   C13       1.0  0.21448  0.40075  0.10434  1.0000
  C   C14       1.0  0.78552  0.59925  0.89566  1.0000
  C   C15       1.0  0.45452  0.21959  0.27916  1.0000
  C   C16       1.0  0.54549  0.78041  0.72083  1.0000
  C   C17       1.0  0.33574  0.10830  0.15571  1.0000
  C   C18       1.0  0.66427  0.89170  0.84428  1.0000
  C   C19       1.0  0.19203  0.09795  0.13273  1.0000
  C   C20       1.0  0.80797  0.90204  0.86726  1.0000
  C   C21       1.0  0.07606  0.00505  0.01155  1.0000
  C   C22       1.0  0.92394  0.99495  0.98844  1.0000
  C   C23       1.0  0.10989  0.92265  0.91281  1.0000
  C   C24       1.0  0.89010  0.07735  0.08718  1.0000
  C   C25       1.0  0.25321  0.92845  0.93673  1.0000
  C   C26       1.0  0.74679  0.07155  0.06326  1.0000
  C   C27       1.0  0.36671  0.02052  0.05858  1.0000
  C   C28       1.0  0.63329  0.97947  0.94141  1.0000
  C   C29       1.0  0.34066  0.43408  0.65924  1.0000
  C   C30       1.0  0.65934  0.56591  0.34077  1.0000
  C   C31       1.0  0.35961  0.37954  0.76402  1.0000
  C   C32       1.0  0.64040  0.62046  0.23598  1.0000
  C   C33       1.0  0.25616  0.37843  0.80951  1.0000
  C   C34       1.0  0.74384  0.62157  0.19049  1.0000
  C   C35       1.0  0.28092  0.33916  0.91683  1.0000
  C   C36       1.0  0.71909  0.66084  0.08317  1.0000
  C   C37       1.0  0.41118  0.30094  0.97755  1.0000
  C   C38       1.0  0.58882  0.69906  0.02245  1.0000
  C   C39       1.0  0.51174  0.29707  0.92898  1.0000
  C   C40       1.0  0.48826  0.70294  0.07103  1.0000
  C   C41       1.0  0.48642  0.33584  0.82237  1.0000
  C   C42       1.0  0.51359  0.66416  0.17763  1.0000
  C   C43       1.0  0.30099  0.84526  0.43141  1.0000
  C   C44       1.0  0.69900  0.15474  0.56859  1.0000
  C   C45       1.0  0.31887  0.96560  0.41140  1.0000
  C   C46       1.0  0.68112  0.03439  0.58860  1.0000
  C   C47       1.0  0.26338  0.07272  0.46429  1.0000
  C   C48       1.0  0.73661  0.92728  0.53572  1.0000
  C   C49       1.0  0.19150  0.05489  0.53543  1.0000
  C   C50       1.0  0.80849  0.94510  0.46457  1.0000
  C   C51       1.0  0.17655  0.93101  0.54989  1.0000
  C   C52       1.0  0.82344  0.06899  0.45011  1.0000
  N   N1        1.0  0.22934  0.82702  0.49811  1.0000
  N   N2        1.0  0.77065  0.17297  0.50189  1.0000
  O   O1        1.0  0.05039  0.49944  0.32838  1.0000
  O   O2        1.0  0.94962  0.50057  0.67162  1.0000
  O   O3        1.0  0.28396  0.53554  0.38258  1.0000
  O   O4        1.0  0.71603  0.46447  0.61742  1.0000
  O   O5        1.0  0.42680  0.28570  0.37351  1.0000
  O   O6        1.0  0.57320  0.71430  0.62649  1.0000
  O   O7        1.0  0.57701  0.24412  0.28045  1.0000
  O   O8        1.0  0.42300  0.75587  0.71955  1.0000
  O   O9        1.0  0.44570  0.44768  0.63401  1.0000
  O   O10       1.0  0.55430  0.55232  0.36600  1.0000
  O   O11       1.0  0.22075  0.46829  0.60228  1.0000
  O   O12       1.0  0.77925  0.53170  0.39772  1.0000
  O   O13       1.0  0.04516  0.67851  0.59251  1.0000
  O   O14       1.0  0.95484  0.32149  0.40750  1.0000
