data_image0
_chemical_formula_structural       Zn2H34C52N6O10
_chemical_formula_sum              "Zn2 H34 C52 N6 O10"
_cell_length_a       8.76401
_cell_length_b       9.21619
_cell_length_c       13.9893
_cell_angle_alpha    80.9953
_cell_angle_beta     75.5205
_cell_angle_gamma    73.1194

_space_group_name_H-M_alt    "P 1"
_space_group_IT_number       1

loop_
  _space_group_symop_operation_xyz
  'x, y, z'

loop_
  _atom_site_type_symbol
  _atom_site_label
  _atom_site_symmetry_multiplicity
  _atom_site_fract_x
  _atom_site_fract_y
  _atom_site_fract_z
  _atom_site_occupancy
  Zn  Zn1       1.0  0.28681  0.79681  0.30079  1.0000
  Zn  Zn2       1.0  0.71319  0.20319  0.69921  1.0000
  H   H1        1.0  0.13515  0.43285  0.61038  1.0000
  H   H2        1.0  0.86485  0.56716  0.38962  1.0000
  H   H3        1.0  0.53700  0.50824  0.25454  1.0000
  H   H4        1.0  0.46300  0.49176  0.74546  1.0000
  H   H5        1.0  0.62926  0.22568  0.24588  1.0000
  H   H6        1.0  0.37074  0.77432  0.75412  1.0000
  H   H7        1.0  0.52695  0.05151  0.38176  1.0000
  H   H8        1.0  0.47304  0.94849  0.61824  1.0000
  H   H9        1.0  0.33444  0.15093  0.53795  1.0000
  H   H10       1.0  0.66555  0.84908  0.46205  1.0000
  H   H11       1.0  0.90434  0.64419  0.63704  1.0000
  H   H12       1.0  0.09566  0.35581  0.36297  1.0000
  H   H13       1.0  0.72627  0.87496  0.71710  1.0000
  H   H14       1.0  0.27372  0.12505  0.28290  1.0000
  H   H15       1.0  0.07019  0.11881  0.60160  1.0000
  H   H16       1.0  0.92980  0.88119  0.39840  1.0000
  H   H17       1.0  0.26891  0.89320  0.51754  1.0000
  H   H18       1.0  0.73108  0.10680  0.48246  1.0000
  H   H19       1.0  0.53538  0.09363  0.02947  1.0000
  H   H20       1.0  0.46462  0.90637  0.97052  1.0000
  H   H21       1.0  0.74771  0.23273  0.95160  1.0000
  H   H22       1.0  0.25229  0.76727  0.04840  1.0000
  H   H23       1.0  0.01433  0.01696  0.17822  1.0000
  H   H24       1.0  0.98567  0.98304  0.82178  1.0000
  H   H25       1.0  0.80072  0.87619  0.25626  1.0000
  H   H26       1.0  0.19928  0.12381  0.74374  1.0000
  H   H27       1.0  0.28723  0.25651  0.01857  1.0000
  H   H28       1.0  0.71278  0.74348  0.98143  1.0000
  H   H29       1.0  0.33001  0.44600  0.11387  1.0000
  H   H30       1.0  0.67000  0.55398  0.88614  1.0000
  H   H31       1.0  0.81260  0.58225  0.23534  1.0000
  H   H32       1.0  0.18741  0.41774  0.76466  1.0000
  H   H33       1.0  0.77131  0.39623  0.13925  1.0000
  H   H34       1.0  0.22869  0.60377  0.86075  1.0000
  C   C1        1.0  0.38233  0.48622  0.40079  1.0000
  C   C2        1.0  0.61767  0.51378  0.59921  1.0000
  C   C3        1.0  0.49353  0.43055  0.31528  1.0000
  C   C4        1.0  0.50647  0.56945  0.68473  1.0000
  C   C5        1.0  0.54307  0.27383  0.31096  1.0000
  C   C6        1.0  0.45693  0.72617  0.68904  1.0000
  C   C7        1.0  0.48578  0.17347  0.38986  1.0000
  C   C8        1.0  0.51421  0.82653  0.61015  1.0000
  C   C9        1.0  0.37736  0.22682  0.47590  1.0000
  C   C10       1.0  0.62264  0.77318  0.52410  1.0000
  C   C11       1.0  0.32476  0.38474  0.47929  1.0000
  C   C12       1.0  0.67523  0.61526  0.52071  1.0000
  C   C13       1.0  0.20563  0.62299  0.51370  1.0000
  C   C14       1.0  0.79437  0.37701  0.48630  1.0000
  C   C15       1.0  0.10070  0.75147  0.56798  1.0000
  C   C16       1.0  0.89930  0.24853  0.43203  1.0000
  C   C17       1.0  0.94780  0.74572  0.62765  1.0000
  C   C18       1.0  0.05219  0.25428  0.37235  1.0000
  C   C19       1.0  0.84678  0.87486  0.67175  1.0000
  C   C20       1.0  0.15322  0.12514  0.32825  1.0000
  C   C21       1.0  0.04102  0.01026  0.60658  1.0000
  C   C22       1.0  0.95898  0.98974  0.39342  1.0000
  C   C23       1.0  0.14898  0.88604  0.56039  1.0000
  C   C24       1.0  0.85102  0.11397  0.43961  1.0000
  C   C25       1.0  0.51646  0.90816  0.19703  1.0000
  C   C26       1.0  0.48354  0.09184  0.80297  1.0000
  C   C27       1.0  0.65165  0.98022  0.14934  1.0000
  C   C28       1.0  0.34835  0.01978  0.85065  1.0000
  C   C29       1.0  0.63884  0.07908  0.06295  1.0000
  C   C30       1.0  0.36117  0.92092  0.93704  1.0000
  C   C31       1.0  0.75641  0.15783  0.01963  1.0000
  C   C32       1.0  0.24359  0.84217  0.98037  1.0000
  C   C33       1.0  0.88740  0.13682  0.06441  1.0000
  C   C34       1.0  0.11260  0.86318  0.93559  1.0000
  C   C35       1.0  0.90594  0.03493  0.14864  1.0000
  C   C36       1.0  0.09406  0.96508  0.85136  1.0000
  C   C37       1.0  0.78790  0.95664  0.19100  1.0000
  C   C38       1.0  0.21209  0.04335  0.80900  1.0000
  C   C39       1.0  0.02768  0.31413  0.07582  1.0000
  C   C40       1.0  0.97232  0.68587  0.92418  1.0000
  C   C41       1.0  0.18524  0.32928  0.06611  1.0000
  C   C42       1.0  0.81477  0.67072  0.93389  1.0000
  C   C43       1.0  0.20787  0.43441  0.11905  1.0000
  C   C44       1.0  0.79214  0.56558  0.88095  1.0000
  C   C45       1.0  0.07514  0.52345  0.18259  1.0000
  C   C46       1.0  0.92487  0.47654  0.81742  1.0000
  C   C47       1.0  0.91742  0.50920  0.18947  1.0000
  C   C48       1.0  0.08259  0.49078  0.81053  1.0000
  C   C49       1.0  0.89337  0.40583  0.13614  1.0000
  C   C50       1.0  0.10664  0.59417  0.86385  1.0000
  C   C51       1.0  0.10081  0.62688  0.24541  1.0000
  C   C52       1.0  0.89920  0.37310  0.75460  1.0000
  N   N1        1.0  0.30587  0.63457  0.42437  1.0000
  N   N2        1.0  0.69413  0.36544  0.57564  1.0000
  N   N3        1.0  0.21314  0.47505  0.54866  1.0000
  N   N4        1.0  0.78686  0.52495  0.45134  1.0000
  N   N5        1.0  0.89010  0.00660  0.65921  1.0000
  N   N6        1.0  0.10989  0.99340  0.34079  1.0000
  O   O1        1.0  0.51767  0.83040  0.28294  1.0000
  O   O2        1.0  0.48232  0.16961  0.71705  1.0000
  O   O3        1.0  0.39740  0.92804  0.15610  1.0000
  O   O4        1.0  0.60260  0.07198  0.84389  1.0000
  O   O5        1.0  0.00829  0.21179  0.02093  1.0000
  O   O6        1.0  0.99172  0.78821  0.97907  1.0000
  O   O7        1.0  0.99650  0.66252  0.32518  1.0000
  O   O8        1.0  0.00351  0.33747  0.67482  1.0000
  O   O9        1.0  0.23128  0.67350  0.21582  1.0000
  O   O10       1.0  0.76873  0.32650  0.78418  1.0000
