data_image0
_chemical_formula_structural       Zn2H38C52N6O12
_chemical_formula_sum              "Zn2 H38 C52 N6 O12"
_cell_length_a       10.2279
_cell_length_b       10.8642
_cell_length_c       12.8017
_cell_angle_alpha    79.3978
_cell_angle_beta     63.1172
_cell_angle_gamma    60.81

_space_group_name_H-M_alt    "P 1"
_space_group_IT_number       1

loop_
  _space_group_symop_operation_xyz
  'x, y, z'

loop_
  _atom_site_type_symbol
  _atom_site_label
  _atom_site_symmetry_multiplicity
  _atom_site_fract_x
  _atom_site_fract_y
  _atom_site_fract_z
  _atom_site_occupancy
  Zn  Zn1       1.0  0.50513  0.80486  0.39011  1.0000
  Zn  Zn2       1.0  0.49487  0.19515  0.60988  1.0000
  H   H1        1.0  0.16994  0.65210  0.53623  1.0000
  H   H2        1.0  0.83006  0.34792  0.46377  1.0000
  H   H3        1.0  0.85524  0.60645  0.22952  1.0000
  H   H4        1.0  0.14476  0.39356  0.77049  1.0000
  H   H5        1.0  0.13990  0.51259  0.21787  1.0000
  H   H6        1.0  0.86010  0.48741  0.78212  1.0000
  H   H7        1.0  0.17446  0.58163  0.37596  1.0000
  H   H8        1.0  0.82556  0.41838  0.62402  1.0000
  H   H9        1.0  0.64199  0.81548  0.54751  1.0000
  H   H10       1.0  0.35802  0.18453  0.45248  1.0000
  H   H11       1.0  0.59062  0.87827  0.92222  1.0000
  H   H12       1.0  0.40938  0.12172  0.07779  1.0000
  H   H13       1.0  0.73863  0.82174  0.04862  1.0000
  H   H14       1.0  0.26136  0.17823  0.95138  1.0000
  H   H15       1.0  0.04502  0.70320  0.96291  1.0000
  H   H16       1.0  0.95497  0.29678  0.03711  1.0000
  H   H17       1.0  0.21396  0.64096  0.75043  1.0000
  H   H18       1.0  0.78601  0.35904  0.24958  1.0000
  H   H19       1.0  0.95064  0.02791  0.60321  1.0000
  H   H20       1.0  0.04937  0.97209  0.39678  1.0000
  H   H21       1.0  0.67987  0.15322  0.77378  1.0000
  H   H22       1.0  0.32013  0.84679  0.22621  1.0000
  H   H23       1.0  0.93423  0.13277  0.97288  1.0000
  H   H24       1.0  0.06577  0.86723  0.02712  1.0000
  H   H25       1.0  0.20316  0.00957  0.80371  1.0000
  H   H26       1.0  0.79684  0.99041  0.19629  1.0000
  H   H27       1.0  0.72416  0.41996  0.92808  1.0000
  H   H28       1.0  0.27584  0.58004  0.07193  1.0000
  H   H29       1.0  0.64754  0.58863  0.07963  1.0000
  H   H30       1.0  0.35247  0.41136  0.92038  1.0000
  H   H31       1.0  0.41556  0.36770  0.35005  1.0000
  H   H32       1.0  0.58444  0.63230  0.64995  1.0000
  H   H33       1.0  0.49435  0.19833  0.19833  1.0000
  H   H34       1.0  0.50563  0.80168  0.80166  1.0000
  H   H35       1.0  0.57046  0.01056  0.33075  1.0000
  H   H36       1.0  0.42954  0.98947  0.66925  1.0000
  H   H37       1.0  0.40988  0.05816  0.30907  1.0000
  H   H38       1.0  0.59012  0.94186  0.69092  1.0000
  C   C1        1.0  0.87520  0.63369  0.29701  1.0000
  C   C2        1.0  0.12481  0.36631  0.70298  1.0000
  C   C3        1.0  0.03255  0.58358  0.29092  1.0000
  C   C4        1.0  0.96745  0.41643  0.70907  1.0000
  C   C5        1.0  0.05172  0.61992  0.38004  1.0000
  C   C6        1.0  0.94829  0.38010  0.61995  1.0000
  C   C7        1.0  0.90986  0.70530  0.47593  1.0000
  C   C8        1.0  0.09014  0.29471  0.52406  1.0000
  C   C9        1.0  0.75620  0.75053  0.47557  1.0000
  C   C10       1.0  0.24380  0.24948  0.52442  1.0000
  C   C11       1.0  0.91067  0.73877  0.58088  1.0000
  C   C12       1.0  0.08933  0.26124  0.41911  1.0000
  C   C13       1.0  0.82072  0.78959  0.76496  1.0000
  C   C14       1.0  0.17927  0.21040  0.23505  1.0000
  C   C15       1.0  0.72510  0.82796  0.88495  1.0000
  C   C16       1.0  0.27488  0.17204  0.11506  1.0000
  C   C17       1.0  0.80889  0.79553  0.95456  1.0000
  C   C18       1.0  0.19109  0.20444  0.04546  1.0000
  C   C19       1.0  0.98327  0.72871  0.90566  1.0000
  C   C20       1.0  0.01671  0.27127  0.09435  1.0000
  C   C21       1.0  0.07991  0.69206  0.78644  1.0000
  C   C22       1.0  0.92008  0.30794  0.21356  1.0000
  C   C23       1.0  0.99618  0.72182  0.71674  1.0000
  C   C24       1.0  0.00381  0.27818  0.28327  1.0000
  C   C25       1.0  0.25798  0.93667  0.59225  1.0000
  C   C26       1.0  0.74204  0.06332  0.40775  1.0000
  C   C27       1.0  0.09539  0.01168  0.69161  1.0000
  C   C28       1.0  0.90462  0.98831  0.30839  1.0000
  C   C29       1.0  0.94728  0.05144  0.68383  1.0000
  C   C30       1.0  0.05272  0.94856  0.31617  1.0000
  C   C31       1.0  0.79601  0.12129  0.77821  1.0000
  C   C32       1.0  0.20399  0.87872  0.22179  1.0000
  C   C33       1.0  0.79259  0.15086  0.88144  1.0000
  C   C34       1.0  0.20741  0.84915  0.11856  1.0000
  C   C35       1.0  0.93853  0.11193  0.89108  1.0000
  C   C36       1.0  0.06147  0.88806  0.10892  1.0000
  C   C37       1.0  0.08887  0.04269  0.79608  1.0000
  C   C38       1.0  0.91113  0.95730  0.20393  1.0000
  C   C39       1.0  0.61309  0.30023  0.05564  1.0000
  C   C40       1.0  0.38691  0.69978  0.94435  1.0000
  C   C41       1.0  0.65852  0.40867  0.02087  1.0000
  C   C42       1.0  0.34149  0.59133  0.97913  1.0000
  C   C43       1.0  0.61437  0.50280  0.10536  1.0000
  C   C44       1.0  0.38563  0.49719  0.89464  1.0000
  C   C45       1.0  0.52355  0.49017  0.22451  1.0000
  C   C46       1.0  0.47646  0.50981  0.77550  1.0000
  C   C47       1.0  0.48108  0.37982  0.25733  1.0000
  C   C48       1.0  0.51892  0.62018  0.74267  1.0000
  C   C49       1.0  0.52624  0.28442  0.17355  1.0000
  C   C50       1.0  0.47375  0.71558  0.82646  1.0000
  C   C51       1.0  0.47443  0.59008  0.31731  1.0000
  C   C52       1.0  0.52557  0.40991  0.68270  1.0000
  N   N1        1.0  0.73846  0.71658  0.38897  1.0000
  N   N2        1.0  0.26155  0.28344  0.61102  1.0000
  N   N3        1.0  0.77163  0.80119  0.67785  1.0000
  N   N4        1.0  0.22836  0.19882  0.32214  1.0000
  N   N5        1.0  0.04898  0.69260  0.59967  1.0000
  N   N6        1.0  0.95102  0.30741  0.40033  1.0000
  O   O1        1.0  0.52162  0.97476  0.29764  1.0000
  O   O2        1.0  0.47836  0.02526  0.70236  1.0000
  O   O3        1.0  0.26424  0.89323  0.50234  1.0000
  O   O4        1.0  0.73579  0.10674  0.49766  1.0000
  O   O5        1.0  0.38964  0.91555  0.59610  1.0000
  O   O6        1.0  0.61036  0.08445  0.40390  1.0000
  O   O7        1.0  0.64009  0.21141  0.97509  1.0000
  O   O8        1.0  0.35992  0.78860  0.02490  1.0000
  O   O9        1.0  0.37129  0.59085  0.41959  1.0000
  O   O10       1.0  0.62869  0.40915  0.58041  1.0000
  O   O11       1.0  0.54734  0.66967  0.28226  1.0000
  O   O12       1.0  0.45267  0.33032  0.71775  1.0000
