data_image0
_chemical_formula_structural       Mg2Zn2H28C32N4O32
_chemical_formula_sum              "Mg2 Zn2 H28 C32 N4 O32"
_cell_length_a       7.00095
_cell_length_b       7.00098
_cell_length_c       20.7947
_cell_angle_alpha    88.7708
_cell_angle_beta     88.7705
_cell_angle_gamma    87.5285

_space_group_name_H-M_alt    "P 1"
_space_group_IT_number       1

loop_
  _space_group_symop_operation_xyz
  'x, y, z'

loop_
  _atom_site_type_symbol
  _atom_site_label
  _atom_site_symmetry_multiplicity
  _atom_site_fract_x
  _atom_site_fract_y
  _atom_site_fract_z
  _atom_site_occupancy
  Mg  Mg1       1.0  0.18692  0.81308  0.25000  1.0000
  Mg  Mg2       1.0  0.81308  0.18692  0.75000  1.0000
  Zn  Zn1       1.0  0.63361  0.36639  0.25000  1.0000
  Zn  Zn2       1.0  0.36639  0.63361  0.75000  1.0000
  H   H1        1.0  0.77162  0.29667  0.47524  1.0000
  H   H2        1.0  0.70334  0.22838  0.02475  1.0000
  H   H3        1.0  0.22838  0.70333  0.52475  1.0000
  H   H4        1.0  0.29666  0.77162  0.97525  1.0000
  H   H5        1.0  0.99152  0.17392  0.56075  1.0000
  H   H6        1.0  0.82608  0.00847  0.93925  1.0000
  H   H7        1.0  0.00848  0.82607  0.43925  1.0000
  H   H8        1.0  0.17392  0.99152  0.06075  1.0000
  H   H9        1.0  0.47482  0.28556  0.43541  1.0000
  H   H10       1.0  0.71445  0.52518  0.06459  1.0000
  H   H11       1.0  0.52518  0.71444  0.56459  1.0000
  H   H12       1.0  0.28555  0.47482  0.93541  1.0000
  H   H13       1.0  0.37775  0.06999  0.31983  1.0000
  H   H14       1.0  0.93001  0.62225  0.18017  1.0000
  H   H15       1.0  0.62225  0.93001  0.68017  1.0000
  H   H16       1.0  0.06998  0.37775  0.81983  1.0000
  H   H17       1.0  0.37891  0.87834  0.36183  1.0000
  H   H18       1.0  0.12166  0.62110  0.13817  1.0000
  H   H19       1.0  0.62109  0.12166  0.63817  1.0000
  H   H20       1.0  0.87834  0.37891  0.86183  1.0000
  H   H21       1.0  0.85033  0.77712  0.31940  1.0000
  H   H22       1.0  0.22288  0.14967  0.18060  1.0000
  H   H23       1.0  0.14967  0.22288  0.68060  1.0000
  H   H24       1.0  0.77712  0.85033  0.81940  1.0000
  H   H25       1.0  0.88587  0.99912  0.30619  1.0000
  H   H26       1.0  0.00088  0.11413  0.19381  1.0000
  H   H27       1.0  0.11413  0.00088  0.69381  1.0000
  H   H28       1.0  0.99912  0.88588  0.80619  1.0000
  C   C1        1.0  0.28220  0.41722  0.33179  1.0000
  C   C2        1.0  0.58278  0.71781  0.16821  1.0000
  C   C3        1.0  0.71781  0.58278  0.66821  1.0000
  C   C4        1.0  0.41722  0.28219  0.83179  1.0000
  C   C5        1.0  0.19773  0.35023  0.39499  1.0000
  C   C6        1.0  0.64977  0.80227  0.10501  1.0000
  C   C7        1.0  0.80228  0.64977  0.60501  1.0000
  C   C8        1.0  0.35023  0.19773  0.89499  1.0000
  C   C9        1.0  0.99884  0.35318  0.40640  1.0000
  C   C10       1.0  0.64682  0.00116  0.09360  1.0000
  C   C11       1.0  0.00116  0.64682  0.59360  1.0000
  C   C12       1.0  0.35317  0.99884  0.90640  1.0000
  C   C13       1.0  0.92532  0.29202  0.46623  1.0000
  C   C14       1.0  0.70798  0.07468  0.03376  1.0000
  C   C15       1.0  0.07468  0.70797  0.53377  1.0000
  C   C16       1.0  0.29202  0.92533  0.96624  1.0000
  C   C17       1.0  0.04638  0.22369  0.51428  1.0000
  C   C18       1.0  0.77631  0.95362  0.98571  1.0000
  C   C19       1.0  0.95362  0.77631  0.48571  1.0000
  C   C20       1.0  0.22369  0.04638  0.01429  1.0000
  C   C21       1.0  0.24341  0.22468  0.50224  1.0000
  C   C22       1.0  0.77532  0.75658  0.99776  1.0000
  C   C23       1.0  0.75659  0.77532  0.49776  1.0000
  C   C24       1.0  0.22468  0.24342  0.00224  1.0000
  C   C25       1.0  0.32086  0.28844  0.44378  1.0000
  C   C26       1.0  0.71156  0.67914  0.05622  1.0000
  C   C27       1.0  0.67914  0.71156  0.55621  1.0000
  C   C28       1.0  0.28844  0.32086  0.94379  1.0000
  C   C29       1.0  0.86056  0.41120  0.35447  1.0000
  C   C30       1.0  0.58880  0.13944  0.14553  1.0000
  C   C31       1.0  0.13944  0.58880  0.64553  1.0000
  C   C32       1.0  0.41120  0.86056  0.85447  1.0000
  N   N1        1.0  0.37101  0.15082  0.55179  1.0000
  N   N2        1.0  0.84918  0.62899  0.94821  1.0000
  N   N3        1.0  0.62899  0.84918  0.44821  1.0000
  N   N4        1.0  0.15082  0.37101  0.05179  1.0000
  O   O1        1.0  0.42267  0.30976  0.31002  1.0000
  O   O2        1.0  0.69024  0.57734  0.18999  1.0000
  O   O3        1.0  0.57733  0.69025  0.68998  1.0000
  O   O4        1.0  0.30976  0.42267  0.81002  1.0000
  O   O5        1.0  0.21658  0.56777  0.30625  1.0000
  O   O6        1.0  0.43223  0.78343  0.19375  1.0000
  O   O7        1.0  0.78342  0.43224  0.69375  1.0000
  O   O8        1.0  0.56776  0.21657  0.80625  1.0000
  O   O9        1.0  0.84841  0.28943  0.30944  1.0000
  O   O10       1.0  0.71057  0.15159  0.19056  1.0000
  O   O11       1.0  0.15159  0.71057  0.69056  1.0000
  O   O12       1.0  0.28943  0.84841  0.80944  1.0000
  O   O13       1.0  0.76251  0.56483  0.35845  1.0000
  O   O14       1.0  0.43518  0.23749  0.14155  1.0000
  O   O15       1.0  0.23750  0.43517  0.64155  1.0000
  O   O16       1.0  0.56482  0.76251  0.85845  1.0000
  O   O17       1.0  0.30917  0.03386  0.59177  1.0000
  O   O18       1.0  0.96614  0.69082  0.90822  1.0000
  O   O19       1.0  0.69083  0.96614  0.40823  1.0000
  O   O20       1.0  0.03386  0.30917  0.09177  1.0000
  O   O21       1.0  0.53906  0.20570  0.55157  1.0000
  O   O22       1.0  0.79430  0.46093  0.94843  1.0000
  O   O23       1.0  0.46094  0.79430  0.44843  1.0000
  O   O24       1.0  0.20569  0.53906  0.05157  1.0000
  O   O25       1.0  0.33108  0.93856  0.32210  1.0000
  O   O26       1.0  0.06144  0.66892  0.17790  1.0000
  O   O27       1.0  0.66892  0.06144  0.67790  1.0000
  O   O28       1.0  0.93855  0.33108  0.82210  1.0000
  O   O29       1.0  0.92042  0.86901  0.29239  1.0000
  O   O30       1.0  0.13099  0.07958  0.20761  1.0000
  O   O31       1.0  0.07958  0.13100  0.70761  1.0000
  O   O32       1.0  0.86901  0.92042  0.79239  1.0000
