data_image0
_chemical_formula_structural       Cd2H38C52N6O12
_chemical_formula_sum              "Cd2 H38 C52 N6 O12"
_cell_length_a       10.05
_cell_length_b       10.5401
_cell_length_c       13.411
_cell_angle_alpha    80.2773
_cell_angle_beta     64.9743
_cell_angle_gamma    61.6501

_space_group_name_H-M_alt    "P 1"
_space_group_IT_number       1

loop_
  _space_group_symop_operation_xyz
  'x, y, z'

loop_
  _atom_site_type_symbol
  _atom_site_label
  _atom_site_symmetry_multiplicity
  _atom_site_fract_x
  _atom_site_fract_y
  _atom_site_fract_z
  _atom_site_occupancy
  Cd  Cd1       1.0  0.50987  0.78730  0.89046  1.0000
  Cd  Cd2       1.0  0.49012  0.21271  0.10953  1.0000
  H   H1        1.0  0.15471  0.65434  0.08182  1.0000
  H   H2        1.0  0.84527  0.34567  0.91818  1.0000
  H   H3        1.0  0.90533  0.61358  0.73709  1.0000
  H   H4        1.0  0.09469  0.38642  0.26291  1.0000
  H   H5        1.0  0.17779  0.54486  0.74473  1.0000
  H   H6        1.0  0.82222  0.45516  0.25528  1.0000
  H   H7        1.0  0.18445  0.60988  0.91028  1.0000
  H   H8        1.0  0.81553  0.39015  0.08973  1.0000
  H   H9        1.0  0.65353  0.77816  0.05814  1.0000
  H   H10       1.0  0.34645  0.22187  0.94185  1.0000
  H   H11       1.0  0.56257  0.87591  0.42199  1.0000
  H   H12       1.0  0.43742  0.12412  0.57802  1.0000
  H   H13       1.0  0.69462  0.83060  0.55331  1.0000
  H   H14       1.0  0.30537  0.16941  0.44670  1.0000
  H   H15       1.0  0.99794  0.72079  0.48859  1.0000
  H   H16       1.0  0.00206  0.27918  0.51141  1.0000
  H   H17       1.0  0.17996  0.65405  0.29168  1.0000
  H   H18       1.0  0.82004  0.34592  0.70832  1.0000
  H   H19       1.0  0.92741  0.02884  0.10912  1.0000
  H   H20       1.0  0.07259  0.97119  0.89087  1.0000
  H   H21       1.0  0.67349  0.14212  0.28032  1.0000
  H   H22       1.0  0.32652  0.85787  0.71967  1.0000
  H   H23       1.0  0.97153  0.11107  0.44643  1.0000
  H   H24       1.0  0.02849  0.88888  0.55358  1.0000
  H   H25       1.0  0.22316  0.99744  0.27843  1.0000
  H   H26       1.0  0.77685  0.00255  0.72156  1.0000
  H   H27       1.0  0.74314  0.40596  0.40765  1.0000
  H   H28       1.0  0.25690  0.59399  0.59235  1.0000
  H   H29       1.0  0.67954  0.58744  0.53998  1.0000
  H   H30       1.0  0.32048  0.41253  0.46003  1.0000
  H   H31       1.0  0.47420  0.36213  0.81043  1.0000
  H   H32       1.0  0.52581  0.63785  0.18958  1.0000
  H   H33       1.0  0.54093  0.17909  0.67772  1.0000
  H   H34       1.0  0.45908  0.82089  0.32229  1.0000
  H   H35       1.0  0.41607  0.07492  0.81131  1.0000
  H   H36       1.0  0.58391  0.92510  0.18869  1.0000
  H   H37       1.0  0.56302  0.03112  0.85045  1.0000
  H   H38       1.0  0.43697  0.96891  0.14954  1.0000
  C   C1        1.0  0.91306  0.63657  0.81026  1.0000
  C   C2        1.0  0.08694  0.36344  0.18974  1.0000
  C   C3        1.0  0.06295  0.60093  0.81451  1.0000
  C   C4        1.0  0.93705  0.39908  0.18549  1.0000
  C   C5        1.0  0.06637  0.63541  0.90888  1.0000
  C   C6        1.0  0.93362  0.36461  0.09113  1.0000
  C   C7        1.0  0.91702  0.70165  0.99979  1.0000
  C   C8        1.0  0.08295  0.29837  0.00021  1.0000
  C   C9        1.0  0.77204  0.73016  0.98949  1.0000
  C   C10       1.0  0.22794  0.26985  0.01051  1.0000
  C   C11       1.0  0.90367  0.73281  0.10639  1.0000
  C   C12       1.0  0.09631  0.26721  0.89362  1.0000
  C   C13       1.0  0.79888  0.78426  0.28215  1.0000
  C   C14       1.0  0.20111  0.21576  0.71785  1.0000
  C   C15       1.0  0.69590  0.82723  0.39311  1.0000
  C   C16       1.0  0.30408  0.17280  0.60689  1.0000
  C   C17       1.0  0.77056  0.80294  0.46589  1.0000
  C   C18       1.0  0.22943  0.19707  0.53411  1.0000
  C   C19       1.0  0.94332  0.74009  0.42917  1.0000
  C   C20       1.0  0.05668  0.25990  0.57083  1.0000
  C   C21       1.0  0.04736  0.70007  0.31897  1.0000
  C   C22       1.0  0.95264  0.29992  0.68103  1.0000
  C   C23       1.0  0.97258  0.72171  0.24646  1.0000
  C   C24       1.0  0.02741  0.27829  0.75355  1.0000
  C   C25       1.0  0.24372  0.92818  0.08331  1.0000
  C   C26       1.0  0.75628  0.07183  0.91667  1.0000
  C   C27       1.0  0.09275  0.00406  0.18244  1.0000
  C   C28       1.0  0.90725  0.99595  0.81755  1.0000
  C   C29       1.0  0.93701  0.04621  0.18321  1.0000
  C   C30       1.0  0.06299  0.95380  0.81679  1.0000
  C   C31       1.0  0.79531  0.11006  0.27754  1.0000
  C   C32       1.0  0.20470  0.88994  0.72245  1.0000
  C   C33       1.0  0.80933  0.13252  0.37166  1.0000
  C   C34       1.0  0.19067  0.86746  0.62834  1.0000
  C   C35       1.0  0.96282  0.09392  0.37199  1.0000
  C   C36       1.0  0.03719  0.90605  0.62801  1.0000
  C   C37       1.0  0.10362  0.02980  0.27744  1.0000
  C   C38       1.0  0.89639  0.97018  0.72255  1.0000
  C   C39       1.0  0.64438  0.28328  0.53577  1.0000
  C   C40       1.0  0.35564  0.71670  0.46424  1.0000
  C   C41       1.0  0.68538  0.39685  0.49594  1.0000
  C   C42       1.0  0.31465  0.60313  0.50407  1.0000
  C   C43       1.0  0.64838  0.49833  0.56971  1.0000
  C   C44       1.0  0.35163  0.50165  0.43030  1.0000
  C   C45       1.0  0.56974  0.48776  0.68355  1.0000
  C   C46       1.0  0.43027  0.51223  0.31645  1.0000
  C   C47       1.0  0.52969  0.37300  0.72199  1.0000
  C   C48       1.0  0.47032  0.62699  0.27802  1.0000
  C   C49       1.0  0.56757  0.27042  0.64862  1.0000
  C   C50       1.0  0.43244  0.72957  0.35139  1.0000
  C   C51       1.0  0.54126  0.59075  0.76272  1.0000
  C   C52       1.0  0.45874  0.40925  0.23728  1.0000
  N   N1        1.0  0.76926  0.70023  0.89746  1.0000
  N   N2        1.0  0.23074  0.29977  0.10254  1.0000
  N   N3        1.0  0.03462  0.69162  0.13467  1.0000
  N   N4        1.0  0.96537  0.30839  0.86533  1.0000
  N   N5        1.0  0.76063  0.79064  0.19314  1.0000
  N   N6        1.0  0.23935  0.20939  0.80686  1.0000
  O   O1        1.0  0.52386  0.99280  0.81046  1.0000
  O   O2        1.0  0.47612  0.00722  0.18954  1.0000
  O   O3        1.0  0.23036  0.89383  0.00230  1.0000
  O   O4        1.0  0.76963  0.10619  0.99769  1.0000
  O   O5        1.0  0.38611  0.89559  0.08033  1.0000
  O   O6        1.0  0.61390  0.10441  0.91964  1.0000
  O   O7        1.0  0.66696  0.18541  0.46617  1.0000
  O   O8        1.0  0.33306  0.81456  0.53384  1.0000
  O   O9        1.0  0.46740  0.58246  0.86598  1.0000
  O   O10       1.0  0.53263  0.41751  0.13403  1.0000
  O   O11       1.0  0.59701  0.68394  0.72308  1.0000
  O   O12       1.0  0.40295  0.31608  0.27692  1.0000
