data_image0
_chemical_formula_structural       Na4H64C48N4
_chemical_formula_sum              "Na4 H64 C48 N4"
_cell_length_a       8.81556
_cell_length_b       11.2803
_cell_length_c       11.4045
_cell_angle_alpha    90.0001
_cell_angle_beta     102.733
_cell_angle_gamma    89.9999

_space_group_name_H-M_alt    "P 1"
_space_group_IT_number       1

loop_
  _space_group_symop_operation_xyz
  'x, y, z'

loop_
  _atom_site_type_symbol
  _atom_site_label
  _atom_site_symmetry_multiplicity
  _atom_site_fract_x
  _atom_site_fract_y
  _atom_site_fract_z
  _atom_site_occupancy
  Na  Na1       1.0  0.13709  0.07884  0.47479  1.0000
  Na  Na2       1.0  0.36291  0.57884  0.52521  1.0000
  Na  Na3       1.0  0.86291  0.92116  0.52521  1.0000
  Na  Na4       1.0  0.63709  0.42116  0.47479  1.0000
  H   H1        1.0  0.00041  0.23319  0.90714  1.0000
  H   H2        1.0  0.49959  0.73319  0.09286  1.0000
  H   H3        1.0  0.99959  0.76681  0.09286  1.0000
  H   H4        1.0  0.50041  0.26681  0.90714  1.0000
  H   H5        1.0  0.17496  0.16888  0.88270  1.0000
  H   H6        1.0  0.32504  0.66888  0.11730  1.0000
  H   H7        1.0  0.82504  0.83112  0.11730  1.0000
  H   H8        1.0  0.67496  0.33112  0.88270  1.0000
  H   H9        1.0  0.05776  0.08962  0.96381  1.0000
  H   H10       1.0  0.44224  0.58962  0.03619  1.0000
  H   H11       1.0  0.94224  0.91038  0.03619  1.0000
  H   H12       1.0  0.55776  0.41038  0.96381  1.0000
  H   H13       1.0  0.02790  0.01662  0.75037  1.0000
  H   H14       1.0  0.47209  0.51662  0.24963  1.0000
  H   H15       1.0  0.97209  0.98338  0.24963  1.0000
  H   H16       1.0  0.52791  0.48338  0.75037  1.0000
  H   H17       1.0  0.80440  0.98137  0.84153  1.0000
  H   H18       1.0  0.69560  0.48137  0.15847  1.0000
  H   H19       1.0  0.19560  0.01863  0.15847  1.0000
  H   H20       1.0  0.30440  0.51863  0.84153  1.0000
  H   H21       1.0  0.72820  0.03418  0.69282  1.0000
  H   H22       1.0  0.77180  0.53418  0.30718  1.0000
  H   H23       1.0  0.27180  0.96582  0.30718  1.0000
  H   H24       1.0  0.22820  0.46582  0.69282  1.0000
  H   H25       1.0  0.74196  0.13133  0.81621  1.0000
  H   H26       1.0  0.75804  0.63133  0.18379  1.0000
  H   H27       1.0  0.25804  0.86867  0.18379  1.0000
  H   H28       1.0  0.24196  0.36867  0.81621  1.0000
  H   H29       1.0  0.87997  0.25924  0.68061  1.0000
  H   H30       1.0  0.62003  0.75924  0.31939  1.0000
  H   H31       1.0  0.12003  0.74076  0.31938  1.0000
  H   H32       1.0  0.37997  0.24076  0.68061  1.0000
  H   H33       1.0  0.07270  0.22424  0.67449  1.0000
  H   H34       1.0  0.42730  0.72424  0.32551  1.0000
  H   H35       1.0  0.92730  0.77576  0.32551  1.0000
  H   H36       1.0  0.57270  0.27576  0.67449  1.0000
  H   H37       1.0  0.97073  0.37277  0.55178  1.0000
  H   H38       1.0  0.52927  0.87277  0.44822  1.0000
  H   H39       1.0  0.02927  0.62723  0.44822  1.0000
  H   H40       1.0  0.47073  0.12723  0.55178  1.0000
  H   H41       1.0  0.88713  0.38783  0.38852  1.0000
  H   H42       1.0  0.61287  0.88783  0.61148  1.0000
  H   H43       1.0  0.11287  0.61217  0.61148  1.0000
  H   H44       1.0  0.38713  0.11217  0.38852  1.0000
  H   H45       1.0  0.94066  0.27712  0.24545  1.0000
  H   H46       1.0  0.55934  0.77711  0.75455  1.0000
  H   H47       1.0  0.05934  0.72289  0.75455  1.0000
  H   H48       1.0  0.44066  0.22288  0.24545  1.0000
  H   H49       1.0  0.82827  0.19800  0.04269  1.0000
  H   H50       1.0  0.67173  0.69800  0.95731  1.0000
  H   H51       1.0  0.17173  0.80200  0.95731  1.0000
  H   H52       1.0  0.32827  0.30200  0.04269  1.0000
  H   H53       1.0  0.62735  0.03937  0.01496  1.0000
  H   H54       1.0  0.87265  0.53937  0.98505  1.0000
  H   H55       1.0  0.37265  0.96063  0.98504  1.0000
  H   H56       1.0  0.12735  0.46063  0.01495  1.0000
  H   H57       1.0  0.53630  0.96262  0.19360  1.0000
  H   H58       1.0  0.96370  0.46262  0.80640  1.0000
  H   H59       1.0  0.46370  0.03738  0.80640  1.0000
  H   H60       1.0  0.03630  0.53738  0.19360  1.0000
  H   H61       1.0  0.64537  0.04630  0.39608  1.0000
  H   H62       1.0  0.85463  0.54630  0.60392  1.0000
  H   H63       1.0  0.35463  0.95370  0.60392  1.0000
  H   H64       1.0  0.14537  0.45370  0.39608  1.0000
  C   C1        1.0  0.05426  0.14956  0.88730  1.0000
  C   C2        1.0  0.44574  0.64956  0.11270  1.0000
  C   C3        1.0  0.94574  0.85044  0.11270  1.0000
  C   C4        1.0  0.55426  0.35044  0.88730  1.0000
  C   C5        1.0  0.96361  0.09562  0.76973  1.0000
  C   C6        1.0  0.53640  0.59561  0.23027  1.0000
  C   C7        1.0  0.03639  0.90439  0.23027  1.0000
  C   C8        1.0  0.46360  0.40438  0.76973  1.0000
  C   C9        1.0  0.80081  0.05771  0.78098  1.0000
  C   C10       1.0  0.69918  0.55771  0.21903  1.0000
  C   C11       1.0  0.19919  0.94229  0.21903  1.0000
  C   C12       1.0  0.30081  0.44229  0.78097  1.0000
  C   C13       1.0  0.95556  0.18366  0.66642  1.0000
  C   C14       1.0  0.54444  0.68366  0.33358  1.0000
  C   C15       1.0  0.04444  0.81634  0.33358  1.0000
  C   C16       1.0  0.45556  0.31634  0.66642  1.0000
  C   C17       1.0  0.87130  0.21319  0.45899  1.0000
  C   C18       1.0  0.62870  0.71319  0.54101  1.0000
  C   C19       1.0  0.12870  0.78681  0.54101  1.0000
  C   C20       1.0  0.37130  0.28681  0.45899  1.0000
  C   C21       1.0  0.90174  0.33439  0.46962  1.0000
  C   C22       1.0  0.59826  0.83439  0.53038  1.0000
  C   C23       1.0  0.09826  0.66561  0.53038  1.0000
  C   C24       1.0  0.40174  0.16561  0.46962  1.0000
  C   C25       1.0  0.80201  0.16617  0.33563  1.0000
  C   C26       1.0  0.69799  0.66617  0.66437  1.0000
  C   C27       1.0  0.19799  0.83383  0.66437  1.0000
  C   C28       1.0  0.30201  0.33383  0.33563  1.0000
  C   C29       1.0  0.85049  0.20930  0.23412  1.0000
  C   C30       1.0  0.64951  0.70930  0.76588  1.0000
  C   C31       1.0  0.14951  0.79070  0.76588  1.0000
  C   C32       1.0  0.35049  0.29070  0.23412  1.0000
  C   C33       1.0  0.78720  0.16446  0.11974  1.0000
  C   C34       1.0  0.71280  0.66446  0.88026  1.0000
  C   C35       1.0  0.21280  0.83554  0.88026  1.0000
  C   C36       1.0  0.28720  0.33554  0.11974  1.0000
  C   C37       1.0  0.67445  0.07544  0.10426  1.0000
  C   C38       1.0  0.82555  0.57544  0.89574  1.0000
  C   C39       1.0  0.32555  0.92456  0.89574  1.0000
  C   C40       1.0  0.17445  0.42456  0.10426  1.0000
  C   C41       1.0  0.62500  0.03171  0.20424  1.0000
  C   C42       1.0  0.87500  0.53171  0.79576  1.0000
  C   C43       1.0  0.37499  0.96829  0.79576  1.0000
  C   C44       1.0  0.12501  0.46829  0.20424  1.0000
  C   C45       1.0  0.68801  0.07698  0.31859  1.0000
  C   C46       1.0  0.81199  0.57698  0.68141  1.0000
  C   C47       1.0  0.31200  0.92302  0.68141  1.0000
  C   C48       1.0  0.18801  0.42302  0.31859  1.0000
  N   N1        1.0  0.89844  0.13184  0.54839  1.0000
  N   N2        1.0  0.60156  0.63184  0.45161  1.0000
  N   N3        1.0  0.10156  0.86816  0.45161  1.0000
  N   N4        1.0  0.39844  0.36816  0.54839  1.0000
