data_image0
_chemical_formula_structural       Ni2H42C42N16O12
_chemical_formula_sum              "Ni2 H42 C42 N16 O12"
_cell_length_a       9.7393
_cell_length_b       10.0605
_cell_length_c       11.733
_cell_angle_alpha    98.9623
_cell_angle_beta     101.293
_cell_angle_gamma    91.5268

_space_group_name_H-M_alt    "P 1"
_space_group_IT_number       1

loop_
  _space_group_symop_operation_xyz
  'x, y, z'

loop_
  _atom_site_type_symbol
  _atom_site_label
  _atom_site_symmetry_multiplicity
  _atom_site_fract_x
  _atom_site_fract_y
  _atom_site_fract_z
  _atom_site_occupancy
  Ni  Ni1       1.0  0.01358  0.23454  0.23858  1.0000
  Ni  Ni2       1.0  0.98643  0.76547  0.76142  1.0000
  H   H1        1.0  0.80610  0.45335  0.15907  1.0000
  H   H2        1.0  0.19390  0.54666  0.84093  1.0000
  H   H3        1.0  0.05584  0.19994  0.97222  1.0000
  H   H4        1.0  0.94416  0.80007  0.02777  1.0000
  H   H5        1.0  0.88603  0.33569  0.81614  1.0000
  H   H6        1.0  0.11395  0.66428  0.18385  1.0000
  H   H7        1.0  0.74752  0.56172  0.86688  1.0000
  H   H8        1.0  0.25248  0.43829  0.13312  1.0000
  H   H9        1.0  0.68740  0.57724  0.00049  1.0000
  H   H10       1.0  0.31259  0.42276  0.99950  1.0000
  H   H11       1.0  0.58830  0.27345  0.97968  1.0000
  H   H12       1.0  0.41171  0.72653  0.02029  1.0000
  H   H13       1.0  0.36035  0.15505  0.88197  1.0000
  H   H14       1.0  0.63966  0.84494  0.11801  1.0000
  H   H15       1.0  0.29978  0.43432  0.63471  1.0000
  H   H16       1.0  0.70020  0.56570  0.36530  1.0000
  H   H17       1.0  0.52970  0.55029  0.73191  1.0000
  H   H18       1.0  0.47029  0.44973  0.26808  1.0000
  H   H19       1.0  0.15190  0.13115  0.74137  1.0000
  H   H20       1.0  0.84809  0.86886  0.25864  1.0000
  H   H21       1.0  0.08533  0.28819  0.71298  1.0000
  H   H22       1.0  0.91466  0.71181  0.28702  1.0000
  H   H23       1.0  0.06402  0.34935  0.50725  1.0000
  H   H24       1.0  0.93599  0.65064  0.49275  1.0000
  H   H25       1.0  0.21500  0.96990  0.56649  1.0000
  H   H26       1.0  0.78500  0.03009  0.43352  1.0000
  H   H27       1.0  0.13391  0.96711  0.32583  1.0000
  H   H28       1.0  0.86613  0.03289  0.67417  1.0000
  H   H29       1.0  0.81805  0.30758  0.43503  1.0000
  H   H30       1.0  0.18197  0.69240  0.56498  1.0000
  H   H31       1.0  0.74276  0.11305  0.07933  1.0000
  H   H32       1.0  0.25722  0.88694  0.92067  1.0000
  H   H33       1.0  0.49020  0.13008  0.15568  1.0000
  H   H34       1.0  0.50980  0.86993  0.84433  1.0000
  H   H35       1.0  0.42508  0.26514  0.34511  1.0000
  H   H36       1.0  0.57492  0.73485  0.65491  1.0000
  H   H37       1.0  0.56501  0.32978  0.46560  1.0000
  H   H38       1.0  0.43499  0.67021  0.53441  1.0000
  H   H39       1.0  0.58165  0.21962  0.62808  1.0000
  H   H40       1.0  0.41836  0.78038  0.37194  1.0000
  H   H41       1.0  0.44061  0.98427  0.28259  1.0000
  H   H42       1.0  0.55941  0.01572  0.71743  1.0000
  C   C1        1.0  0.85220  0.40203  0.08876  1.0000
  C   C2        1.0  0.14780  0.59797  0.91123  1.0000
  C   C3        1.0  0.98114  0.27410  0.98922  1.0000
  C   C4        1.0  0.01887  0.72589  0.01078  1.0000
  C   C5        1.0  0.89822  0.34077  0.91088  1.0000
  C   C6        1.0  0.10176  0.65922  0.08910  1.0000
  C   C7        1.0  0.70767  0.50380  0.92672  1.0000
  C   C8        1.0  0.29233  0.49620  0.07327  1.0000
  C   C9        1.0  0.57315  0.42291  0.86442  1.0000
  C   C10       1.0  0.42685  0.57709  0.13557  1.0000
  C   C11       1.0  0.52528  0.30989  0.90455  1.0000
  C   C12       1.0  0.47471  0.69010  0.09543  1.0000
  C   C13       1.0  0.39627  0.24293  0.84928  1.0000
  C   C14       1.0  0.60373  0.75707  0.15070  1.0000
  C   C15       1.0  0.31193  0.28785  0.75337  1.0000
  C   C16       1.0  0.68806  0.71216  0.24662  1.0000
  C   C17       1.0  0.36117  0.39958  0.71163  1.0000
  C   C18       1.0  0.63882  0.60044  0.28837  1.0000
  C   C19       1.0  0.49064  0.46545  0.76635  1.0000
  C   C20       1.0  0.50936  0.53456  0.23365  1.0000
  C   C21       1.0  0.16864  0.21915  0.69981  1.0000
  C   C22       1.0  0.83135  0.78086  0.30019  1.0000
  C   C23       1.0  0.09191  0.24572  0.48886  1.0000
  C   C24       1.0  0.90809  0.75427  0.51114  1.0000
  C   C25       1.0  0.17152  0.04682  0.51759  1.0000
  C   C26       1.0  0.82850  0.95318  0.48242  1.0000
  C   C27       1.0  0.13116  0.04650  0.39886  1.0000
  C   C28       1.0  0.86887  0.95350  0.60115  1.0000
  C   C29       1.0  0.76608  0.25963  0.34789  1.0000
  C   C30       1.0  0.23392  0.74036  0.65211  1.0000
  C   C31       1.0  0.72146  0.15699  0.16405  1.0000
  C   C32       1.0  0.27853  0.84300  0.83595  1.0000
  C   C33       1.0  0.59655  0.16287  0.20130  1.0000
  C   C34       1.0  0.40344  0.83714  0.79871  1.0000
  C   C35       1.0  0.52641  0.24285  0.39661  1.0000
  C   C36       1.0  0.47360  0.75715  0.60340  1.0000
  C   C37       1.0  0.51167  0.11688  0.44966  1.0000
  C   C38       1.0  0.48834  0.88312  0.55036  1.0000
  C   C39       1.0  0.54411  0.12364  0.57198  1.0000
  C   C40       1.0  0.45590  0.87637  0.42803  1.0000
  C   C41       1.0  0.46730  0.99224  0.37827  1.0000
  C   C42       1.0  0.53271  0.00776  0.62175  1.0000
  N   N1        1.0  0.95107  0.31209  0.09986  1.0000
  N   N2        1.0  0.04893  0.68792  0.90014  1.0000
  N   N3        1.0  0.81812  0.42121  0.97530  1.0000
  N   N4        1.0  0.18188  0.57879  0.02470  1.0000
  N   N5        1.0  0.08199  0.17148  0.38231  1.0000
  N   N6        1.0  0.91803  0.82852  0.61769  1.0000
  N   N7        1.0  0.14571  0.17237  0.57271  1.0000
  N   N8        1.0  0.85430  0.82762  0.42729  1.0000
  N   N9        1.0  0.82640  0.21860  0.25644  1.0000
  N   N10       1.0  0.17360  0.78139  0.74356  1.0000
  N   N11       1.0  0.62622  0.22758  0.31678  1.0000
  N   N12       1.0  0.37378  0.77242  0.68324  1.0000
  N   N13       1.0  0.14977  0.55419  0.37968  1.0000
  N   N14       1.0  0.85022  0.44580  0.62030  1.0000
  N   N15       1.0  0.19848  0.09183  0.12776  1.0000
  N   N16       1.0  0.80150  0.90818  0.87225  1.0000
  O   O1        1.0  0.02687  0.49721  0.35874  1.0000
  O   O2        1.0  0.97313  0.50275  0.64121  1.0000
  O   O3        1.0  0.16439  0.67612  0.36361  1.0000
  O   O4        1.0  0.83558  0.32388  0.63639  1.0000
  O   O5        1.0  0.25594  0.49221  0.41772  1.0000
  O   O6        1.0  0.74406  0.50781  0.58229  1.0000
  O   O7        1.0  0.10134  0.00720  0.12286  1.0000
  O   O8        1.0  0.89862  0.99283  0.87715  1.0000
  O   O9        1.0  0.19988  0.21293  0.19182  1.0000
  O   O10       1.0  0.80013  0.78708  0.80819  1.0000
  O   O11       1.0  0.29649  0.07022  0.07374  1.0000
  O   O12       1.0  0.70350  0.92976  0.92628  1.0000
