data_image0
_chemical_formula_structural       Ca4H48C36O40
_chemical_formula_sum              "Ca4 H48 C36 O40"
_cell_length_a       7.37478
_cell_length_b       10.1243
_cell_length_c       16.4417
_cell_angle_alpha    89.9998
_cell_angle_beta     89.9998
_cell_angle_gamma    102.289

_space_group_name_H-M_alt    "P 1"
_space_group_IT_number       1

loop_
  _space_group_symop_operation_xyz
  'x, y, z'

loop_
  _atom_site_type_symbol
  _atom_site_label
  _atom_site_symmetry_multiplicity
  _atom_site_fract_x
  _atom_site_fract_y
  _atom_site_fract_z
  _atom_site_occupancy
  Ca  Ca1       1.0  0.62373  0.75240  0.59411  1.0000
  Ca  Ca2       1.0  0.87626  0.24761  0.09411  1.0000
  Ca  Ca3       1.0  0.37626  0.24761  0.40589  1.0000
  Ca  Ca4       1.0  0.12374  0.75239  0.90589  1.0000
  H   H1        1.0  0.81328  0.98221  0.24132  1.0000
  H   H2        1.0  0.68673  0.01779  0.74132  1.0000
  H   H3        1.0  0.18673  0.01779  0.75868  1.0000
  H   H4        1.0  0.31327  0.98220  0.25868  1.0000
  H   H5        1.0  0.55497  0.63120  0.10411  1.0000
  H   H6        1.0  0.94504  0.36881  0.60411  1.0000
  H   H7        1.0  0.44504  0.36880  0.89589  1.0000
  H   H8        1.0  0.05496  0.63120  0.39589  1.0000
  H   H9        1.0  0.54796  0.61662  0.36527  1.0000
  H   H10       1.0  0.95203  0.38339  0.86527  1.0000
  H   H11       1.0  0.45203  0.38339  0.63473  1.0000
  H   H12       1.0  0.04796  0.61661  0.13473  1.0000
  H   H13       1.0  0.67939  0.92001  0.97614  1.0000
  H   H14       1.0  0.82061  0.08000  0.47614  1.0000
  H   H15       1.0  0.32061  0.08000  0.02386  1.0000
  H   H16       1.0  0.17939  0.92000  0.52386  1.0000
  H   H17       1.0  0.93560  0.60461  0.59246  1.0000
  H   H18       1.0  0.56440  0.39539  0.09246  1.0000
  H   H19       1.0  0.06441  0.39539  0.40754  1.0000
  H   H20       1.0  0.43560  0.60461  0.90754  1.0000
  H   H21       1.0  0.92801  0.68496  0.51118  1.0000
  H   H22       1.0  0.57199  0.31504  0.01118  1.0000
  H   H23       1.0  0.07199  0.31503  0.48882  1.0000
  H   H24       1.0  0.42801  0.68496  0.98882  1.0000
  H   H25       1.0  0.31002  0.52025  0.50327  1.0000
  H   H26       1.0  0.18998  0.47975  0.00327  1.0000
  H   H27       1.0  0.68998  0.47975  0.49673  1.0000
  H   H28       1.0  0.81001  0.52025  0.99673  1.0000
  H   H29       1.0  0.26451  0.57257  0.58786  1.0000
  H   H30       1.0  0.23549  0.42743  0.08786  1.0000
  H   H31       1.0  0.73549  0.42743  0.41214  1.0000
  H   H32       1.0  0.76451  0.57257  0.91214  1.0000
  H   H33       1.0  0.32763  0.88545  0.64963  1.0000
  H   H34       1.0  0.17237  0.11455  0.14963  1.0000
  H   H35       1.0  0.67237  0.11455  0.35037  1.0000
  H   H36       1.0  0.82763  0.88545  0.85037  1.0000
  H   H37       1.0  0.25614  0.72934  0.67236  1.0000
  H   H38       1.0  0.24386  0.27066  0.17236  1.0000
  H   H39       1.0  0.74387  0.27066  0.32764  1.0000
  H   H40       1.0  0.75613  0.72934  0.82764  1.0000
  H   H41       1.0  0.89685  0.83526  0.72700  1.0000
  H   H42       1.0  0.60315  0.16474  0.22700  1.0000
  H   H43       1.0  0.10315  0.16474  0.27300  1.0000
  H   H44       1.0  0.39685  0.83526  0.77300  1.0000
  H   H45       1.0  0.00825  0.91356  0.65048  1.0000
  H   H46       1.0  0.49175  0.08644  0.15048  1.0000
  H   H47       1.0  0.99175  0.08644  0.34952  1.0000
  H   H48       1.0  0.50825  0.91356  0.84952  1.0000
  C   C1        1.0  0.72540  0.87306  0.39481  1.0000
  C   C2        1.0  0.77460  0.12694  0.89481  1.0000
  C   C3        1.0  0.27460  0.12694  0.60519  1.0000
  C   C4        1.0  0.22540  0.87306  0.10519  1.0000
  C   C5        1.0  0.68442  0.80751  0.31284  1.0000
  C   C6        1.0  0.81558  0.19249  0.81284  1.0000
  C   C7        1.0  0.31558  0.19249  0.68716  1.0000
  C   C8        1.0  0.18442  0.80751  0.18716  1.0000
  C   C9        1.0  0.73764  0.87758  0.24051  1.0000
  C   C10       1.0  0.76236  0.12242  0.74052  1.0000
  C   C11       1.0  0.26236  0.12242  0.75948  1.0000
  C   C12       1.0  0.23763  0.87758  0.25948  1.0000
  C   C13       1.0  0.69034  0.81496  0.16510  1.0000
  C   C14       1.0  0.80967  0.18504  0.66510  1.0000
  C   C15       1.0  0.30966  0.18504  0.83490  1.0000
  C   C16       1.0  0.19034  0.81496  0.33490  1.0000
  C   C17       1.0  0.59182  0.68086  0.16228  1.0000
  C   C18       1.0  0.90818  0.31914  0.66228  1.0000
  C   C19       1.0  0.40818  0.31914  0.83772  1.0000
  C   C20       1.0  0.09182  0.68086  0.33772  1.0000
  C   C21       1.0  0.54248  0.60877  0.23441  1.0000
  C   C22       1.0  0.95751  0.39124  0.73441  1.0000
  C   C23       1.0  0.45751  0.39123  0.76559  1.0000
  C   C24       1.0  0.04248  0.60876  0.26559  1.0000
  C   C25       1.0  0.58800  0.67261  0.30923  1.0000
  C   C26       1.0  0.91201  0.32740  0.80923  1.0000
  C   C27       1.0  0.41201  0.32739  0.69077  1.0000
  C   C28       1.0  0.08799  0.67260  0.19077  1.0000
  C   C29       1.0  0.74279  0.89669  0.09010  1.0000
  C   C30       1.0  0.75722  0.10331  0.59011  1.0000
  C   C31       1.0  0.25722  0.10331  0.90989  1.0000
  C   C32       1.0  0.24278  0.89669  0.40989  1.0000
  C   C33       1.0  0.43824  0.46423  0.23267  1.0000
  C   C34       1.0  0.06176  0.53578  0.73267  1.0000
  C   C35       1.0  0.56176  0.53577  0.76733  1.0000
  C   C36       1.0  0.93823  0.46422  0.26734  1.0000
  O   O1        1.0  0.69188  0.80047  0.45697  1.0000
  O   O2        1.0  0.80812  0.19953  0.95698  1.0000
  O   O3        1.0  0.30812  0.19953  0.54302  1.0000
  O   O4        1.0  0.19188  0.80047  0.04302  1.0000
  O   O5        1.0  0.79341  0.00212  0.39660  1.0000
  O   O6        1.0  0.70659  0.99788  0.89660  1.0000
  O   O7        1.0  0.20659  0.99788  0.60340  1.0000
  O   O8        1.0  0.29341  0.00212  0.10340  1.0000
  O   O9        1.0  0.86645  0.00068  0.09007  1.0000
  O   O10       1.0  0.63356  0.99932  0.59007  1.0000
  O   O11       1.0  0.13356  0.99932  0.90993  1.0000
  O   O12       1.0  0.36645  0.00068  0.40993  1.0000
  O   O13       1.0  0.39944  0.40900  0.16209  1.0000
  O   O14       1.0  0.10056  0.59100  0.66210  1.0000
  O   O15       1.0  0.60056  0.59100  0.83790  1.0000
  O   O16       1.0  0.89944  0.40900  0.33791  1.0000
  O   O17       1.0  0.39206  0.40390  0.29855  1.0000
  O   O18       1.0  0.10793  0.59609  0.79855  1.0000
  O   O19       1.0  0.60793  0.59609  0.70145  1.0000
  O   O20       1.0  0.89206  0.40390  0.20145  1.0000
  O   O21       1.0  0.64360  0.85169  0.02439  1.0000
  O   O22       1.0  0.85640  0.14832  0.52440  1.0000
  O   O23       1.0  0.35640  0.14831  0.97560  1.0000
  O   O24       1.0  0.14360  0.85169  0.47560  1.0000
  O   O25       1.0  0.85059  0.61987  0.54769  1.0000
  O   O26       1.0  0.64941  0.38013  0.04769  1.0000
  O   O27       1.0  0.14941  0.38012  0.45231  1.0000
  O   O28       1.0  0.35059  0.61987  0.95231  1.0000
  O   O29       1.0  0.36235  0.58611  0.54573  1.0000
  O   O30       1.0  0.13764  0.41389  0.04573  1.0000
  O   O31       1.0  0.63764  0.41389  0.45427  1.0000
  O   O32       1.0  0.86235  0.58611  0.95427  1.0000
  O   O33       1.0  0.36950  0.80605  0.67211  1.0000
  O   O34       1.0  0.13050  0.19395  0.17211  1.0000
  O   O35       1.0  0.63051  0.19395  0.32789  1.0000
  O   O36       1.0  0.86950  0.80605  0.82789  1.0000
  O   O37       1.0  0.89027  0.85432  0.66772  1.0000
  O   O38       1.0  0.60973  0.14568  0.16772  1.0000
  O   O39       1.0  0.10973  0.14567  0.33228  1.0000
  O   O40       1.0  0.39027  0.85432  0.83228  1.0000
