data_image0
_chemical_formula_structural       In4H24C32O20
_chemical_formula_sum              "In4 H24 C32 O20"
_cell_length_a       12.4225
_cell_length_b       12.6694
_cell_length_c       12.6694
_cell_angle_alpha    76.0904
_cell_angle_beta     60.6416
_cell_angle_gamma    60.6418

_space_group_name_H-M_alt    "P 1"
_space_group_IT_number       1

loop_
  _space_group_symop_operation_xyz
  'x, y, z'

loop_
  _atom_site_type_symbol
  _atom_site_label
  _atom_site_symmetry_multiplicity
  _atom_site_fract_x
  _atom_site_fract_y
  _atom_site_fract_z
  _atom_site_occupancy
  In  In1       1.0  0.18641  0.00000  0.62718  1.0000
  In  In2       1.0  0.56359  0.87282  0.50000  1.0000
  In  In3       1.0  0.81359  0.00001  0.37281  1.0000
  In  In4       1.0  0.93641  0.12719  0.49999  1.0000
  H   H1        1.0  0.37500  0.06666  0.43334  1.0000
  H   H2        1.0  0.55837  0.06662  0.56670  1.0000
  H   H3        1.0  0.87500  0.93334  0.56666  1.0000
  H   H4        1.0  0.19163  0.93330  0.43338  1.0000
  H   H5        1.0  0.12546  0.99998  0.99999  1.0000
  H   H6        1.0  0.87545  0.50000  0.49999  1.0000
  H   H7        1.0  0.62454  0.50001  0.50001  1.0000
  H   H8        1.0  0.87455  0.00001  0.00000  1.0000
  H   H9        1.0  0.54748  0.93971  0.81360  1.0000
  H   H10       1.0  0.11107  0.68641  0.43971  1.0000
  H   H11       1.0  0.30077  0.06028  0.18641  1.0000
  H   H12       1.0  0.23719  0.31359  0.56028  1.0000
  H   H13       1.0  0.20252  0.68640  0.56029  1.0000
  H   H14       1.0  0.51281  0.93972  0.18641  1.0000
  H   H15       1.0  0.44923  0.31360  0.43972  1.0000
  H   H16       1.0  0.63894  0.06028  0.81360  1.0000
  H   H17       1.0  0.41079  0.21633  0.27028  1.0000
  H   H18       1.0  0.43106  0.22974  0.71634  1.0000
  H   H19       1.0  0.89741  0.78366  0.72971  1.0000
  H   H20       1.0  0.37714  0.77028  0.28366  1.0000
  H   H21       1.0  0.33920  0.22972  0.28367  1.0000
  H   H22       1.0  0.37287  0.21634  0.72972  1.0000
  H   H23       1.0  0.85259  0.77028  0.71633  1.0000
  H   H24       1.0  0.31895  0.78366  0.27026  1.0000
  C   C1        1.0  0.34613  0.94787  0.77940  1.0000
  C   C2        1.0  0.87552  0.72060  0.44788  1.0000
  C   C3        1.0  0.07340  0.05212  0.22059  1.0000
  C   C4        1.0  0.04400  0.27940  0.55211  1.0000
  C   C5        1.0  0.40387  0.72060  0.55213  1.0000
  C   C6        1.0  0.70599  0.94789  0.22060  1.0000
  C   C7        1.0  0.67660  0.27941  0.44789  1.0000
  C   C8        1.0  0.87447  0.05212  0.77940  1.0000
  C   C9        1.0  0.33675  0.97140  0.89458  1.0000
  C   C10       1.0  0.98133  0.60542  0.47141  1.0000
  C   C11       1.0  0.20274  0.02858  0.10542  1.0000
  C   C12       1.0  0.05816  0.39458  0.52858  1.0000
  C   C13       1.0  0.41325  0.60542  0.52859  1.0000
  C   C14       1.0  0.69184  0.97142  0.10542  1.0000
  C   C15       1.0  0.54726  0.39458  0.47142  1.0000
  C   C16       1.0  0.76867  0.02859  0.89458  1.0000
  C   C17       1.0  0.21304  0.99999  1.00000  1.0000
  C   C18       1.0  0.96304  0.50000  0.50000  1.0000
  C   C19       1.0  0.53696  0.50000  0.50000  1.0000
  C   C20       1.0  0.78696  0.00000  1.00000  1.0000
  C   C21       1.0  0.45051  0.96803  0.89569  1.0000
  C   C22       1.0  0.09619  0.60432  0.46803  1.0000
  C   C23       1.0  0.31422  0.03196  0.10432  1.0000
  C   C24       1.0  0.16854  0.39568  0.53197  1.0000
  C   C25       1.0  0.29949  0.60432  0.53197  1.0000
  C   C26       1.0  0.58146  0.96803  0.10432  1.0000
  C   C27       1.0  0.43578  0.39569  0.46804  1.0000
  C   C28       1.0  0.65381  0.03196  0.89569  1.0000
  C   C29       1.0  0.44038  1.00000  0.00000  1.0000
  C   C30       1.0  0.19038  0.50000  0.50000  1.0000
  C   C31       1.0  0.30963  0.50000  0.50000  1.0000
  C   C32       1.0  0.55963  1.00000  0.00000  1.0000
  O   O1        1.0  0.37500  0.00454  0.49546  1.0000
  O   O2        1.0  0.62043  0.00458  0.50450  1.0000
  O   O3        1.0  0.87500  0.99546  0.50454  1.0000
  O   O4        1.0  0.12956  0.99549  0.49543  1.0000
  O   O5        1.0  0.23234  0.99683  0.77207  1.0000
  O   O6        1.0  0.75441  0.72793  0.49685  1.0000
  O   O7        1.0  0.00126  0.00313  0.22792  1.0000
  O   O8        1.0  0.97919  0.27208  0.50314  1.0000
  O   O9        1.0  0.51766  0.72793  0.50317  1.0000
  O   O10       1.0  0.77081  0.99686  0.22792  1.0000
  O   O11       1.0  0.74874  0.27208  0.49686  1.0000
  O   O12       1.0  0.99560  0.00314  0.77208  1.0000
  O   O13       1.0  0.46497  0.88395  0.69931  1.0000
  O   O14       1.0  0.91427  0.80068  0.38393  1.0000
  O   O15       1.0  0.04820  0.11606  0.30067  1.0000
  O   O16       1.0  0.09888  0.19932  0.61606  1.0000
  O   O17       1.0  0.28504  0.80069  0.61605  1.0000
  O   O18       1.0  0.65112  0.88394  0.30068  1.0000
  O   O19       1.0  0.70181  0.19934  0.38393  1.0000
  O   O20       1.0  0.83573  0.11606  0.69932  1.0000
