data_image0
_chemical_formula_structural       Cd3H30C36Se6N12
_chemical_formula_sum              "Cd3 H30 C36 Se6 N12"
_cell_length_a       7.68415
_cell_length_b       8.96261
_cell_length_c       17.7298
_cell_angle_alpha    97.1639
_cell_angle_beta     98.1405
_cell_angle_gamma    110.93

_space_group_name_H-M_alt    "P 1"
_space_group_IT_number       1

loop_
  _space_group_symop_operation_xyz
  'x, y, z'

loop_
  _atom_site_type_symbol
  _atom_site_label
  _atom_site_symmetry_multiplicity
  _atom_site_fract_x
  _atom_site_fract_y
  _atom_site_fract_z
  _atom_site_occupancy
  Cd  Cd1       1.0  0.81883  0.82688  0.83507  1.0000
  Cd  Cd2       1.0  0.18118  0.17312  0.16493  1.0000
  Cd  Cd3       1.0  0.50000  0.50000  0.50000  1.0000
  H   H1        1.0  0.50422  0.46219  0.79151  1.0000
  H   H2        1.0  0.49578  0.53781  0.20849  1.0000
  H   H3        1.0  0.38627  0.20209  0.84332  1.0000
  H   H4        1.0  0.61372  0.79791  0.15668  1.0000
  H   H5        1.0  0.53261  0.20015  0.97855  1.0000
  H   H6        1.0  0.46740  0.79985  0.02145  1.0000
  H   H7        1.0  0.78842  0.45579  0.05724  1.0000
  H   H8        1.0  0.21158  0.54421  0.94276  1.0000
  H   H9        1.0  0.89041  0.70501  0.99687  1.0000
  H   H10       1.0  0.10959  0.29499  0.00313  1.0000
  H   H11       1.0  0.80722  0.17940  0.85544  1.0000
  H   H12       1.0  0.19278  0.82060  0.14456  1.0000
  H   H13       1.0  0.91189  0.44282  0.80575  1.0000
  H   H14       1.0  0.08810  0.55719  0.19425  1.0000
  H   H15       1.0  0.09615  0.46600  0.69907  1.0000
  H   H16       1.0  0.90384  0.53400  0.30093  1.0000
  H   H17       1.0  0.17103  0.22746  0.64667  1.0000
  H   H18       1.0  0.82896  0.77254  0.35333  1.0000
  H   H19       1.0  0.06091  0.97548  0.70433  1.0000
  H   H20       1.0  0.93909  0.02452  0.29567  1.0000
  H   H21       1.0  0.76982  0.87503  0.56783  1.0000
  H   H22       1.0  0.23018  0.12497  0.43217  1.0000
  H   H23       1.0  0.86317  0.15327  0.53313  1.0000
  H   H24       1.0  0.13683  0.84673  0.46687  1.0000
  H   H25       1.0  0.71530  0.17962  0.40322  1.0000
  H   H26       1.0  0.28470  0.82038  0.59678  1.0000
  H   H27       1.0  0.47840  0.92899  0.31233  1.0000
  H   H28       1.0  0.52160  0.07101  0.68767  1.0000
  H   H29       1.0  0.40020  0.65988  0.35608  1.0000
  H   H30       1.0  0.59980  0.34012  0.64391  1.0000
  C   C1        1.0  0.20482  0.96026  0.99222  1.0000
  C   C2        1.0  0.79518  0.03974  0.00778  1.0000
  C   C3        1.0  0.87336  0.63561  0.66320  1.0000
  C   C4        1.0  0.12664  0.36440  0.33680  1.0000
  C   C5        1.0  0.44240  0.66889  0.67729  1.0000
  C   C6        1.0  0.55760  0.33110  0.32271  1.0000
  C   C7        1.0  0.56378  0.45463  0.84994  1.0000
  C   C8        1.0  0.43622  0.54537  0.15006  1.0000
  C   C9        1.0  0.49854  0.31136  0.87885  1.0000
  C   C10       1.0  0.50146  0.68864  0.12115  1.0000
  C   C11       1.0  0.57975  0.31041  0.95427  1.0000
  C   C12       1.0  0.42024  0.68959  0.04573  1.0000
  C   C13       1.0  0.72236  0.45276  0.99815  1.0000
  C   C14       1.0  0.27764  0.54725  0.00185  1.0000
  C   C15       1.0  0.77950  0.59088  0.96487  1.0000
  C   C16       1.0  0.22050  0.40912  0.03513  1.0000
  C   C17       1.0  0.88868  0.19634  0.80935  1.0000
  C   C18       1.0  0.11132  0.80366  0.19066  1.0000
  C   C19       1.0  0.94673  0.34155  0.78166  1.0000
  C   C20       1.0  0.05327  0.65845  0.21834  1.0000
  C   C21       1.0  0.04913  0.35434  0.72211  1.0000
  C   C22       1.0  0.95087  0.64566  0.27789  1.0000
  C   C23       1.0  0.09075  0.22175  0.69292  1.0000
  C   C24       1.0  0.90924  0.77825  0.30708  1.0000
  C   C25       1.0  0.02954  0.08148  0.72455  1.0000
  C   C26       1.0  0.97046  0.91853  0.27545  1.0000
  C   C27       1.0  0.70864  0.89311  0.51193  1.0000
  C   C28       1.0  0.29136  0.10689  0.48806  1.0000
  C   C29       1.0  0.76035  0.04662  0.49238  1.0000
  C   C30       1.0  0.23965  0.95338  0.50762  1.0000
  C   C31       1.0  0.67728  0.06092  0.41988  1.0000
  C   C32       1.0  0.32272  0.93908  0.58012  1.0000
  C   C33       1.0  0.54554  0.92137  0.36942  1.0000
  C   C34       1.0  0.45446  0.07863  0.63058  1.0000
  C   C35       1.0  0.50191  0.77240  0.39339  1.0000
  C   C36       1.0  0.49809  0.22760  0.60661  1.0000
  Se  Se1       1.0  0.19980  0.87069  0.89490  1.0000
  Se  Se2       1.0  0.80020  0.12931  0.10510  1.0000
  Se  Se3       1.0  0.88903  0.57197  0.56491  1.0000
  Se  Se4       1.0  0.11097  0.42803  0.43509  1.0000
  Se  Se5       1.0  0.44077  0.77948  0.76900  1.0000
  Se  Se6       1.0  0.55924  0.22051  0.23100  1.0000
  N   N1        1.0  0.21096  0.01527  0.05700  1.0000
  N   N2        1.0  0.78904  0.98472  0.94300  1.0000
  N   N3        1.0  0.86318  0.67367  0.72813  1.0000
  N   N4        1.0  0.13683  0.32634  0.27187  1.0000
  N   N5        1.0  0.43642  0.59404  0.61671  1.0000
  N   N6        1.0  0.56358  0.40596  0.38329  1.0000
  N   N7        1.0  0.70237  0.59171  0.89197  1.0000
  N   N8        1.0  0.29764  0.40829  0.10803  1.0000
  N   N9        1.0  0.92963  0.06869  0.78153  1.0000
  N   N10       1.0  0.07037  0.93131  0.21847  1.0000
  N   N11       1.0  0.58218  0.75851  0.46335  1.0000
  N   N12       1.0  0.41782  0.24149  0.53665  1.0000
