data_image0
_chemical_formula_structural       Cd4H28C24S4N12O20
_chemical_formula_sum              "Cd4 H28 C24 S4 N12 O20"
_cell_length_a       8.71901
_cell_length_b       9.39398
_cell_length_c       11.8525
_cell_angle_alpha    90.8943
_cell_angle_beta     90.0001
_cell_angle_gamma    90

_space_group_name_H-M_alt    "P 1"
_space_group_IT_number       1

loop_
  _space_group_symop_operation_xyz
  'x, y, z'

loop_
  _atom_site_type_symbol
  _atom_site_label
  _atom_site_symmetry_multiplicity
  _atom_site_fract_x
  _atom_site_fract_y
  _atom_site_fract_z
  _atom_site_occupancy
  Cd  Cd1       1.0  0.81070  0.64551  0.33672  1.0000
  Cd  Cd2       1.0  0.31070  0.85449  0.16328  1.0000
  Cd  Cd3       1.0  0.18930  0.35449  0.66328  1.0000
  Cd  Cd4       1.0  0.68930  0.14551  0.83672  1.0000
  H   H1        1.0  0.13842  0.61294  0.34781  1.0000
  H   H2        1.0  0.63842  0.88706  0.15219  1.0000
  H   H3        1.0  0.86158  0.38705  0.65219  1.0000
  H   H4        1.0  0.36158  0.11294  0.84781  1.0000
  H   H5        1.0  0.08320  0.62641  0.47470  1.0000
  H   H6        1.0  0.58320  0.87360  0.02530  1.0000
  H   H7        1.0  0.91680  0.37359  0.52530  1.0000
  H   H8        1.0  0.41680  0.12640  0.97470  1.0000
  H   H9        1.0  0.40426  0.47065  0.42906  1.0000
  H   H10       1.0  0.90426  0.02935  0.07094  1.0000
  H   H11       1.0  0.59574  0.52935  0.57094  1.0000
  H   H12       1.0  0.09574  0.97065  0.92906  1.0000
  H   H13       1.0  0.44102  0.40360  0.29146  1.0000
  H   H14       1.0  0.94102  0.09640  0.20854  1.0000
  H   H15       1.0  0.55898  0.59640  0.70853  1.0000
  H   H16       1.0  0.05898  0.90360  0.79146  1.0000
  H   H17       1.0  0.65153  0.15755  0.12236  1.0000
  H   H18       1.0  0.15154  0.34245  0.37764  1.0000
  H   H19       1.0  0.34847  0.84246  0.87764  1.0000
  H   H20       1.0  0.84846  0.65755  0.62236  1.0000
  H   H21       1.0  0.79871  0.45884  0.89114  1.0000
  H   H22       1.0  0.29871  0.04116  0.60886  1.0000
  H   H23       1.0  0.20129  0.54116  0.10885  1.0000
  H   H24       1.0  0.70129  0.95884  0.39114  1.0000
  H   H25       1.0  0.87361  0.62458  0.05188  1.0000
  H   H26       1.0  0.37361  0.87542  0.44812  1.0000
  H   H27       1.0  0.12639  0.37542  0.94812  1.0000
  H   H28       1.0  0.62639  0.12458  0.55188  1.0000
  C   C1        1.0  0.45001  0.62768  0.30895  1.0000
  C   C2        1.0  0.95001  0.87233  0.19105  1.0000
  C   C3        1.0  0.54999  0.37232  0.69105  1.0000
  C   C4        1.0  0.04999  0.12767  0.80895  1.0000
  C   C5        1.0  0.48106  0.48102  0.35578  1.0000
  C   C6        1.0  0.98106  0.01898  0.14422  1.0000
  C   C7        1.0  0.51894  0.51898  0.64422  1.0000
  C   C8        1.0  0.01894  0.98102  0.85579  1.0000
  C   C9        1.0  0.74755  0.35269  0.19428  1.0000
  C   C10       1.0  0.24755  0.14731  0.30571  1.0000
  C   C11       1.0  0.25245  0.64731  0.80571  1.0000
  C   C12       1.0  0.75245  0.85269  0.69429  1.0000
  C   C13       1.0  0.70405  0.26065  0.10650  1.0000
  C   C14       1.0  0.20405  0.23935  0.39350  1.0000
  C   C15       1.0  0.29596  0.73935  0.89350  1.0000
  C   C16       1.0  0.79595  0.76065  0.60650  1.0000
  C   C17       1.0  0.78434  0.42800  0.97870  1.0000
  C   C18       1.0  0.28434  0.07200  0.52130  1.0000
  C   C19       1.0  0.21566  0.57200  0.02130  1.0000
  C   C20       1.0  0.71566  0.92800  0.47870  1.0000
  C   C21       1.0  0.82585  0.51967  0.06745  1.0000
  C   C22       1.0  0.32586  0.98033  0.43255  1.0000
  C   C23       1.0  0.17415  0.48033  0.93255  1.0000
  C   C24       1.0  0.67415  0.01967  0.56745  1.0000
  S   S1        1.0  0.71125  0.31502  0.34154  1.0000
  S   S2        1.0  0.21126  0.18497  0.15845  1.0000
  S   S3        1.0  0.28875  0.68498  0.65846  1.0000
  S   S4        1.0  0.78874  0.81503  0.84155  1.0000
  N   N1        1.0  0.64098  0.45719  0.38977  1.0000
  N   N2        1.0  0.14098  0.04281  0.11023  1.0000
  N   N3        1.0  0.35902  0.54281  0.61023  1.0000
  N   N4        1.0  0.85902  0.95719  0.88977  1.0000
  N   N5        1.0  0.80580  0.48181  0.17457  1.0000
  N   N6        1.0  0.30581  0.01819  0.32543  1.0000
  N   N7        1.0  0.19420  0.51819  0.82543  1.0000
  N   N8        1.0  0.69420  0.98181  0.67457  1.0000
  N   N9        1.0  0.72287  0.29992  0.99879  1.0000
  N   N10       1.0  0.22287  0.20008  0.50121  1.0000
  N   N11       1.0  0.27713  0.70008  0.00121  1.0000
  N   N12       1.0  0.77713  0.79992  0.49879  1.0000
  O   O1        1.0  0.55414  0.72016  0.30302  1.0000
  O   O2        1.0  0.05413  0.77983  0.19698  1.0000
  O   O3        1.0  0.44586  0.27983  0.69698  1.0000
  O   O4        1.0  0.94586  0.22017  0.80302  1.0000
  O   O5        1.0  0.31226  0.65115  0.27582  1.0000
  O   O6        1.0  0.81225  0.84886  0.22418  1.0000
  O   O7        1.0  0.68774  0.34885  0.72418  1.0000
  O   O8        1.0  0.18774  0.15114  0.77582  1.0000
  O   O9        1.0  0.86160  0.29272  0.39339  1.0000
  O   O10       1.0  0.36159  0.20728  0.10661  1.0000
  O   O11       1.0  0.13840  0.70728  0.60661  1.0000
  O   O12       1.0  0.63841  0.79271  0.89339  1.0000
  O   O13       1.0  0.60779  0.19335  0.33843  1.0000
  O   O14       1.0  0.10778  0.30665  0.16157  1.0000
  O   O15       1.0  0.39221  0.80665  0.66157  1.0000
  O   O16       1.0  0.89222  0.69335  0.83843  1.0000
  O   O17       1.0  0.05447  0.58549  0.40006  1.0000
  O   O18       1.0  0.55447  0.91451  0.09994  1.0000
  O   O19       1.0  0.94553  0.41451  0.59994  1.0000
  O   O20       1.0  0.44553  0.08549  0.90006  1.0000
