data_image0
_chemical_formula_structural       Cd2H30C32S2N10O10
_chemical_formula_sum              "Cd2 H30 C32 S2 N10 O10"
_cell_length_a       8.61206
_cell_length_b       11.3234
_cell_length_c       11.2216
_cell_angle_alpha    67.5008
_cell_angle_beta     67.5431
_cell_angle_gamma    71.156

_space_group_name_H-M_alt    "P 1"
_space_group_IT_number       1

loop_
  _space_group_symop_operation_xyz
  'x, y, z'

loop_
  _atom_site_type_symbol
  _atom_site_label
  _atom_site_symmetry_multiplicity
  _atom_site_fract_x
  _atom_site_fract_y
  _atom_site_fract_z
  _atom_site_occupancy
  Cd  Cd1       1.0  0.00000  0.50000  0.50000  1.0000
  Cd  Cd2       1.0  1.00000  0.50000  1.00000  1.0000
  H   H1        1.0  0.23446  0.59992  0.08991  1.0000
  H   H2        1.0  0.76554  0.40007  0.91010  1.0000
  H   H3        1.0  0.30005  0.60150  0.93603  1.0000
  H   H4        1.0  0.69994  0.39851  0.06397  1.0000
  H   H5        1.0  0.22005  0.73583  0.53923  1.0000
  H   H6        1.0  0.77995  0.26418  0.46077  1.0000
  H   H7        1.0  0.38297  0.59343  0.55083  1.0000
  H   H8        1.0  0.61702  0.40657  0.44918  1.0000
  H   H9        1.0  0.06261  0.80831  0.13389  1.0000
  H   H10       1.0  0.93739  0.19169  0.86612  1.0000
  H   H11       1.0  0.83417  0.15953  0.22731  1.0000
  H   H12       1.0  0.16583  0.84047  0.77270  1.0000
  H   H13       1.0  0.03072  0.10295  0.36595  1.0000
  H   H14       1.0  0.96929  0.89704  0.63405  1.0000
  H   H15       1.0  0.11553  0.26566  0.36764  1.0000
  H   H16       1.0  0.88448  0.73434  0.63235  1.0000
  H   H17       1.0  0.31209  0.04966  0.37122  1.0000
  H   H18       1.0  0.68792  0.95034  0.62878  1.0000
  H   H19       1.0  0.53290  0.12278  0.61945  1.0000
  H   H20       1.0  0.46710  0.87722  0.38055  1.0000
  H   H21       1.0  0.32386  0.32962  0.60912  1.0000
  H   H22       1.0  0.67614  0.67038  0.39089  1.0000
  H   H23       1.0  0.09355  0.26309  0.89794  1.0000
  H   H24       1.0  0.90644  0.73690  0.10207  1.0000
  H   H25       1.0  0.28094  0.04720  0.89680  1.0000
  H   H26       1.0  0.71906  0.95280  0.10320  1.0000
  H   H27       1.0  0.55355  0.12185  0.10762  1.0000
  H   H28       1.0  0.44645  0.87816  0.89238  1.0000
  H   H29       1.0  0.34358  0.33173  0.10608  1.0000
  H   H30       1.0  0.65642  0.66828  0.89391  1.0000
  C   C1        1.0  0.13907  0.56536  0.68900  1.0000
  C   C2        1.0  0.86093  0.43464  0.31100  1.0000
  C   C3        1.0  0.24817  0.63070  0.54920  1.0000
  C   C4        1.0  0.75183  0.36931  0.45080  1.0000
  C   C5        1.0  0.16405  0.84362  0.26372  1.0000
  C   C6        1.0  0.83595  0.15638  0.73628  1.0000
  C   C7        1.0  0.05293  0.87472  0.18666  1.0000
  C   C8        1.0  0.94707  0.12528  0.81334  1.0000
  C   C9        1.0  0.92771  0.06705  0.23782  1.0000
  C   C10       1.0  0.07229  0.93295  0.76218  1.0000
  C   C11       1.0  0.03913  0.03621  0.31372  1.0000
  C   C12       1.0  0.96087  0.96379  0.68628  1.0000
  C   C13       1.0  0.20895  0.22833  0.42384  1.0000
  C   C14       1.0  0.79105  0.77166  0.57616  1.0000
  C   C15       1.0  0.32069  0.10844  0.42493  1.0000
  C   C16       1.0  0.67931  0.89156  0.57507  1.0000
  C   C17       1.0  0.44079  0.06423  0.49713  1.0000
  C   C18       1.0  0.55921  0.93576  0.50287  1.0000
  C   C19       1.0  0.44260  0.14680  0.56310  1.0000
  C   C20       1.0  0.55740  0.85319  0.43690  1.0000
  C   C21       1.0  0.32528  0.26529  0.55710  1.0000
  C   C22       1.0  0.67472  0.73471  0.44290  1.0000
  C   C23       1.0  0.19547  0.22574  0.94572  1.0000
  C   C24       1.0  0.80453  0.77426  0.05428  1.0000
  C   C25       1.0  0.30436  0.10509  0.94412  1.0000
  C   C26       1.0  0.69564  0.89491  0.05588  1.0000
  C   C27       1.0  0.43867  0.06296  0.00177  1.0000
  C   C28       1.0  0.56133  0.93704  0.99823  1.0000
  C   C29       1.0  0.45232  0.14678  0.06126  1.0000
  C   C30       1.0  0.54768  0.85323  0.93874  1.0000
  C   C31       1.0  0.33587  0.26514  0.06032  1.0000
  C   C32       1.0  0.66413  0.73487  0.93967  1.0000
  S   S1        1.0  0.30762  0.68499  0.29417  1.0000
  S   S2        1.0  0.69238  0.31501  0.70583  1.0000
  N   N1        1.0  0.21950  0.60650  0.44148  1.0000
  N   N2        1.0  0.78050  0.39351  0.55852  1.0000
  N   N3        1.0  0.15833  0.92512  0.32697  1.0000
  N   N4        1.0  0.84168  0.07488  0.67303  1.0000
  N   N5        1.0  0.93425  0.98599  0.17384  1.0000
  N   N6        1.0  0.06575  0.01401  0.82617  1.0000
  N   N7        1.0  0.20913  0.30531  0.48971  1.0000
  N   N8        1.0  0.79087  0.69468  0.51029  1.0000
  N   N9        1.0  0.20890  0.30480  0.00335  1.0000
  N   N10       1.0  0.79110  0.69520  0.99664  1.0000
  O   O1        1.0  0.04722  0.48978  0.70459  1.0000
  O   O2        1.0  0.95278  0.51022  0.29541  1.0000
  O   O3        1.0  0.14943  0.59527  0.78409  1.0000
  O   O4        1.0  0.85057  0.40474  0.21591  1.0000
  O   O5        1.0  0.30382  0.62667  0.19990  1.0000
  O   O6        1.0  0.69618  0.37333  0.80010  1.0000
  O   O7        1.0  0.47130  0.70936  0.27797  1.0000
  O   O8        1.0  0.52871  0.29064  0.72203  1.0000
  O   O9        1.0  0.20017  0.59986  0.01521  1.0000
  O   O10       1.0  0.79982  0.40013  0.98480  1.0000
