data_image0
_chemical_formula_structural       MnH28C40S2N10O2
_chemical_formula_sum              "Mn1 H28 C40 S2 N10 O2"
_cell_length_a       9.42727
_cell_length_b       9.55004
_cell_length_c       11.1114
_cell_angle_alpha    83.7699
_cell_angle_beta     84.8891
_cell_angle_gamma    81.9481

_space_group_name_H-M_alt    "P 1"
_space_group_IT_number       1

loop_
  _space_group_symop_operation_xyz
  'x, y, z'

loop_
  _atom_site_type_symbol
  _atom_site_label
  _atom_site_symmetry_multiplicity
  _atom_site_fract_x
  _atom_site_fract_y
  _atom_site_fract_z
  _atom_site_occupancy
  Mn  Mn1       1.0  0.99999  0.00000  0.50000  1.0000
  H   H1        1.0  0.64560  0.11632  0.54493  1.0000
  H   H2        1.0  0.35440  0.88369  0.45506  1.0000
  H   H3        1.0  0.00608  0.33868  0.50651  1.0000
  H   H4        1.0  0.99393  0.66130  0.49349  1.0000
  H   H5        1.0  0.77261  0.51451  0.59423  1.0000
  H   H6        1.0  0.22740  0.48549  0.40577  1.0000
  H   H7        1.0  0.58323  0.56641  0.69367  1.0000
  H   H8        1.0  0.41678  0.43359  0.30633  1.0000
  H   H9        1.0  0.34218  0.64787  0.77761  1.0000
  H   H10       1.0  0.65782  0.35213  0.22239  1.0000
  H   H11       1.0  0.18411  0.28922  0.65595  1.0000
  H   H12       1.0  0.81590  0.71078  0.34405  1.0000
  H   H13       1.0  0.42741  0.20337  0.57137  1.0000
  H   H14       1.0  0.57260  0.79663  0.42863  1.0000
  H   H15       1.0  0.24336  0.53435  0.96985  1.0000
  H   H16       1.0  0.75665  0.46564  0.03015  1.0000
  H   H17       1.0  0.17099  0.68439  0.13577  1.0000
  H   H18       1.0  0.82901  0.31561  0.86423  1.0000
  H   H19       1.0  0.80453  0.88832  0.94437  1.0000
  H   H20       1.0  0.19548  0.11169  0.05563  1.0000
  H   H21       1.0  0.87314  0.72863  0.78390  1.0000
  H   H22       1.0  0.12686  0.27137  0.21610  1.0000
  H   H23       1.0  0.12701  0.84175  0.25426  1.0000
  H   H24       1.0  0.87298  0.15825  0.74575  1.0000
  H   H25       1.0  0.72687  0.98119  0.10391  1.0000
  H   H26       1.0  0.27313  0.01881  0.89608  1.0000
  H   H27       1.0  0.72937  0.09295  0.32172  1.0000
  H   H28       1.0  0.27062  0.90705  0.67827  1.0000
  C   C1        1.0  0.71239  0.20003  0.54216  1.0000
  C   C2        1.0  0.28760  0.79998  0.45784  1.0000
  C   C3        1.0  0.89591  0.31922  0.52605  1.0000
  C   C4        1.0  0.10410  0.68077  0.47395  1.0000
  C   C5        1.0  0.78042  0.40752  0.56910  1.0000
  C   C6        1.0  0.21959  0.59248  0.43090  1.0000
  C   C7        1.0  0.52318  0.37780  0.62812  1.0000
  C   C8        1.0  0.47683  0.62221  0.37188  1.0000
  C   C9        1.0  0.49786  0.50249  0.68673  1.0000
  C   C10       1.0  0.50215  0.49751  0.31327  1.0000
  C   C11       1.0  0.36058  0.54847  0.73540  1.0000
  C   C12       1.0  0.63942  0.45154  0.26460  1.0000
  C   C13       1.0  0.24586  0.47195  0.72628  1.0000
  C   C14       1.0  0.75415  0.52805  0.27372  1.0000
  C   C15       1.0  0.27310  0.34723  0.66646  1.0000
  C   C16       1.0  0.72691  0.65277  0.33354  1.0000
  C   C17       1.0  0.40990  0.29933  0.61843  1.0000
  C   C18       1.0  0.59010  0.70067  0.38157  1.0000
  C   C19       1.0  0.09564  0.52658  0.76537  1.0000
  C   C20       1.0  0.90436  0.47342  0.23463  1.0000
  C   C21       1.0  0.06495  0.62342  0.86310  1.0000
  C   C22       1.0  0.93505  0.37658  0.13690  1.0000
  C   C23       1.0  0.14915  0.61430  0.96246  1.0000
  C   C24       1.0  0.85085  0.38570  0.03754  1.0000
  C   C25       1.0  0.10921  0.70053  0.05613  1.0000
  C   C26       1.0  0.89079  0.29947  0.94387  1.0000
  C   C27       1.0  0.98516  0.80052  0.05055  1.0000
  C   C28       1.0  0.01484  0.19947  0.94945  1.0000
  C   C29       1.0  0.90086  0.81118  0.95125  1.0000
  C   C30       1.0  0.09914  0.18882  0.04875  1.0000
  C   C31       1.0  0.93965  0.72197  0.85999  1.0000
  C   C32       1.0  0.06035  0.27803  0.14001  1.0000
  C   C33       1.0  0.01940  0.89530  0.24413  1.0000
  C   C34       1.0  0.98059  0.10470  0.75587  1.0000
  C   C35       1.0  0.81059  0.97064  0.16594  1.0000
  C   C36       1.0  0.18941  0.02936  0.83406  1.0000
  C   C37       1.0  0.81283  0.02498  0.27465  1.0000
  C   C38       1.0  0.18716  0.97502  0.72534  1.0000
  C   C39       1.0  0.73392  0.87360  0.62319  1.0000
  C   C40       1.0  0.26606  0.12639  0.37681  1.0000
  S   S1        1.0  0.58197  0.85221  0.69796  1.0000
  S   S2        1.0  0.41800  0.14780  0.30204  1.0000
  N   N1        1.0  0.85321  0.18935  0.51083  1.0000
  N   N2        1.0  0.14679  0.81064  0.48917  1.0000
  N   N3        1.0  0.66368  0.33158  0.57957  1.0000
  N   N4        1.0  0.33633  0.66842  0.42043  1.0000
  N   N5        1.0  0.94233  0.88706  0.14679  1.0000
  N   N6        1.0  0.05766  0.11294  0.85321  1.0000
  N   N7        1.0  0.94315  0.97647  0.32316  1.0000
  N   N8        1.0  0.05683  0.02353  0.67684  1.0000
  N   N9        1.0  0.84444  0.89505  0.56822  1.0000
  N   N10       1.0  0.15554  0.10495  0.43177  1.0000
  O   O1        1.0  0.99470  0.49364  0.71432  1.0000
  O   O2        1.0  0.00531  0.50635  0.28569  1.0000
