data_image0
_chemical_formula_structural       Na2H40C26S2N2O20
_chemical_formula_sum              "Na2 H40 C26 S2 N2 O20"
_cell_length_a       8.30853
_cell_length_b       8.98454
_cell_length_c       12.1761
_cell_angle_alpha    90
_cell_angle_beta     90
_cell_angle_gamma    116.673

_space_group_name_H-M_alt    "P 1"
_space_group_IT_number       1

loop_
  _space_group_symop_operation_xyz
  'x, y, z'

loop_
  _atom_site_type_symbol
  _atom_site_label
  _atom_site_symmetry_multiplicity
  _atom_site_fract_x
  _atom_site_fract_y
  _atom_site_fract_z
  _atom_site_occupancy
  Na  Na1       1.0  0.88398  0.54373  0.87876  1.0000
  Na  Na2       1.0  0.11602  0.45627  0.37876  1.0000
  H   H1        1.0  0.61347  0.77460  0.67206  1.0000
  H   H2        1.0  0.38653  0.22540  0.17206  1.0000
  H   H3        1.0  0.98722  0.06767  0.88534  1.0000
  H   H4        1.0  0.01278  0.93233  0.38534  1.0000
  H   H5        1.0  0.63691  0.74362  0.88418  1.0000
  H   H6        1.0  0.36309  0.25638  0.38418  1.0000
  H   H7        1.0  0.65404  0.12243  0.61425  1.0000
  H   H8        1.0  0.34596  0.87757  0.11425  1.0000
  H   H9        1.0  0.45990  0.93081  0.59744  1.0000
  H   H10       1.0  0.54010  0.06919  0.09744  1.0000
  H   H11       1.0  0.09099  0.97478  0.72658  1.0000
  H   H12       1.0  0.90901  0.02522  0.22658  1.0000
  H   H13       1.0  0.68802  0.08687  0.80693  1.0000
  H   H14       1.0  0.31198  0.91313  0.30693  1.0000
  H   H15       1.0  0.80213  0.50223  0.43947  1.0000
  H   H16       1.0  0.19787  0.49777  0.93947  1.0000
  H   H17       1.0  0.64025  0.30734  0.49518  1.0000
  H   H18       1.0  0.35975  0.69266  0.99519  1.0000
  H   H19       1.0  0.62791  0.48700  0.63854  1.0000
  H   H20       1.0  0.37209  0.51300  0.13854  1.0000
  H   H21       1.0  0.87432  0.75526  0.55995  1.0000
  H   H22       1.0  0.12568  0.24474  0.05995  1.0000
  H   H23       1.0  0.23970  0.55484  0.61637  1.0000
  H   H24       1.0  0.76030  0.44516  0.11637  1.0000
  H   H25       1.0  0.18837  0.81992  0.65095  1.0000
  H   H26       1.0  0.81163  0.18008  0.15095  1.0000
  H   H27       1.0  0.97335  0.28958  0.67628  1.0000
  H   H28       1.0  0.02665  0.71042  0.17628  1.0000
  H   H29       1.0  0.40911  0.93053  0.87814  1.0000
  H   H30       1.0  0.59089  0.06947  0.37814  1.0000
  H   H31       1.0  0.62079  0.86343  0.46263  1.0000
  H   H32       1.0  0.37921  0.13657  0.96263  1.0000
  H   H33       1.0  0.69033  0.87136  0.05279  1.0000
  H   H34       1.0  0.30968  0.12864  0.55279  1.0000
  H   H35       1.0  0.20782  0.84318  0.48120  1.0000
  H   H36       1.0  0.79218  0.15682  0.98120  1.0000
  H   H37       1.0  0.26657  0.68583  0.78706  1.0000
  H   H38       1.0  0.73343  0.31417  0.28706  1.0000
  H   H39       1.0  0.08607  0.90025  0.96288  1.0000
  H   H40       1.0  0.91393  0.09975  0.46288  1.0000
  C   C1        1.0  0.76754  0.41876  0.51029  1.0000
  C   C2        1.0  0.23246  0.58124  0.01029  1.0000
  C   C3        1.0  0.67386  0.91112  0.68380  1.0000
  C   C4        1.0  0.32614  0.08888  0.18380  1.0000
  C   C5        1.0  0.91025  0.93355  0.86679  1.0000
  C   C6        1.0  0.08975  0.06645  0.36679  1.0000
  C   C7        1.0  0.70985  0.88101  0.88627  1.0000
  C   C8        1.0  0.29016  0.11899  0.38627  1.0000
  C   C9        1.0  0.60720  0.99017  0.59593  1.0000
  C   C10       1.0  0.39280  0.00983  0.09593  1.0000
  C   C11       1.0  0.76203  0.50157  0.61709  1.0000
  C   C12       1.0  0.23797  0.49843  0.11709  1.0000
  C   C13       1.0  0.90214  0.68261  0.62352  1.0000
  C   C14       1.0  0.09786  0.31739  0.12352  1.0000
  C   C15       1.0  0.12490  0.56130  0.65816  1.0000
  C   C16       1.0  0.87510  0.43870  0.15815  1.0000
  C   C17       1.0  0.09693  0.70514  0.60757  1.0000
  C   C18       1.0  0.90307  0.29486  0.10757  1.0000
  C   C19       1.0  0.95665  0.39549  0.64296  1.0000
  C   C20       1.0  0.04335  0.60451  0.14296  1.0000
  C   C21       1.0  0.94650  0.90912  0.74616  1.0000
  C   C22       1.0  0.05350  0.09088  0.24616  1.0000
  C   C23       1.0  0.39189  0.29299  0.76676  1.0000
  C   C24       1.0  0.60812  0.70701  0.26676  1.0000
  C   C25       1.0  0.62846  0.94980  0.79913  1.0000
  C   C26       1.0  0.37154  0.05020  0.29913  1.0000
  S   S1        1.0  0.46712  0.37494  0.88811  1.0000
  S   S2        1.0  0.53288  0.62506  0.38811  1.0000
  N   N1        1.0  0.33839  0.23586  0.67876  1.0000
  N   N2        1.0  0.66161  0.76414  0.17876  1.0000
  O   O1        1.0  0.87661  0.73461  0.73103  1.0000
  O   O2        1.0  0.12339  0.26539  0.23103  1.0000
  O   O3        1.0  0.14415  0.72068  0.49348  1.0000
  O   O4        1.0  0.85585  0.27932  0.99348  1.0000
  O   O5        1.0  0.67030  0.98245  0.48685  1.0000
  O   O6        1.0  0.32970  0.01755  0.98685  1.0000
  O   O7        1.0  0.86644  0.98085  0.67376  1.0000
  O   O8        1.0  0.13356  0.01915  0.17376  1.0000
  O   O9        1.0  0.80814  0.40439  0.69599  1.0000
  O   O10       1.0  0.19186  0.59561  0.19599  1.0000
  O   O11       1.0  0.96017  0.83587  0.93785  1.0000
  O   O12       1.0  0.03983  0.16413  0.43785  1.0000
  O   O13       1.0  0.68366  0.94093  0.99005  1.0000
  O   O14       1.0  0.31634  0.05907  0.49005  1.0000
  O   O15       1.0  0.43685  0.88232  0.81130  1.0000
  O   O16       1.0  0.56315  0.11768  0.31130  1.0000
  O   O17       1.0  0.15383  0.58179  0.77352  1.0000
  O   O18       1.0  0.84617  0.41821  0.27352  1.0000
  O   O19       1.0  0.90901  0.36821  0.52892  1.0000
  O   O20       1.0  0.09099  0.63179  0.02892  1.0000
