data_image0
_chemical_formula_structural       Ag4H20C36N8O16
_chemical_formula_sum              "Ag4 H20 C36 N8 O16"
_cell_length_a       4.92278
_cell_length_b       9.01209
_cell_length_c       19.9958
_cell_angle_alpha    90
_cell_angle_beta     90.0002
_cell_angle_gamma    93.1565

_space_group_name_H-M_alt    "P 1"
_space_group_IT_number       1

loop_
  _space_group_symop_operation_xyz
  'x, y, z'

loop_
  _atom_site_type_symbol
  _atom_site_label
  _atom_site_symmetry_multiplicity
  _atom_site_fract_x
  _atom_site_fract_y
  _atom_site_fract_z
  _atom_site_occupancy
  Ag  Ag1       1.0  0.28851  0.40462  0.02321  1.0000
  Ag  Ag2       1.0  0.21149  0.09537  0.52321  1.0000
  Ag  Ag3       1.0  0.71149  0.59538  0.97679  1.0000
  Ag  Ag4       1.0  0.78851  0.90462  0.47679  1.0000
  H   H1        1.0  0.01584  0.17501  0.86784  1.0000
  H   H2        1.0  0.48415  0.32500  0.36784  1.0000
  H   H3        1.0  0.98415  0.82499  0.13216  1.0000
  H   H4        1.0  0.51585  0.67500  0.63216  1.0000
  H   H5        1.0  0.70555  0.95859  0.96565  1.0000
  H   H6        1.0  0.79444  0.54141  0.46565  1.0000
  H   H7        1.0  0.29444  0.04141  0.03435  1.0000
  H   H8        1.0  0.20556  0.45859  0.53435  1.0000
  H   H9        1.0  0.75879  0.58329  0.80698  1.0000
  H   H10       1.0  0.74120  0.91671  0.30698  1.0000
  H   H11       1.0  0.24120  0.41671  0.19302  1.0000
  H   H12       1.0  0.25880  0.08329  0.69302  1.0000
  H   H13       1.0  0.04212  0.68248  0.69738  1.0000
  H   H14       1.0  0.45787  0.81752  0.19738  1.0000
  H   H15       1.0  0.95787  0.31751  0.30262  1.0000
  H   H16       1.0  0.54213  0.18249  0.80262  1.0000
  H   H17       1.0  0.81542  0.94940  0.66409  1.0000
  H   H18       1.0  0.68457  0.55061  0.16409  1.0000
  H   H19       1.0  0.18457  0.05061  0.33591  1.0000
  H   H20       1.0  0.31543  0.44939  0.83591  1.0000
  C   C1        1.0  0.70607  0.25978  0.93406  1.0000
  C   C2        1.0  0.79393  0.24022  0.43406  1.0000
  C   C3        1.0  0.29393  0.74022  0.06594  1.0000
  C   C4        1.0  0.20608  0.75978  0.56594  1.0000
  C   C5        1.0  0.86384  0.13944  0.90496  1.0000
  C   C6        1.0  0.63616  0.36056  0.40496  1.0000
  C   C7        1.0  0.13616  0.86056  0.09504  1.0000
  C   C8        1.0  0.36385  0.63944  0.59504  1.0000
  C   C9        1.0  0.84755  0.99746  0.92662  1.0000
  C   C10       1.0  0.65245  0.50254  0.42662  1.0000
  C   C11       1.0  0.15244  0.00254  0.07338  1.0000
  C   C12       1.0  0.34756  0.49746  0.57338  1.0000
  C   C13       1.0  0.02620  0.88945  0.90215  1.0000
  C   C14       1.0  0.47380  0.61055  0.40216  1.0000
  C   C15       1.0  0.97380  0.11055  0.09785  1.0000
  C   C16       1.0  0.52621  0.38945  0.59785  1.0000
  C   C17       1.0  0.34163  0.79741  0.84311  1.0000
  C   C18       1.0  0.15837  0.70259  0.34311  1.0000
  C   C19       1.0  0.65837  0.20259  0.15689  1.0000
  C   C20       1.0  0.84163  0.29741  0.65689  1.0000
  C   C21       1.0  0.54716  0.79003  0.79318  1.0000
  C   C22       1.0  0.95284  0.70997  0.29318  1.0000
  C   C23       1.0  0.45283  0.20997  0.20682  1.0000
  C   C24       1.0  0.04717  0.29003  0.70682  1.0000
  C   C25       1.0  0.73177  0.68482  0.77931  1.0000
  C   C26       1.0  0.76823  0.81518  0.27931  1.0000
  C   C27       1.0  0.26823  0.31518  0.22070  1.0000
  C   C28       1.0  0.23178  0.18482  0.72069  1.0000
  C   C29       1.0  0.88114  0.73799  0.72242  1.0000
  C   C30       1.0  0.61886  0.76201  0.22242  1.0000
  C   C31       1.0  0.11886  0.26201  0.27758  1.0000
  C   C32       1.0  0.38115  0.23799  0.77758  1.0000
  C   C33       1.0  0.77861  0.87090  0.70476  1.0000
  C   C34       1.0  0.72139  0.62911  0.20476  1.0000
  C   C35       1.0  0.22139  0.12910  0.29524  1.0000
  C   C36       1.0  0.27861  0.37090  0.79524  1.0000
  N   N1        1.0  0.05139  0.75167  0.92230  1.0000
  N   N2        1.0  0.44861  0.74833  0.42230  1.0000
  N   N3        1.0  0.94860  0.24833  0.07770  1.0000
  N   N4        1.0  0.55140  0.25167  0.57770  1.0000
  N   N5        1.0  0.25415  0.69176  0.88467  1.0000
  N   N6        1.0  0.24585  0.80825  0.38467  1.0000
  N   N7        1.0  0.74585  0.30824  0.11533  1.0000
  N   N8        1.0  0.75415  0.19175  0.61533  1.0000
  O   O1        1.0  0.49145  0.22538  0.96720  1.0000
  O   O2        1.0  0.00855  0.27462  0.46720  1.0000
  O   O3        1.0  0.50854  0.77462  0.03280  1.0000
  O   O4        1.0  0.99146  0.72538  0.53280  1.0000
  O   O5        1.0  0.81128  0.39041  0.92279  1.0000
  O   O6        1.0  0.68871  0.10959  0.42279  1.0000
  O   O7        1.0  0.18871  0.60959  0.07721  1.0000
  O   O8        1.0  0.31129  0.89041  0.57721  1.0000
  O   O9        1.0  0.20806  0.92524  0.85156  1.0000
  O   O10       1.0  0.29194  0.57476  0.35156  1.0000
  O   O11       1.0  0.79193  0.07476  0.14844  1.0000
  O   O12       1.0  0.70807  0.42524  0.64844  1.0000
  O   O13       1.0  0.57490  0.90498  0.74781  1.0000
  O   O14       1.0  0.92509  0.59502  0.24781  1.0000
  O   O15       1.0  0.42510  0.09502  0.25219  1.0000
  O   O16       1.0  0.07491  0.40498  0.75219  1.0000
