data_image0
_chemical_formula_structural       Cd3H28C38N8O12
_chemical_formula_sum              "Cd3 H28 C38 N8 O12"
_cell_length_a       9.92441
_cell_length_b       10.4194
_cell_length_c       11.8053
_cell_angle_alpha    100.336
_cell_angle_beta     112.954
_cell_angle_gamma    109.206

_space_group_name_H-M_alt    "P 1"
_space_group_IT_number       1

loop_
  _space_group_symop_operation_xyz
  'x, y, z'

loop_
  _atom_site_type_symbol
  _atom_site_label
  _atom_site_symmetry_multiplicity
  _atom_site_fract_x
  _atom_site_fract_y
  _atom_site_fract_z
  _atom_site_occupancy
  Cd  Cd1       1.0  0.06397  0.87906  0.71611  1.0000
  Cd  Cd2       1.0  0.93603  0.12094  0.28389  1.0000
  Cd  Cd3       1.0  0.00000  0.00000  0.00000  1.0000
  H   H1        1.0  0.07381  0.51710  0.35234  1.0000
  H   H2        1.0  0.92619  0.48290  0.64766  1.0000
  H   H3        1.0  0.54976  0.03249  0.72923  1.0000
  H   H4        1.0  0.45024  0.96751  0.27077  1.0000
  H   H5        1.0  0.68031  0.93278  0.42928  1.0000
  H   H6        1.0  0.31969  0.06722  0.57072  1.0000
  H   H7        1.0  0.49655  0.29833  0.84780  1.0000
  H   H8        1.0  0.50345  0.70167  0.15220  1.0000
  H   H9        1.0  0.29644  0.44437  0.07857  1.0000
  H   H10       1.0  0.70356  0.55563  0.92143  1.0000
  H   H11       1.0  0.16772  0.76863  0.10150  1.0000
  H   H12       1.0  0.83228  0.23137  0.89850  1.0000
  H   H13       1.0  0.80074  0.38719  0.76146  1.0000
  H   H14       1.0  0.19926  0.61281  0.23854  1.0000
  H   H15       1.0  0.78699  0.74185  0.35571  1.0000
  H   H16       1.0  0.21301  0.25815  0.64429  1.0000
  H   H17       1.0  0.81936  0.53025  0.20101  1.0000
  H   H18       1.0  0.18064  0.46975  0.79899  1.0000
  H   H19       1.0  0.45483  0.86739  0.94135  1.0000
  H   H20       1.0  0.54517  0.13261  0.05865  1.0000
  H   H21       1.0  0.59224  0.73919  0.82026  1.0000
  H   H22       1.0  0.40776  0.26081  0.17974  1.0000
  H   H23       1.0  0.32046  0.49569  0.50838  1.0000
  H   H24       1.0  0.67954  0.50431  0.49162  1.0000
  H   H25       1.0  0.52805  0.63210  0.59581  1.0000
  H   H26       1.0  0.47195  0.36790  0.40419  1.0000
  H   H27       1.0  0.37862  0.65591  0.46831  1.0000
  H   H28       1.0  0.62138  0.34409  0.53169  1.0000
  C   C1        1.0  0.76660  0.95635  0.68170  1.0000
  C   C2        1.0  0.23340  0.04366  0.31830  1.0000
  C   C3        1.0  0.62921  0.98073  0.58884  1.0000
  C   C4        1.0  0.37079  0.01928  0.41116  1.0000
  C   C5        1.0  0.52796  0.01951  0.62897  1.0000
  C   C6        1.0  0.47204  0.98049  0.37103  1.0000
  C   C7        1.0  0.60006  0.96162  0.45913  1.0000
  C   C8        1.0  0.39994  0.03838  0.54087  1.0000
  C   C9        1.0  0.26144  0.20313  0.91635  1.0000
  C   C10       1.0  0.73856  0.79687  0.08365  1.0000
  C   C11       1.0  0.38468  0.35683  0.95911  1.0000
  C   C12       1.0  0.61533  0.64317  0.04089  1.0000
  C   C13       1.0  0.49885  0.38760  0.91403  1.0000
  C   C14       1.0  0.50115  0.61240  0.08597  1.0000
  C   C15       1.0  0.38670  0.46999  0.04527  1.0000
  C   C16       1.0  0.61330  0.53001  0.95473  1.0000
  C   C17       1.0  0.97432  0.68015  0.84043  1.0000
  C   C18       1.0  0.02567  0.31985  0.15957  1.0000
  C   C19       1.0  0.98388  0.58735  0.92324  1.0000
  C   C20       1.0  0.01612  0.41265  0.07676  1.0000
  C   C21       1.0  0.09560  0.65106  0.05810  1.0000
  C   C22       1.0  0.90440  0.34894  0.94190  1.0000
  C   C23       1.0  0.88844  0.43618  0.86600  1.0000
  C   C24       1.0  0.11156  0.56382  0.13400  1.0000
  C   C25       1.0  0.87920  0.70242  0.38200  1.0000
  C   C26       1.0  0.12080  0.29758  0.61800  1.0000
  C   C27       1.0  0.89450  0.59852  0.30398  1.0000
  C   C28       1.0  0.10550  0.40148  0.69602  1.0000
  C   C29       1.0  0.10098  0.68930  0.50609  1.0000
  C   C30       1.0  0.89902  0.31070  0.49391  1.0000
  C   C31       1.0  0.24251  0.71973  0.62669  1.0000
  C   C32       1.0  0.75749  0.28026  0.37331  1.0000
  C   C33       1.0  0.40901  0.81131  0.83787  1.0000
  C   C34       1.0  0.59099  0.18869  0.16213  1.0000
  C   C35       1.0  0.47757  0.74621  0.77960  1.0000
  C   C36       1.0  0.52243  0.25379  0.22040  1.0000
  C   C37       1.0  0.40026  0.61271  0.54848  1.0000
  C   C38       1.0  0.59974  0.38729  0.45152  1.0000
  N   N1        1.0  0.00801  0.75815  0.50703  1.0000
  N   N2        1.0  0.99199  0.24185  0.49297  1.0000
  N   N3        1.0  0.26339  0.79412  0.74229  1.0000
  N   N4        1.0  0.73661  0.20588  0.25771  1.0000
  N   N5        1.0  0.03493  0.59178  0.38372  1.0000
  N   N6        1.0  0.96507  0.40822  0.61628  1.0000
  N   N7        1.0  0.37176  0.68881  0.64639  1.0000
  N   N8        1.0  0.62824  0.31119  0.35361  1.0000
  O   O1        1.0  0.83777  0.90663  0.62882  1.0000
  O   O2        1.0  0.16223  0.09337  0.37118  1.0000
  O   O3        1.0  0.79730  0.98405  0.80077  1.0000
  O   O4        1.0  0.20270  0.01595  0.19923  1.0000
  O   O5        1.0  0.24881  0.11049  0.82153  1.0000
  O   O6        1.0  0.75120  0.88951  0.17847  1.0000
  O   O7        1.0  0.18353  0.17978  0.97995  1.0000
  O   O8        1.0  0.81647  0.82022  0.02005  1.0000
  O   O9        1.0  0.89899  0.62045  0.71593  1.0000
  O   O10       1.0  0.10101  0.37955  0.28407  1.0000
  O   O11       1.0  0.05202  0.81912  0.89766  1.0000
  O   O12       1.0  0.94797  0.18088  0.10234  1.0000
