data_image0
_chemical_formula_structural       Cd2H56C76N12Cl4
_chemical_formula_sum              "Cd2 H56 C76 N12 Cl4"
_cell_length_a       11.9909
_cell_length_b       13.042
_cell_length_c       12.8761
_cell_angle_alpha    105.769
_cell_angle_beta     90.0072
_cell_angle_gamma    117.412

_space_group_name_H-M_alt    "P 1"
_space_group_IT_number       1

loop_
  _space_group_symop_operation_xyz
  'x, y, z'

loop_
  _atom_site_type_symbol
  _atom_site_label
  _atom_site_symmetry_multiplicity
  _atom_site_fract_x
  _atom_site_fract_y
  _atom_site_fract_z
  _atom_site_occupancy
  Cd  Cd1       1.0  0.25161  0.50003  0.25009  1.0000
  Cd  Cd2       1.0  0.74839  0.49997  0.74991  1.0000
  H   H1        1.0  0.23926  0.03017  0.16443  1.0000
  H   H2        1.0  0.70914  0.97027  0.33573  1.0000
  H   H3        1.0  0.76074  0.96983  0.83558  1.0000
  H   H4        1.0  0.29087  0.02973  0.66426  1.0000
  H   H5        1.0  0.10793  0.95263  0.22445  1.0000
  H   H6        1.0  0.65522  0.04758  0.27561  1.0000
  H   H7        1.0  0.89207  0.04737  0.77556  1.0000
  H   H8        1.0  0.34479  0.95242  0.72439  1.0000
  H   H9        1.0  0.32365  0.81138  0.40153  1.0000
  H   H10       1.0  0.01225  0.18872  0.09794  1.0000
  H   H11       1.0  0.67635  0.18862  0.59847  1.0000
  H   H12       1.0  0.98775  0.81128  0.90206  1.0000
  H   H13       1.0  0.42773  0.16548  0.20254  1.0000
  H   H14       1.0  0.76238  0.83501  0.29794  1.0000
  H   H15       1.0  0.57227  0.83452  0.79746  1.0000
  H   H16       1.0  0.23762  0.16499  0.70205  1.0000
  H   H17       1.0  0.18255  0.82937  0.28084  1.0000
  H   H18       1.0  0.85361  0.17102  0.21901  1.0000
  H   H19       1.0  0.81745  0.17062  0.71916  1.0000
  H   H20       1.0  0.14640  0.82898  0.78099  1.0000
  H   H21       1.0  0.87935  0.23886  0.52023  1.0000
  H   H22       1.0  0.14065  0.76108  0.97910  1.0000
  H   H23       1.0  0.12065  0.76114  0.47978  1.0000
  H   H24       1.0  0.85935  0.23892  0.02091  1.0000
  H   H25       1.0  0.03919  0.38745  0.43957  1.0000
  H   H26       1.0  0.15139  0.61253  0.05991  1.0000
  H   H27       1.0  0.96081  0.61254  0.56043  1.0000
  H   H28       1.0  0.84861  0.38748  0.94009  1.0000
  H   H29       1.0  0.55969  0.20276  0.50640  1.0000
  H   H30       1.0  0.85658  0.79740  0.99388  1.0000
  H   H31       1.0  0.44031  0.79724  0.49360  1.0000
  H   H32       1.0  0.14343  0.20260  0.00612  1.0000
  H   H33       1.0  0.60476  0.25536  0.10041  1.0000
  H   H34       1.0  0.84934  0.74480  0.39976  1.0000
  H   H35       1.0  0.39523  0.74464  0.89959  1.0000
  H   H36       1.0  0.15066  0.25520  0.60024  1.0000
  H   H37       1.0  0.47419  0.50956  0.08573  1.0000
  H   H38       1.0  0.46418  0.49099  0.41479  1.0000
  H   H39       1.0  0.52579  0.49043  0.91427  1.0000
  H   H40       1.0  0.53582  0.50901  0.58521  1.0000
  H   H41       1.0  0.85997  0.03477  0.49049  1.0000
  H   H42       1.0  0.32564  0.96529  0.00918  1.0000
  H   H43       1.0  0.14004  0.96523  0.50951  1.0000
  H   H44       1.0  0.67437  0.03471  0.99081  1.0000
  H   H45       1.0  0.00028  0.97157  0.37755  1.0000
  H   H46       1.0  0.52899  0.02854  0.12260  1.0000
  H   H47       1.0  0.99972  0.02843  0.62246  1.0000
  H   H48       1.0  0.47101  0.97146  0.87739  1.0000
  H   H49       1.0  0.63216  0.43239  0.04081  1.0000
  H   H50       1.0  0.69944  0.56758  0.45904  1.0000
  H   H51       1.0  0.36782  0.56760  0.95919  1.0000
  H   H52       1.0  0.30056  0.43242  0.54096  1.0000
  H   H53       1.0  0.41275  0.21866  0.39045  1.0000
  H   H54       1.0  0.69379  0.78173  0.10978  1.0000
  H   H55       1.0  0.58725  0.78134  0.60956  1.0000
  H   H56       1.0  0.30621  0.21827  0.89021  1.0000
  C   C1        1.0  0.45579  0.00536  0.46414  1.0000
  C   C2        1.0  0.95042  0.99476  0.03587  1.0000
  C   C3        1.0  0.54421  0.99464  0.53586  1.0000
  C   C4        1.0  0.04958  0.00524  0.96413  1.0000
  C   C5        1.0  0.20290  0.03220  0.24282  1.0000
  C   C6        1.0  0.67073  0.96814  0.25731  1.0000
  C   C7        1.0  0.79710  0.96780  0.75718  1.0000
  C   C8        1.0  0.32927  0.03186  0.74269  1.0000
  C   C9        1.0  0.34701  0.90203  0.39930  1.0000
  C   C10       1.0  0.94502  0.09811  0.10045  1.0000
  C   C11       1.0  0.65298  0.09796  0.60070  1.0000
  C   C12       1.0  0.05499  0.90189  0.89955  1.0000
  C   C13       1.0  0.35393  0.28815  0.19448  1.0000
  C   C14       1.0  0.56566  0.71211  0.30567  1.0000
  C   C15       1.0  0.64606  0.71185  0.80552  1.0000
  C   C16       1.0  0.43434  0.28789  0.69432  1.0000
  C   C17       1.0  0.43719  0.23915  0.17285  1.0000
  C   C18       1.0  0.69802  0.76114  0.32737  1.0000
  C   C19       1.0  0.56280  0.76085  0.82715  1.0000
  C   C20       1.0  0.30199  0.23886  0.67262  1.0000
  C   C21       1.0  0.24928  0.24947  0.25908  1.0000
  C   C22       1.0  0.49967  0.75073  0.24103  1.0000
  C   C23       1.0  0.75072  0.75053  0.74092  1.0000
  C   C24       1.0  0.50034  0.24928  0.75898  1.0000
  C   C25       1.0  0.28784  0.02495  0.32417  1.0000
  C   C26       1.0  0.76299  0.97544  0.17596  1.0000
  C   C27       1.0  0.71216  0.97505  0.67584  1.0000
  C   C28       1.0  0.23701  0.02456  0.82404  1.0000
  C   C29       1.0  0.26500  0.91178  0.33076  1.0000
  C   C30       1.0  0.85342  0.08853  0.16915  1.0000
  C   C31       1.0  0.73499  0.08822  0.66925  1.0000
  C   C32       1.0  0.14658  0.91147  0.83085  1.0000
  C   C33       1.0  0.10928  0.26257  0.36253  1.0000
  C   C34       1.0  0.34648  0.73748  0.13744  1.0000
  C   C35       1.0  0.89071  0.73742  0.63747  1.0000
  C   C36       1.0  0.65352  0.26252  0.86257  1.0000
  C   C37       1.0  0.94174  0.21340  0.47084  1.0000
  C   C38       1.0  0.22841  0.78661  0.02876  1.0000
  C   C39       1.0  0.05825  0.78659  0.52916  1.0000
  C   C40       1.0  0.77159  0.21340  0.97124  1.0000
  C   C41       1.0  0.09778  0.14595  0.34616  1.0000
  C   C42       1.0  0.45171  0.85416  0.15394  1.0000
  C   C43       1.0  0.90222  0.85405  0.65384  1.0000
  C   C44       1.0  0.54829  0.14584  0.84606  1.0000
  C   C45       1.0  0.03041  0.29763  0.42607  1.0000
  C   C46       1.0  0.23260  0.70238  0.07365  1.0000
  C   C47       1.0  0.96959  0.70237  0.57393  1.0000
  C   C48       1.0  0.76740  0.29763  0.92636  1.0000
  C   C49       1.0  0.47689  0.11922  0.45866  1.0000
  C   C50       1.0  0.85752  0.88097  0.04157  1.0000
  C   C51       1.0  0.52311  0.88077  0.54135  1.0000
  C   C52       1.0  0.14249  0.11903  0.95842  1.0000
  C   C53       1.0  0.53781  0.29063  0.11682  1.0000
  C   C54       1.0  0.74705  0.70951  0.38324  1.0000
  C   C55       1.0  0.46219  0.70937  0.88317  1.0000
  C   C56       1.0  0.25295  0.29049  0.61675  1.0000
  C   C57       1.0  0.46619  0.43164  0.10799  1.0000
  C   C58       1.0  0.53421  0.56866  0.39224  1.0000
  C   C59       1.0  0.53380  0.56835  0.89201  1.0000
  C   C60       1.0  0.46579  0.43135  0.60776  1.0000
  C   C61       1.0  0.93083  0.09724  0.45324  1.0000
  C   C62       1.0  0.33378  0.90281  0.04654  1.0000
  C   C63       1.0  0.06918  0.90276  0.54676  1.0000
  C   C64       1.0  0.66623  0.09719  0.95345  1.0000
  C   C65       1.0  0.00837  0.06091  0.39028  1.0000
  C   C66       1.0  0.44755  0.93920  0.10978  1.0000
  C   C67       1.0  0.99163  0.93910  0.60972  1.0000
  C   C68       1.0  0.55245  0.06080  0.89022  1.0000
  C   C69       1.0  0.55347  0.38901  0.08338  1.0000
  C   C70       1.0  0.66420  0.61107  0.41660  1.0000
  C   C71       1.0  0.44652  0.61099  0.91661  1.0000
  C   C72       1.0  0.33580  0.38893  0.58339  1.0000
  C   C73       1.0  0.39377  0.12850  0.39071  1.0000
  C   C74       1.0  0.76517  0.87185  0.10952  1.0000
  C   C75       1.0  0.60623  0.87150  0.60930  1.0000
  C   C76       1.0  0.23483  0.12814  0.89048  1.0000
  N   N1        1.0  0.20407  0.32412  0.30741  1.0000
  N   N2        1.0  0.37973  0.67601  0.19262  1.0000
  N   N3        1.0  0.79592  0.67588  0.69258  1.0000
  N   N4        1.0  0.62027  0.32399  0.80738  1.0000
  N   N5        1.0  0.36978  0.38342  0.16181  1.0000
  N   N6        1.0  0.48613  0.61689  0.33841  1.0000
  N   N7        1.0  0.63021  0.61658  0.83819  1.0000
  N   N8        1.0  0.51388  0.38311  0.66158  1.0000
  N   N9        1.0  0.18713  0.13990  0.28021  1.0000
  N   N10       1.0  0.54717  0.86032  0.21993  1.0000
  N   N11       1.0  0.81287  0.86010  0.71979  1.0000
  N   N12       1.0  0.45283  0.13968  0.78007  1.0000
  Cl  Cl1       1.0  0.10038  0.39790  0.07540  1.0000
  Cl  Cl2       1.0  0.20202  0.60208  0.42446  1.0000
  Cl  Cl3       1.0  0.89962  0.60210  0.92460  1.0000
  Cl  Cl4       1.0  0.79798  0.39792  0.57554  1.0000
