data_image0
_chemical_formula_structural       Na4H40C20Br4O24
_chemical_formula_sum              "Na4 H40 C20 Br4 O24"
_cell_length_a       6.00866
_cell_length_b       6.00864
_cell_length_c       25.7693
_cell_angle_alpha    89.9998
_cell_angle_beta     90
_cell_angle_gamma    104.613

_space_group_name_H-M_alt    "P 1"
_space_group_IT_number       1

loop_
  _space_group_symop_operation_xyz
  'x, y, z'

loop_
  _atom_site_type_symbol
  _atom_site_label
  _atom_site_symmetry_multiplicity
  _atom_site_fract_x
  _atom_site_fract_y
  _atom_site_fract_z
  _atom_site_occupancy
  Na  Na1       1.0  0.75278  0.75278  0.50000  1.0000
  Na  Na2       1.0  0.24723  0.24723  0.00000  1.0000
  Na  Na3       1.0  0.99148  0.00851  0.75000  1.0000
  Na  Na4       1.0  0.00852  0.99148  0.25000  1.0000
  H   H1        1.0  0.96413  0.18316  0.55983  1.0000
  H   H2        1.0  0.18316  0.96414  0.44017  1.0000
  H   H3        1.0  0.81684  0.03587  0.94017  1.0000
  H   H4        1.0  0.03586  0.81684  0.05983  1.0000
  H   H5        1.0  0.60927  0.24102  0.77099  1.0000
  H   H6        1.0  0.24102  0.60927  0.22901  1.0000
  H   H7        1.0  0.75898  0.39072  0.72901  1.0000
  H   H8        1.0  0.39072  0.75898  0.27099  1.0000
  H   H9        1.0  0.22169  0.63209  0.77155  1.0000
  H   H10       1.0  0.63209  0.22169  0.22844  1.0000
  H   H11       1.0  0.36791  0.77831  0.72845  1.0000
  H   H12       1.0  0.77831  0.36792  0.27155  1.0000
  H   H13       1.0  0.59623  0.80483  0.60096  1.0000
  H   H14       1.0  0.80483  0.59623  0.39904  1.0000
  H   H15       1.0  0.19517  0.40377  0.89904  1.0000
  H   H16       1.0  0.40376  0.19517  0.10097  1.0000
  H   H17       1.0  0.23485  0.76271  0.53146  1.0000
  H   H18       1.0  0.76271  0.23485  0.46854  1.0000
  H   H19       1.0  0.23729  0.76515  0.96854  1.0000
  H   H20       1.0  0.76515  0.23729  0.03146  1.0000
  H   H21       1.0  0.32545  0.37778  0.68199  1.0000
  H   H22       1.0  0.37777  0.32545  0.31801  1.0000
  H   H23       1.0  0.62222  0.67454  0.81801  1.0000
  H   H24       1.0  0.67455  0.62222  0.18199  1.0000
  H   H25       1.0  0.48830  0.08883  0.63297  1.0000
  H   H26       1.0  0.08883  0.48830  0.36703  1.0000
  H   H27       1.0  0.91117  0.51169  0.86703  1.0000
  H   H28       1.0  0.51169  0.91116  0.13298  1.0000
  H   H29       1.0  0.10437  0.85529  0.62068  1.0000
  H   H30       1.0  0.85530  0.10437  0.37932  1.0000
  H   H31       1.0  0.14471  0.89563  0.87932  1.0000
  H   H32       1.0  0.89563  0.14471  0.12068  1.0000
  H   H33       1.0  0.02616  0.44587  0.63748  1.0000
  H   H34       1.0  0.44587  0.02616  0.36252  1.0000
  H   H35       1.0  0.55413  0.97384  0.86252  1.0000
  H   H36       1.0  0.97384  0.55413  0.13748  1.0000
  H   H37       1.0  0.87156  0.15797  0.64960  1.0000
  H   H38       1.0  0.15798  0.87156  0.35039  1.0000
  H   H39       1.0  0.84203  0.12844  0.85039  1.0000
  H   H40       1.0  0.12844  0.84203  0.14961  1.0000
  C   C1        1.0  0.49200  0.28001  0.56351  1.0000
  C   C2        1.0  0.28003  0.49204  0.43650  1.0000
  C   C3        1.0  0.71998  0.50797  0.93650  1.0000
  C   C4        1.0  0.50797  0.71998  0.06350  1.0000
  C   C5        1.0  0.44339  0.05013  0.59178  1.0000
  C   C6        1.0  0.05013  0.44339  0.40822  1.0000
  C   C7        1.0  0.94988  0.55661  0.90822  1.0000
  C   C8        1.0  0.55661  0.94988  0.09178  1.0000
  C   C9        1.0  0.18081  0.96447  0.58769  1.0000
  C   C10       1.0  0.96448  0.18082  0.41230  1.0000
  C   C11       1.0  0.03553  0.81919  0.91231  1.0000
  C   C12       1.0  0.81918  0.03553  0.08770  1.0000
  C   C13       1.0  0.10572  0.18985  0.58706  1.0000
  C   C14       1.0  0.18985  0.10572  0.41294  1.0000
  C   C15       1.0  0.81015  0.89428  0.91294  1.0000
  C   C16       1.0  0.89428  0.81015  0.08706  1.0000
  C   C17       1.0  0.04214  0.26775  0.63971  1.0000
  C   C18       1.0  0.26775  0.04214  0.36029  1.0000
  C   C19       1.0  0.73225  0.95786  0.86029  1.0000
  C   C20       1.0  0.95786  0.73225  0.13971  1.0000
  Br  Br1       1.0  0.65527  0.67438  0.67592  1.0000
  Br  Br2       1.0  0.67438  0.65527  0.32408  1.0000
  Br  Br3       1.0  0.32562  0.34473  0.82408  1.0000
  Br  Br4       1.0  0.34473  0.32562  0.17592  1.0000
  O   O1        1.0  0.74800  0.25201  0.75000  1.0000
  O   O2        1.0  0.25201  0.74801  0.25000  1.0000
  O   O3        1.0  0.23099  0.76901  0.75000  1.0000
  O   O4        1.0  0.76902  0.23100  0.25000  1.0000
  O   O5        1.0  0.67086  0.38468  0.54256  1.0000
  O   O6        1.0  0.38467  0.67085  0.45744  1.0000
  O   O7        1.0  0.61534  0.32915  0.95744  1.0000
  O   O8        1.0  0.32915  0.61534  0.04256  1.0000
  O   O9        1.0  0.56630  0.89940  0.57093  1.0000
  O   O10       1.0  0.89940  0.56629  0.42907  1.0000
  O   O11       1.0  0.10061  0.43371  0.92907  1.0000
  O   O12       1.0  0.43370  0.10060  0.07093  1.0000
  O   O13       1.0  0.11887  0.84675  0.53964  1.0000
  O   O14       1.0  0.84675  0.11887  0.46036  1.0000
  O   O15       1.0  0.15325  0.88113  0.96036  1.0000
  O   O16       1.0  0.88113  0.15325  0.03964  1.0000
  O   O17       1.0  0.30404  0.36203  0.56475  1.0000
  O   O18       1.0  0.36203  0.30405  0.43525  1.0000
  O   O19       1.0  0.63797  0.69595  0.93525  1.0000
  O   O20       1.0  0.69595  0.63797  0.06475  1.0000
  O   O21       1.0  0.19428  0.24011  0.68049  1.0000
  O   O22       1.0  0.24011  0.19428  0.31951  1.0000
  O   O23       1.0  0.75989  0.80571  0.81951  1.0000
  O   O24       1.0  0.80572  0.75989  0.18049  1.0000
