data_image0
_chemical_formula_structural       Fe2H8C4O12
_chemical_formula_sum              "Fe2 H8 C4 O12"
_cell_length_a       5.60995
_cell_length_b       6.61136
_cell_length_c       8.16744
_cell_angle_alpha    80.2784
_cell_angle_beta     69.9152
_cell_angle_gamma    64.8872

_space_group_name_H-M_alt    "P 1"
_space_group_IT_number       1

loop_
  _space_group_symop_operation_xyz
  'x, y, z'

loop_
  _atom_site_type_symbol
  _atom_site_label
  _atom_site_symmetry_multiplicity
  _atom_site_fract_x
  _atom_site_fract_y
  _atom_site_fract_z
  _atom_site_occupancy
  Fe  Fe1       1.0  0.42135  0.74995  0.74997  1.0000
  Fe  Fe2       1.0  0.57865  0.25004  0.25003  1.0000
  H   H1        1.0  0.18545  0.17779  0.64296  1.0000
  H   H2        1.0  0.50601  0.32221  0.85719  1.0000
  H   H3        1.0  0.81454  0.82221  0.35704  1.0000
  H   H4        1.0  0.49399  0.67779  0.14281  1.0000
  H   H5        1.0  0.12009  0.17594  0.85271  1.0000
  H   H6        1.0  0.64849  0.32386  0.64744  1.0000
  H   H7        1.0  0.87992  0.82406  0.14729  1.0000
  H   H8        1.0  0.35150  0.67614  0.35256  1.0000
  C   C1        1.0  0.97145  0.74926  0.64870  1.0000
  C   C2        1.0  0.86956  0.75075  0.85107  1.0000
  C   C3        1.0  0.02855  0.25074  0.35130  1.0000
  C   C4        1.0  0.13044  0.24925  0.14893  1.0000
  O   O1        1.0  0.80782  0.74779  0.57463  1.0000
  O   O2        1.0  0.63046  0.75202  0.92517  1.0000
  O   O3        1.0  0.19217  0.25221  0.42538  1.0000
  O   O4        1.0  0.36955  0.24798  0.07484  1.0000
  O   O5        1.0  0.21035  0.74941  0.57363  1.0000
  O   O6        1.0  0.03341  0.75080  0.92614  1.0000
  O   O7        1.0  0.78965  0.25059  0.42636  1.0000
  O   O8        1.0  0.96659  0.24921  0.07386  1.0000
  O   O9        1.0  0.25457  0.10254  0.74286  1.0000
  O   O10       1.0  0.59977  0.39735  0.75723  1.0000
  O   O11       1.0  0.74543  0.89746  0.25714  1.0000
  O   O12       1.0  0.40023  0.60265  0.24277  1.0000
