data_image0
_chemical_formula_structural       Cu8H24C16N8O32
_chemical_formula_sum              "Cu8 H24 C16 N8 O32"
_cell_length_a       8.52233
_cell_length_b       9.6252
_cell_length_c       10.7916
_cell_angle_alpha    90.0003
_cell_angle_beta     90
_cell_angle_gamma    90.0002

_space_group_name_H-M_alt    "P 1"
_space_group_IT_number       1

loop_
  _space_group_symop_operation_xyz
  'x, y, z'

loop_
  _atom_site_type_symbol
  _atom_site_label
  _atom_site_symmetry_multiplicity
  _atom_site_fract_x
  _atom_site_fract_y
  _atom_site_fract_z
  _atom_site_occupancy
  Cu  Cu1       1.0  0.88220  0.76148  0.92173  1.0000
  Cu  Cu2       1.0  0.38219  0.23852  0.57827  1.0000
  Cu  Cu3       1.0  0.11780  0.73853  0.42173  1.0000
  Cu  Cu4       1.0  0.61780  0.26148  0.07828  1.0000
  Cu  Cu5       1.0  0.11780  0.23851  0.07828  1.0000
  Cu  Cu6       1.0  0.61780  0.76148  0.42172  1.0000
  Cu  Cu7       1.0  0.88219  0.26150  0.57828  1.0000
  Cu  Cu8       1.0  0.38220  0.73851  0.92173  1.0000
  H   H1        1.0  0.72146  0.77385  0.72709  1.0000
  H   H2        1.0  0.22146  0.22614  0.77291  1.0000
  H   H3        1.0  0.27854  0.72614  0.22710  1.0000
  H   H4        1.0  0.77855  0.27386  0.27291  1.0000
  H   H5        1.0  0.27854  0.22614  0.27291  1.0000
  H   H6        1.0  0.77854  0.77385  0.22709  1.0000
  H   H7        1.0  0.72145  0.27386  0.77292  1.0000
  H   H8        1.0  0.22147  0.72615  0.72709  1.0000
  H   H9        1.0  0.89286  0.70051  0.69400  1.0000
  H   H10       1.0  0.39288  0.29950  0.80600  1.0000
  H   H11       1.0  0.10713  0.79949  0.19400  1.0000
  H   H12       1.0  0.60712  0.20050  0.30601  1.0000
  H   H13       1.0  0.10712  0.29950  0.30600  1.0000
  H   H14       1.0  0.60714  0.70050  0.19400  1.0000
  H   H15       1.0  0.89288  0.20051  0.80601  1.0000
  H   H16       1.0  0.39286  0.79949  0.69401  1.0000
  H   H17       1.0  0.75115  0.60915  0.75972  1.0000
  H   H18       1.0  0.25114  0.39085  0.74028  1.0000
  H   H19       1.0  0.24886  0.89085  0.25972  1.0000
  H   H20       1.0  0.74886  0.10914  0.24028  1.0000
  H   H21       1.0  0.24886  0.39085  0.24028  1.0000
  H   H22       1.0  0.74886  0.60916  0.25972  1.0000
  H   H23       1.0  0.75115  0.10915  0.74028  1.0000
  H   H24       1.0  0.25116  0.89083  0.75972  1.0000
  C   C1        1.0  0.08610  0.51282  0.97876  1.0000
  C   C2        1.0  0.58610  0.48718  0.52124  1.0000
  C   C3        1.0  0.91390  0.98719  0.47875  1.0000
  C   C4        1.0  0.41389  0.01282  0.02124  1.0000
  C   C5        1.0  0.91390  0.48718  0.02125  1.0000
  C   C6        1.0  0.41390  0.51282  0.47875  1.0000
  C   C7        1.0  0.08610  0.01283  0.52124  1.0000
  C   C8        1.0  0.58610  0.98717  0.97876  1.0000
  C   C9        1.0  0.98550  0.97784  0.06698  1.0000
  C   C10       1.0  0.48548  0.02216  0.43302  1.0000
  C   C11       1.0  0.01450  0.52217  0.56698  1.0000
  C   C12       1.0  0.51452  0.47784  0.93302  1.0000
  C   C13       1.0  0.01450  0.02216  0.93302  1.0000
  C   C14       1.0  0.51450  0.97784  0.56698  1.0000
  C   C15       1.0  0.98550  0.47785  0.43302  1.0000
  C   C16       1.0  0.48550  0.52215  0.06698  1.0000
  N   N1        1.0  0.80393  0.70441  0.75790  1.0000
  N   N2        1.0  0.30394  0.29558  0.74208  1.0000
  N   N3        1.0  0.19606  0.79559  0.25792  1.0000
  N   N4        1.0  0.69606  0.20441  0.24208  1.0000
  N   N5        1.0  0.19606  0.29559  0.24209  1.0000
  N   N6        1.0  0.69607  0.70441  0.25790  1.0000
  N   N7        1.0  0.80394  0.20442  0.74208  1.0000
  N   N8        1.0  0.30393  0.79558  0.75790  1.0000
  O   O1        1.0  0.93112  0.85597  0.08422  1.0000
  O   O2        1.0  0.43109  0.14402  0.41578  1.0000
  O   O3        1.0  0.06889  0.64404  0.58422  1.0000
  O   O4        1.0  0.56890  0.35598  0.91579  1.0000
  O   O5        1.0  0.06889  0.14402  0.91578  1.0000
  O   O6        1.0  0.56889  0.85598  0.58421  1.0000
  O   O7        1.0  0.93111  0.35599  0.41579  1.0000
  O   O8        1.0  0.43110  0.64401  0.08422  1.0000
  O   O9        1.0  0.11802  0.62813  0.93070  1.0000
  O   O10       1.0  0.61802  0.37187  0.56929  1.0000
  O   O11       1.0  0.88198  0.87188  0.43069  1.0000
  O   O12       1.0  0.38197  0.12813  0.06930  1.0000
  O   O13       1.0  0.88198  0.37187  0.06931  1.0000
  O   O14       1.0  0.38198  0.62813  0.43069  1.0000
  O   O15       1.0  0.11802  0.12814  0.56930  1.0000
  O   O16       1.0  0.61802  0.87186  0.93070  1.0000
  O   O17       1.0  0.01927  0.06280  0.15214  1.0000
  O   O18       1.0  0.51924  0.93719  0.34785  1.0000
  O   O19       1.0  0.98073  0.43722  0.65215  1.0000
  O   O20       1.0  0.48076  0.56281  0.84786  1.0000
  O   O21       1.0  0.98073  0.93720  0.84786  1.0000
  O   O22       1.0  0.48073  0.06280  0.65214  1.0000
  O   O23       1.0  0.01927  0.56280  0.34785  1.0000
  O   O24       1.0  0.51926  0.43719  0.15215  1.0000
  O   O25       1.0  0.18529  0.41456  0.99552  1.0000
  O   O26       1.0  0.68528  0.58544  0.50447  1.0000
  O   O27       1.0  0.81470  0.08545  0.49551  1.0000
  O   O28       1.0  0.31471  0.91455  0.00448  1.0000
  O   O29       1.0  0.81471  0.58544  0.00448  1.0000
  O   O30       1.0  0.31471  0.41455  0.49552  1.0000
  O   O31       1.0  0.18529  0.91456  0.50449  1.0000
  O   O32       1.0  0.68529  0.08544  0.99552  1.0000
