data_image0
_chemical_formula_structural       Cu4H22C18Cl2O20
_chemical_formula_sum              "Cu4 H22 C18 Cl2 O20"
_cell_length_a       7.20069
_cell_length_b       10.2969
_cell_length_c       10.2969
_cell_angle_alpha    88.4287
_cell_angle_beta     90.0068
_cell_angle_gamma    89.9924

_space_group_name_H-M_alt    "P 1"
_space_group_IT_number       1

loop_
  _space_group_symop_operation_xyz
  'x, y, z'

loop_
  _atom_site_type_symbol
  _atom_site_label
  _atom_site_symmetry_multiplicity
  _atom_site_fract_x
  _atom_site_fract_y
  _atom_site_fract_z
  _atom_site_occupancy
  Cu  Cu1       1.0  0.75001  0.76540  0.45528  1.0000
  Cu  Cu2       1.0  0.25000  0.23459  0.54472  1.0000
  Cu  Cu3       1.0  0.74999  0.45528  0.76541  1.0000
  Cu  Cu4       1.0  0.25001  0.54471  0.23460  1.0000
  H   H1        1.0  0.41795  0.69726  0.50095  1.0000
  H   H2        1.0  0.91789  0.30268  0.49905  1.0000
  H   H3        1.0  0.08205  0.50096  0.69727  1.0000
  H   H4        1.0  0.58212  0.49904  0.30268  1.0000
  H   H5        1.0  0.58205  0.30273  0.49905  1.0000
  H   H6        1.0  0.08211  0.69733  0.50095  1.0000
  H   H7        1.0  0.91795  0.49904  0.30273  1.0000
  H   H8        1.0  0.41788  0.50096  0.69734  1.0000
  H   H9        1.0  0.41534  0.77693  0.36974  1.0000
  H   H10       1.0  0.91537  0.22305  0.63028  1.0000
  H   H11       1.0  0.08465  0.36975  0.77693  1.0000
  H   H12       1.0  0.58463  0.63027  0.22305  1.0000
  H   H13       1.0  0.58467  0.22307  0.63027  1.0000
  H   H14       1.0  0.08463  0.77695  0.36972  1.0000
  H   H15       1.0  0.91534  0.63026  0.22307  1.0000
  H   H16       1.0  0.41537  0.36972  0.77695  1.0000
  H   H17       1.0  0.75001  0.11978  0.11976  1.0000
  H   H18       1.0  0.24999  0.88023  0.88024  1.0000
  H   H19       1.0  0.75007  0.01473  0.71645  1.0000
  H   H20       1.0  0.24993  0.98527  0.28355  1.0000
  H   H21       1.0  0.74993  0.71646  0.01471  1.0000
  H   H22       1.0  0.25008  0.28354  0.98529  1.0000
  C   C1        1.0  0.75003  0.08329  0.91445  1.0000
  C   C2        1.0  0.24998  0.91671  0.08555  1.0000
  C   C3        1.0  0.74998  0.91446  0.08328  1.0000
  C   C4        1.0  0.25002  0.08555  0.91671  1.0000
  C   C5        1.0  0.75001  0.04602  0.04601  1.0000
  C   C6        1.0  0.25000  0.95399  0.95398  1.0000
  C   C7        1.0  0.75000  0.85700  0.85700  1.0000
  C   C8        1.0  0.25000  0.14299  0.14301  1.0000
  C   C9        1.0  0.75003  0.22504  0.88148  1.0000
  C   C10       1.0  0.24996  0.77496  0.11851  1.0000
  C   C11       1.0  0.74997  0.88148  0.22503  1.0000
  C   C12       1.0  0.25003  0.11852  0.77497  1.0000
  C   C13       1.0  0.74999  0.75519  0.75520  1.0000
  C   C14       1.0  0.25000  0.24479  0.24481  1.0000
  C   C15       1.0  0.75004  0.98856  0.81963  1.0000
  C   C16       1.0  0.24996  0.01144  0.18036  1.0000
  C   C17       1.0  0.74996  0.81965  0.98854  1.0000
  C   C18       1.0  0.25004  0.18036  0.01145  1.0000
  Cl  Cl1       1.0  0.75001  0.46741  0.46741  1.0000
  Cl  Cl2       1.0  0.25000  0.53259  0.53259  1.0000
  O   O1        1.0  0.75004  0.25979  0.75542  1.0000
  O   O2        1.0  0.24997  0.74021  0.24458  1.0000
  O   O3        1.0  0.74997  0.75542  0.25977  1.0000
  O   O4        1.0  0.25003  0.24458  0.74022  1.0000
  O   O5        1.0  0.75003  0.30811  0.96607  1.0000
  O   O6        1.0  0.24993  0.69189  0.03392  1.0000
  O   O7        1.0  0.74994  0.96608  0.30810  1.0000
  O   O8        1.0  0.25005  0.03393  0.69190  1.0000
  O   O9        1.0  0.75009  0.79818  0.63858  1.0000
  O   O10       1.0  0.24995  0.20180  0.36142  1.0000
  O   O11       1.0  0.74989  0.63860  0.79819  1.0000
  O   O12       1.0  0.25005  0.36140  0.20183  1.0000
  O   O13       1.0  0.47582  0.77395  0.45644  1.0000
  O   O14       1.0  0.97582  0.22600  0.54358  1.0000
  O   O15       1.0  0.02417  0.45644  0.77396  1.0000
  O   O16       1.0  0.52419  0.54358  0.22600  1.0000
  O   O17       1.0  0.52419  0.22604  0.54357  1.0000
  O   O18       1.0  0.02419  0.77400  0.45641  1.0000
  O   O19       1.0  0.97583  0.54357  0.22604  1.0000
  O   O20       1.0  0.47581  0.45642  0.77401  1.0000
