data_image0
_chemical_formula_structural       Pr4H28C28N4O24
_chemical_formula_sum              "Pr4 H28 C28 N4 O24"
_cell_length_a       5.96267
_cell_length_b       8.72095
_cell_length_c       18.417
_cell_angle_alpha    90.0008
_cell_angle_beta     89.9899
_cell_angle_gamma    83.6033

_space_group_name_H-M_alt    "P 1"
_space_group_IT_number       1

loop_
  _space_group_symop_operation_xyz
  'x, y, z'

loop_
  _atom_site_type_symbol
  _atom_site_label
  _atom_site_symmetry_multiplicity
  _atom_site_fract_x
  _atom_site_fract_y
  _atom_site_fract_z
  _atom_site_occupancy
  Pr  Pr1       1.0  0.52281  0.61259  0.39661  1.0000
  Pr  Pr2       1.0  0.97720  0.38737  0.89659  1.0000
  Pr  Pr3       1.0  0.47718  0.38738  0.60341  1.0000
  Pr  Pr4       1.0  0.02282  0.61261  0.10338  1.0000
  H   H1        1.0  0.31022  0.04138  0.28662  1.0000
  H   H2        1.0  0.18981  0.95859  0.78662  1.0000
  H   H3        1.0  0.68978  0.95862  0.71338  1.0000
  H   H4        1.0  0.81020  0.04142  0.21339  1.0000
  H   H5        1.0  0.33502  0.26001  0.19841  1.0000
  H   H6        1.0  0.16502  0.73995  0.69843  1.0000
  H   H7        1.0  0.66499  0.74001  0.80158  1.0000
  H   H8        1.0  0.83501  0.26005  0.30158  1.0000
  H   H9        1.0  0.18803  0.95115  0.02578  1.0000
  H   H10       1.0  0.31192  0.04879  0.52581  1.0000
  H   H11       1.0  0.81209  0.04884  0.97420  1.0000
  H   H12       1.0  0.68794  0.95120  0.47421  1.0000
  H   H13       1.0  0.31556  0.47995  0.27273  1.0000
  H   H14       1.0  0.18444  0.52005  0.77274  1.0000
  H   H15       1.0  0.68446  0.52003  0.72727  1.0000
  H   H16       1.0  0.81554  0.48001  0.22727  1.0000
  H   H17       1.0  0.47743  0.32900  0.29964  1.0000
  H   H18       1.0  0.02259  0.67098  0.79965  1.0000
  H   H19       1.0  0.52255  0.67098  0.70037  1.0000
  H   H20       1.0  0.97741  0.32902  0.20036  1.0000
  H   H21       1.0  0.85060  0.60584  0.56010  1.0000
  H   H22       1.0  0.64937  0.39418  0.06008  1.0000
  H   H23       1.0  0.14936  0.39418  0.43991  1.0000
  H   H24       1.0  0.35063  0.60583  0.93991  1.0000
  H   H25       1.0  0.80839  0.48157  0.49690  1.0000
  H   H26       1.0  0.69158  0.51846  0.99691  1.0000
  H   H27       1.0  0.19160  0.51840  0.50310  1.0000
  H   H28       1.0  0.30844  0.48159  0.00308  1.0000
  C   C1        1.0  0.25628  0.74410  0.24755  1.0000
  C   C2        1.0  0.24373  0.25587  0.74755  1.0000
  C   C3        1.0  0.74377  0.25593  0.75244  1.0000
  C   C4        1.0  0.75625  0.74410  0.25244  1.0000
  C   C5        1.0  0.25423  0.87904  0.20196  1.0000
  C   C6        1.0  0.24578  0.12094  0.70200  1.0000
  C   C7        1.0  0.74583  0.12095  0.79804  1.0000
  C   C8        1.0  0.75420  0.87909  0.29803  1.0000
  C   C9        1.0  0.28848  0.02657  0.22845  1.0000
  C   C10       1.0  0.21155  0.97339  0.72846  1.0000
  C   C11       1.0  0.71155  0.97343  0.77155  1.0000
  C   C12       1.0  0.78843  0.02660  0.27153  1.0000
  C   C13       1.0  0.29802  0.14668  0.18033  1.0000
  C   C14       1.0  0.20197  0.85330  0.68035  1.0000
  C   C15       1.0  0.70200  0.85331  0.81967  1.0000
  C   C16       1.0  0.79800  0.14671  0.31965  1.0000
  C   C17       1.0  0.26202  0.12265  0.10464  1.0000
  C   C18       1.0  0.23802  0.87730  0.60465  1.0000
  C   C19       1.0  0.73804  0.87736  0.89535  1.0000
  C   C20       1.0  0.76194  0.12268  0.39535  1.0000
  C   C21       1.0  0.22073  0.97327  0.08299  1.0000
  C   C22       1.0  0.27925  0.02670  0.58300  1.0000
  C   C23       1.0  0.77936  0.02671  0.91701  1.0000
  C   C24       1.0  0.72064  0.97330  0.41702  1.0000
  C   C25       1.0  0.25551  0.24636  0.05221  1.0000
  C   C26       1.0  0.24449  0.75362  0.55223  1.0000
  C   C27       1.0  0.74451  0.75364  0.94778  1.0000
  C   C28       1.0  0.75549  0.24643  0.44778  1.0000
  N   N1        1.0  0.21828  0.85562  0.12856  1.0000
  N   N2        1.0  0.28168  0.14438  0.62855  1.0000
  N   N3        1.0  0.78179  0.14438  0.87144  1.0000
  N   N4        1.0  0.71824  0.85562  0.37145  1.0000
  O   O1        1.0  0.36758  0.41288  0.31652  1.0000
  O   O2        1.0  0.13243  0.58712  0.81653  1.0000
  O   O3        1.0  0.63242  0.58712  0.68346  1.0000
  O   O4        1.0  0.86756  0.41290  0.18347  1.0000
  O   O5        1.0  0.19177  0.22856  0.98665  1.0000
  O   O6        1.0  0.30820  0.77141  0.48665  1.0000
  O   O7        1.0  0.80826  0.77145  0.01336  1.0000
  O   O8        1.0  0.69180  0.22856  0.51334  1.0000
  O   O9        1.0  0.31328  0.38123  0.07461  1.0000
  O   O10       1.0  0.18675  0.61874  0.57462  1.0000
  O   O11       1.0  0.68674  0.61877  0.92539  1.0000
  O   O12       1.0  0.81322  0.38124  0.42538  1.0000
  O   O13       1.0  0.28061  0.75187  0.31696  1.0000
  O   O14       1.0  0.21944  0.24810  0.81697  1.0000
  O   O15       1.0  0.71936  0.24814  0.68305  1.0000
  O   O16       1.0  0.78058  0.75192  0.18303  1.0000
  O   O17       1.0  0.23951  0.61145  0.21542  1.0000
  O   O18       1.0  0.26044  0.38850  0.71542  1.0000
  O   O19       1.0  0.76055  0.38853  0.78459  1.0000
  O   O20       1.0  0.73953  0.61148  0.28458  1.0000
  O   O21       1.0  0.73278  0.56395  0.53102  1.0000
  O   O22       1.0  0.76718  0.43607  0.03102  1.0000
  O   O23       1.0  0.26713  0.43607  0.46897  1.0000
  O   O24       1.0  0.23284  0.56393  0.96898  1.0000
