data_image0
_chemical_formula_structural       Cd4H20C24S4N12Cl8
_chemical_formula_sum              "Cd4 H20 C24 S4 N12 Cl8"
_cell_length_a       3.84635
_cell_length_b       10.8289
_cell_length_c       22.2693
_cell_angle_alpha    90.0002
_cell_angle_beta     90.0002
_cell_angle_gamma    89.9998

_space_group_name_H-M_alt    "P 1"
_space_group_IT_number       1

loop_
  _space_group_symop_operation_xyz
  'x, y, z'

loop_
  _atom_site_type_symbol
  _atom_site_label
  _atom_site_symmetry_multiplicity
  _atom_site_fract_x
  _atom_site_fract_y
  _atom_site_fract_z
  _atom_site_occupancy
  Cd  Cd1       1.0  0.30303  0.32247  0.42760  1.0000
  Cd  Cd2       1.0  0.19697  0.67752  0.92760  1.0000
  Cd  Cd3       1.0  0.80304  0.17753  0.57240  1.0000
  Cd  Cd4       1.0  0.69697  0.82247  0.07240  1.0000
  H   H1        1.0  0.65634  0.01476  0.33245  1.0000
  H   H2        1.0  0.84366  0.98524  0.83245  1.0000
  H   H3        1.0  0.15635  0.48524  0.66755  1.0000
  H   H4        1.0  0.34365  0.51476  0.16755  1.0000
  H   H5        1.0  0.43182  0.97017  0.39542  1.0000
  H   H6        1.0  0.06818  0.02983  0.89542  1.0000
  H   H7        1.0  0.93182  0.52983  0.60458  1.0000
  H   H8        1.0  0.56817  0.47017  0.10458  1.0000
  H   H9        1.0  0.62261  0.46770  0.29791  1.0000
  H   H10       1.0  0.87737  0.53230  0.79791  1.0000
  H   H11       1.0  0.12263  0.03230  0.70209  1.0000
  H   H12       1.0  0.37737  0.96770  0.20209  1.0000
  H   H13       1.0  0.85998  0.63180  0.23058  1.0000
  H   H14       1.0  0.64002  0.36820  0.73058  1.0000
  H   H15       1.0  0.35999  0.86820  0.76942  1.0000
  H   H16       1.0  0.14002  0.13180  0.26942  1.0000
  H   H17       1.0  0.83051  0.85035  0.25484  1.0000
  H   H18       1.0  0.66950  0.14965  0.75484  1.0000
  H   H19       1.0  0.33052  0.64965  0.74516  1.0000
  H   H20       1.0  0.16948  0.35035  0.24516  1.0000
  C   C1        1.0  0.43952  0.60410  0.36261  1.0000
  C   C2        1.0  0.06047  0.39590  0.86262  1.0000
  C   C3        1.0  0.93953  0.89590  0.63739  1.0000
  C   C4        1.0  0.56048  0.10410  0.13738  1.0000
  C   C5        1.0  0.59738  0.56518  0.30881  1.0000
  C   C6        1.0  0.90261  0.43482  0.80881  1.0000
  C   C7        1.0  0.09739  0.93482  0.69119  1.0000
  C   C8        1.0  0.40261  0.06518  0.19119  1.0000
  C   C9        1.0  0.73054  0.65747  0.27230  1.0000
  C   C10       1.0  0.76945  0.34253  0.77230  1.0000
  C   C11       1.0  0.23055  0.84253  0.72770  1.0000
  C   C12       1.0  0.26945  0.15747  0.22770  1.0000
  C   C13       1.0  0.71329  0.78472  0.28598  1.0000
  C   C14       1.0  0.78671  0.21528  0.78598  1.0000
  C   C15       1.0  0.21330  0.71528  0.71402  1.0000
  C   C16       1.0  0.28671  0.28473  0.21402  1.0000
  C   C17       1.0  0.55260  0.82766  0.33810  1.0000
  C   C18       1.0  0.94740  0.17234  0.83810  1.0000
  C   C19       1.0  0.05260  0.67233  0.66190  1.0000
  C   C20       1.0  0.44740  0.32766  0.16190  1.0000
  C   C21       1.0  0.41549  0.73418  0.37725  1.0000
  C   C22       1.0  0.08450  0.26582  0.87725  1.0000
  C   C23       1.0  0.91549  0.76582  0.62275  1.0000
  C   C24       1.0  0.58451  0.23418  0.12275  1.0000
  S   S1        1.0  0.15725  0.62652  0.46004  1.0000
  S   S2        1.0  0.34275  0.37348  0.96004  1.0000
  S   S3        1.0  0.65725  0.87348  0.53996  1.0000
  S   S4        1.0  0.84274  0.12652  0.03996  1.0000
  N   N1        1.0  0.29833  0.53397  0.40700  1.0000
  N   N2        1.0  0.20167  0.46603  0.90700  1.0000
  N   N3        1.0  0.79834  0.96603  0.59300  1.0000
  N   N4        1.0  0.70166  0.03397  0.09300  1.0000
  N   N5        1.0  0.26274  0.75682  0.43042  1.0000
  N   N6        1.0  0.23727  0.24317  0.93042  1.0000
  N   N7        1.0  0.76273  0.74318  0.56958  1.0000
  N   N8        1.0  0.73727  0.25683  0.06958  1.0000
  N   N9        1.0  0.51462  0.94856  0.35338  1.0000
  N   N10       1.0  0.98538  0.05144  0.85338  1.0000
  N   N11       1.0  0.01461  0.55144  0.64662  1.0000
  N   N12       1.0  0.48538  0.44856  0.14662  1.0000
  Cl  Cl1       1.0  0.30056  0.11257  0.48826  1.0000
  Cl  Cl2       1.0  0.19944  0.88743  0.98826  1.0000
  Cl  Cl3       1.0  0.80056  0.38743  0.51174  1.0000
  Cl  Cl4       1.0  0.69944  0.61257  0.01174  1.0000
  Cl  Cl5       1.0  0.80204  0.25342  0.35805  1.0000
  Cl  Cl6       1.0  0.69796  0.74658  0.85805  1.0000
  Cl  Cl7       1.0  0.30204  0.24658  0.64195  1.0000
  Cl  Cl8       1.0  0.19797  0.75342  0.14195  1.0000
