data_image0
_chemical_formula_structural       Cd2H20C24S4N12Cl4
_chemical_formula_sum              "Cd2 H20 C24 S4 N12 Cl4"
_cell_length_a       3.7691
_cell_length_b       12.959
_cell_length_c       16.0567
_cell_angle_alpha    93.9683
_cell_angle_beta     96.7384
_cell_angle_gamma    98.3497

_space_group_name_H-M_alt    "P 1"
_space_group_IT_number       1

loop_
  _space_group_symop_operation_xyz
  'x, y, z'

loop_
  _atom_site_type_symbol
  _atom_site_label
  _atom_site_symmetry_multiplicity
  _atom_site_fract_x
  _atom_site_fract_y
  _atom_site_fract_z
  _atom_site_occupancy
  Cd  Cd1       1.0  0.84398  0.74991  0.74991  1.0000
  Cd  Cd2       1.0  0.15602  0.25009  0.25009  1.0000
  H   H1        1.0  0.42866  0.58175  0.57330  1.0000
  H   H2        1.0  0.77186  0.91783  0.92610  1.0000
  H   H3        1.0  0.57133  0.41825  0.42670  1.0000
  H   H4        1.0  0.22815  0.08218  0.07390  1.0000
  H   H5        1.0  0.16161  0.80980  0.27184  1.0000
  H   H6        1.0  0.58021  0.69040  0.22788  1.0000
  H   H7        1.0  0.83838  0.19020  0.72816  1.0000
  H   H8        1.0  0.41979  0.30960  0.77212  1.0000
  H   H9        1.0  0.44581  0.90666  0.33390  1.0000
  H   H10       1.0  0.70557  0.59345  0.16588  1.0000
  H   H11       1.0  0.55420  0.09334  0.66610  1.0000
  H   H12       1.0  0.29443  0.40655  0.83412  1.0000
  H   H13       1.0  0.09158  0.51661  0.43103  1.0000
  H   H14       1.0  0.64325  0.98328  0.06841  1.0000
  H   H15       1.0  0.90840  0.48339  0.56897  1.0000
  H   H16       1.0  0.35675  0.01672  0.93160  1.0000
  H   H17       1.0  0.05506  0.62757  0.31552  1.0000
  H   H18       1.0  0.61215  0.87257  0.18409  1.0000
  H   H19       1.0  0.94493  0.37243  0.68448  1.0000
  H   H20       1.0  0.38785  0.12743  0.81592  1.0000
  C   C1        1.0  0.59905  0.73504  0.53183  1.0000
  C   C2        1.0  0.83266  0.76479  0.96786  1.0000
  C   C3        1.0  0.40094  0.26496  0.46817  1.0000
  C   C4        1.0  0.16734  0.23521  0.03214  1.0000
  C   C5        1.0  0.42017  0.63088  0.52123  1.0000
  C   C6        1.0  0.76738  0.86891  0.97832  1.0000
  C   C7        1.0  0.57982  0.36913  0.47877  1.0000
  C   C8        1.0  0.23263  0.13110  0.02169  1.0000
  C   C9        1.0  0.23307  0.59667  0.44278  1.0000
  C   C10       1.0  0.69358  0.90328  0.05678  1.0000
  C   C11       1.0  0.76692  0.40333  0.55722  1.0000
  C   C12       1.0  0.30643  0.09672  0.94322  1.0000
  C   C13       1.0  0.21200  0.66076  0.37509  1.0000
  C   C14       1.0  0.67681  0.83932  0.12456  1.0000
  C   C15       1.0  0.78798  0.33924  0.62491  1.0000
  C   C16       1.0  0.32319  0.16068  0.87544  1.0000
  C   C17       1.0  0.38258  0.76412  0.38293  1.0000
  C   C18       1.0  0.73648  0.73597  0.11683  1.0000
  C   C19       1.0  0.61741  0.23588  0.61707  1.0000
  C   C20       1.0  0.26353  0.26403  0.88318  1.0000
  C   C21       1.0  0.58579  0.80138  0.46301  1.0000
  C   C22       1.0  0.82309  0.69866  0.03685  1.0000
  C   C23       1.0  0.41420  0.19862  0.53699  1.0000
  C   C24       1.0  0.17692  0.30135  0.96315  1.0000
  S   S1        1.0  0.95153  0.90515  0.58034  1.0000
  S   S2        1.0  0.96863  0.59477  0.91962  1.0000
  S   S3        1.0  0.04847  0.09484  0.41966  1.0000
  S   S4        1.0  0.03138  0.40523  0.08038  1.0000
  N   N1        1.0  0.79900  0.78663  0.60210  1.0000
  N   N2        1.0  0.91120  0.71315  0.89768  1.0000
  N   N3        1.0  0.20100  0.21337  0.39790  1.0000
  N   N4        1.0  0.08880  0.28685  0.10232  1.0000
  N   N5        1.0  0.77440  0.89801  0.48288  1.0000
  N   N6        1.0  0.89649  0.60213  0.01714  1.0000
  N   N7        1.0  0.22560  0.10199  0.51712  1.0000
  N   N8        1.0  0.10352  0.39787  0.98286  1.0000
  N   N9        1.0  0.37529  0.82846  0.31792  1.0000
  N   N10       1.0  0.72929  0.67166  0.18184  1.0000
  N   N11       1.0  0.62470  0.17154  0.68208  1.0000
  N   N12       1.0  0.27071  0.32834  0.81816  1.0000
  Cl  Cl1       1.0  0.26242  0.60465  0.73235  1.0000
  Cl  Cl2       1.0  0.42464  0.89523  0.76746  1.0000
  Cl  Cl3       1.0  0.73758  0.39535  0.26765  1.0000
  Cl  Cl4       1.0  0.57536  0.10477  0.23254  1.0000
