data_image0
_chemical_formula_structural       Cd2H10C12S2N6Cl4
_chemical_formula_sum              "Cd2 H10 C12 S2 N6 Cl4"
_cell_length_a       6.82062
_cell_length_b       7.20966
_cell_length_c       10.2083
_cell_angle_alpha    74.0403
_cell_angle_beta     73.2489
_cell_angle_gamma    78.1706

_space_group_name_H-M_alt    "P 1"
_space_group_IT_number       1

loop_
  _space_group_symop_operation_xyz
  'x, y, z'

loop_
  _atom_site_type_symbol
  _atom_site_label
  _atom_site_symmetry_multiplicity
  _atom_site_fract_x
  _atom_site_fract_y
  _atom_site_fract_z
  _atom_site_occupancy
  Cd  Cd1       1.0  0.79354  0.49135  0.40801  1.0000
  Cd  Cd2       1.0  0.20646  0.50865  0.59199  1.0000
  H   H1        1.0  0.40882  0.73693  0.69602  1.0000
  H   H2        1.0  0.59118  0.26307  0.30398  1.0000
  H   H3        1.0  0.26506  0.89623  0.59410  1.0000
  H   H4        1.0  0.73494  0.10378  0.40590  1.0000
  H   H5        1.0  0.63677  0.07260  0.89959  1.0000
  H   H6        1.0  0.36323  0.92740  0.10042  1.0000
  H   H7        1.0  0.90891  0.03088  0.68968  1.0000
  H   H8        1.0  0.09108  0.96913  0.31032  1.0000
  H   H9        1.0  0.66000  0.87586  0.14005  1.0000
  H   H10       1.0  0.33999  0.12413  0.85996  1.0000
  C   C1        1.0  0.96419  0.72873  0.05892  1.0000
  C   C2        1.0  0.03581  0.27128  0.94108  1.0000
  C   C3        1.0  0.13122  0.71270  0.93649  1.0000
  C   C4        1.0  0.86878  0.28730  0.06351  1.0000
  C   C5        1.0  0.11069  0.81833  0.79977  1.0000
  C   C6        1.0  0.88931  0.18167  0.20023  1.0000
  C   C7        1.0  0.77155  0.96572  0.91369  1.0000
  C   C8        1.0  0.22844  0.03427  0.08632  1.0000
  C   C9        1.0  0.92977  0.94430  0.79163  1.0000
  C   C10       1.0  0.07023  0.05571  0.20836  1.0000
  C   C11       1.0  0.78260  0.85986  0.04686  1.0000
  C   C12       1.0  0.21740  0.14015  0.95313  1.0000
  S   S1        1.0  0.24999  0.50412  0.13397  1.0000
  S   S2        1.0  0.75001  0.49588  0.86603  1.0000
  N   N1        1.0  0.01242  0.61108  0.17774  1.0000
  N   N2        1.0  0.98758  0.38892  0.82226  1.0000
  N   N3        1.0  0.26348  0.78240  0.68028  1.0000
  N   N4        1.0  0.73651  0.21760  0.31972  1.0000
  N   N5        1.0  0.29993  0.59240  0.96647  1.0000
  N   N6        1.0  0.70007  0.40760  0.03352  1.0000
  Cl  Cl1       1.0  0.85792  0.73320  0.53705  1.0000
  Cl  Cl2       1.0  0.14208  0.26680  0.46296  1.0000
  Cl  Cl3       1.0  0.44725  0.69274  0.35830  1.0000
  Cl  Cl4       1.0  0.55276  0.30726  0.64170  1.0000
