data_image0
_chemical_formula_structural       Co6H6C6O18
_chemical_formula_sum              "Co6 H6 C6 O18"
_cell_length_a       7.37311
_cell_length_b       7.38617
_cell_length_c       7.46945
_cell_angle_alpha    93.2828
_cell_angle_beta     92.8904
_cell_angle_gamma    93.1392

_space_group_name_H-M_alt    "P 1"
_space_group_IT_number       1

loop_
  _space_group_symop_operation_xyz
  'x, y, z'

loop_
  _atom_site_type_symbol
  _atom_site_label
  _atom_site_symmetry_multiplicity
  _atom_site_fract_x
  _atom_site_fract_y
  _atom_site_fract_z
  _atom_site_occupancy
  Co  Co1       1.0  0.20344  0.46376  0.56886  1.0000
  Co  Co2       1.0  0.55724  0.22057  0.46257  1.0000
  Co  Co3       1.0  0.46761  0.55664  0.22420  1.0000
  Co  Co4       1.0  0.79648  0.53636  0.43114  1.0000
  Co  Co5       1.0  0.44259  0.77960  0.53722  1.0000
  Co  Co6       1.0  0.53273  0.44354  0.77579  1.0000
  H   H1        1.0  0.94051  0.90707  0.65402  1.0000
  H   H2        1.0  0.62830  0.94112  0.90271  1.0000
  H   H3        1.0  0.91788  0.66355  0.95475  1.0000
  H   H4        1.0  0.05924  0.09222  0.34705  1.0000
  H   H5        1.0  0.37052  0.05892  0.09699  1.0000
  H   H6        1.0  0.08327  0.33626  0.04535  1.0000
  C   C1        1.0  0.05893  0.82370  0.63441  1.0000
  C   C2        1.0  0.61354  0.05903  0.81953  1.0000
  C   C3        1.0  0.83622  0.62406  0.06796  1.0000
  C   C4        1.0  0.94089  0.17595  0.36589  1.0000
  C   C5        1.0  0.38569  0.94105  0.18011  1.0000
  C   C6        1.0  0.16473  0.37601  0.93217  1.0000
  O   O1        1.0  0.01904  0.65292  0.59744  1.0000
  O   O2        1.0  0.60121  0.02245  0.64885  1.0000
  O   O3        1.0  0.67169  0.56698  0.02816  1.0000
  O   O4        1.0  0.98074  0.34680  0.40248  1.0000
  O   O5        1.0  0.39816  0.97778  0.35075  1.0000
  O   O6        1.0  0.32923  0.43324  0.97187  1.0000
  O   O7        1.0  0.08588  0.36141  0.77758  1.0000
  O   O8        1.0  0.78506  0.09840  0.34919  1.0000
  O   O9        1.0  0.39066  0.78656  0.10245  1.0000
  O   O10       1.0  0.91462  0.63878  0.22276  1.0000
  O   O11       1.0  0.21470  0.90133  0.65096  1.0000
  O   O12       1.0  0.60915  0.21354  0.89720  1.0000
  O   O13       1.0  0.37719  0.30767  0.60334  1.0000
  O   O14       1.0  0.51672  0.33583  0.27009  1.0000
  O   O15       1.0  0.29846  0.59912  0.39991  1.0000
  O   O16       1.0  0.62275  0.69254  0.39647  1.0000
  O   O17       1.0  0.48329  0.66427  0.72972  1.0000
  O   O18       1.0  0.70161  0.40096  0.60008  1.0000
