data_image0
_chemical_formula_structural       Cu4H40C48I4N12
_chemical_formula_sum              "Cu4 H40 C48 I4 N12"
_cell_length_a       7.29024
_cell_length_b       10.3803
_cell_length_c       16.3324
_cell_angle_alpha    90.0004
_cell_angle_beta     89.9994
_cell_angle_gamma    103.142

_space_group_name_H-M_alt    "P 1"
_space_group_IT_number       1

loop_
  _space_group_symop_operation_xyz
  'x, y, z'

loop_
  _atom_site_type_symbol
  _atom_site_label
  _atom_site_symmetry_multiplicity
  _atom_site_fract_x
  _atom_site_fract_y
  _atom_site_fract_z
  _atom_site_occupancy
  Cu  Cu1       1.0  0.50309  0.94577  0.06771  1.0000
  Cu  Cu2       1.0  0.99690  0.55424  0.56771  1.0000
  Cu  Cu3       1.0  0.49691  0.05423  0.93228  1.0000
  Cu  Cu4       1.0  0.00310  0.44575  0.43229  1.0000
  H   H1        1.0  0.93091  0.05141  0.11602  1.0000
  H   H2        1.0  0.56909  0.44858  0.61603  1.0000
  H   H3        1.0  0.06910  0.94860  0.88397  1.0000
  H   H4        1.0  0.43091  0.55140  0.38398  1.0000
  H   H5        1.0  0.11372  0.06671  0.24542  1.0000
  H   H6        1.0  0.38628  0.43325  0.74543  1.0000
  H   H7        1.0  0.88627  0.93328  0.75458  1.0000
  H   H8        1.0  0.61374  0.56675  0.25459  1.0000
  H   H9        1.0  0.94268  0.97328  0.37538  1.0000
  H   H10       1.0  0.55730  0.52670  0.87538  1.0000
  H   H11       1.0  0.05730  0.02672  0.62462  1.0000
  H   H12       1.0  0.44270  0.47331  0.12463  1.0000
  H   H13       1.0  0.60208  0.86569  0.36741  1.0000
  H   H14       1.0  0.89790  0.63431  0.86742  1.0000
  H   H15       1.0  0.39790  0.13432  0.63258  1.0000
  H   H16       1.0  0.10211  0.36571  0.13259  1.0000
  H   H17       1.0  0.25169  0.76780  0.34685  1.0000
  H   H18       1.0  0.24828  0.73219  0.84686  1.0000
  H   H19       1.0  0.74830  0.23221  0.65314  1.0000
  H   H20       1.0  0.75171  0.26782  0.15314  1.0000
  H   H21       1.0  0.94274  0.68959  0.24957  1.0000
  H   H22       1.0  0.55724  0.81040  0.74958  1.0000
  H   H23       1.0  0.05725  0.31040  0.75042  1.0000
  H   H24       1.0  0.44277  0.18960  0.25042  1.0000
  H   H25       1.0  0.07756  0.83690  0.04046  1.0000
  H   H26       1.0  0.42243  0.66310  0.54047  1.0000
  H   H27       1.0  0.92242  0.16308  0.95953  1.0000
  H   H28       1.0  0.57760  0.33692  0.45953  1.0000
  H   H29       1.0  0.87688  0.76254  0.09897  1.0000
  H   H30       1.0  0.62311  0.73746  0.59898  1.0000
  H   H31       1.0  0.12309  0.23745  0.90103  1.0000
  H   H32       1.0  0.37690  0.26254  0.40103  1.0000
  H   H33       1.0  0.71551  0.54701  0.06557  1.0000
  H   H34       1.0  0.78450  0.95298  0.56557  1.0000
  H   H35       1.0  0.28447  0.45297  0.93443  1.0000
  H   H36       1.0  0.21554  0.04704  0.43444  1.0000
  H   H37       1.0  0.30292  0.66940  0.00268  1.0000
  H   H38       1.0  0.19708  0.83061  0.50269  1.0000
  H   H39       1.0  0.69705  0.33058  0.99732  1.0000
  H   H40       1.0  0.80297  0.16940  0.49731  1.0000
  C   C1        1.0  0.86237  0.01155  0.17302  1.0000
  C   C2        1.0  0.63762  0.48843  0.67303  1.0000
  C   C3        1.0  0.13763  0.98845  0.82697  1.0000
  C   C4        1.0  0.36237  0.51156  0.32698  1.0000
  C   C5        1.0  0.96370  0.02069  0.24585  1.0000
  C   C6        1.0  0.53629  0.47928  0.74585  1.0000
  C   C7        1.0  0.03628  0.97932  0.75415  1.0000
  C   C8        1.0  0.46372  0.52071  0.25416  1.0000
  C   C9        1.0  0.86921  0.96922  0.31709  1.0000
  C   C10       1.0  0.63078  0.53075  0.81710  1.0000
  C   C11       1.0  0.13078  0.03078  0.68291  1.0000
  C   C12       1.0  0.36924  0.46925  0.18291  1.0000
  C   C13       1.0  0.67863  0.90818  0.31290  1.0000
  C   C14       1.0  0.82136  0.59181  0.81291  1.0000
  C   C15       1.0  0.32136  0.09182  0.68709  1.0000
  C   C16       1.0  0.17865  0.40820  0.18709  1.0000
  C   C17       1.0  0.58664  0.90116  0.23732  1.0000
  C   C18       1.0  0.91335  0.59884  0.73732  1.0000
  C   C19       1.0  0.41336  0.09884  0.76268  1.0000
  C   C20       1.0  0.08666  0.40116  0.26269  1.0000
  C   C21       1.0  0.38869  0.83748  0.22593  1.0000
  C   C22       1.0  0.11130  0.66252  0.72594  1.0000
  C   C23       1.0  0.61130  0.16252  0.77406  1.0000
  C   C24       1.0  0.88871  0.33748  0.27406  1.0000
  C   C25       1.0  0.24466  0.77870  0.28106  1.0000
  C   C26       1.0  0.25533  0.72129  0.78106  1.0000
  C   C27       1.0  0.75533  0.22130  0.71894  1.0000
  C   C28       1.0  0.74468  0.27872  0.21894  1.0000
  C   C29       1.0  0.08588  0.73745  0.23290  1.0000
  C   C30       1.0  0.41411  0.76255  0.73290  1.0000
  C   C31       1.0  0.91411  0.26254  0.76710  1.0000
  C   C32       1.0  0.58591  0.23746  0.26710  1.0000
  C   C33       1.0  0.01830  0.75327  0.08106  1.0000
  C   C34       1.0  0.48169  0.74673  0.58106  1.0000
  C   C35       1.0  0.98167  0.24672  0.91894  1.0000
  C   C36       1.0  0.51833  0.25328  0.41894  1.0000
  C   C37       1.0  0.00970  0.62244  0.03901  1.0000
  C   C38       1.0  0.49030  0.87756  0.53902  1.0000
  C   C39       1.0  0.99028  0.37754  0.96099  1.0000
  C   C40       1.0  0.50973  0.12245  0.46098  1.0000
  C   C41       1.0  0.84072  0.52603  0.03687  1.0000
  C   C42       1.0  0.65929  0.97396  0.53687  1.0000
  C   C43       1.0  0.15926  0.47395  0.96313  1.0000
  C   C44       1.0  0.34075  0.02605  0.46313  1.0000
  C   C45       1.0  0.16972  0.59533  0.00166  1.0000
  C   C46       1.0  0.33029  0.90467  0.50167  1.0000
  C   C47       1.0  0.83026  0.40465  0.99834  1.0000
  C   C48       1.0  0.66974  0.09534  0.49833  1.0000
  I   I1        1.0  0.34907  0.15185  0.05404  1.0000
  I   I2        1.0  0.15094  0.34816  0.55405  1.0000
  I   I3        1.0  0.65092  0.84815  0.94595  1.0000
  I   I4        1.0  0.84907  0.65184  0.44595  1.0000
  N   N1        1.0  0.67802  0.95445  0.16823  1.0000
  N   N2        1.0  0.82197  0.54554  0.66824  1.0000
  N   N3        1.0  0.32197  0.04555  0.83176  1.0000
  N   N4        1.0  0.17803  0.45445  0.33177  1.0000
  N   N5        1.0  0.32002  0.83178  0.14868  1.0000
  N   N6        1.0  0.17997  0.66822  0.64868  1.0000
  N   N7        1.0  0.67997  0.16821  0.85132  1.0000
  N   N8        1.0  0.82003  0.33179  0.35132  1.0000
  N   N9        1.0  0.13622  0.77198  0.15422  1.0000
  N   N10       1.0  0.36377  0.72802  0.65423  1.0000
  N   N11       1.0  0.86377  0.22801  0.84577  1.0000
  N   N12       1.0  0.63624  0.27198  0.34577  1.0000
