data_image0
_chemical_formula_structural       Li6H10C18O14
_chemical_formula_sum              "Li6 H10 C18 O14"
_cell_length_a       7.35936
_cell_length_b       8.00532
_cell_length_c       9.42518
_cell_angle_alpha    106.453
_cell_angle_beta     109.279
_cell_angle_gamma    104.323

_space_group_name_H-M_alt    "P 1"
_space_group_IT_number       1

loop_
  _space_group_symop_operation_xyz
  'x, y, z'

loop_
  _atom_site_type_symbol
  _atom_site_label
  _atom_site_symmetry_multiplicity
  _atom_site_fract_x
  _atom_site_fract_y
  _atom_site_fract_z
  _atom_site_occupancy
  Li  Li1       1.0  0.49993  0.50131  0.35917  1.0000
  Li  Li2       1.0  0.50007  0.49870  0.64083  1.0000
  Li  Li3       1.0  0.32469  0.84060  0.04357  1.0000
  Li  Li4       1.0  0.67531  0.15940  0.95643  1.0000
  Li  Li5       1.0  0.37863  0.23054  0.09176  1.0000
  Li  Li6       1.0  0.62137  0.76946  0.90824  1.0000
  H   H1        1.0  0.04860  0.78129  0.14968  1.0000
  H   H2        1.0  0.95140  0.21871  0.85031  1.0000
  H   H3        1.0  0.92422  0.63129  0.52146  1.0000
  H   H4        1.0  0.07578  0.36871  0.47853  1.0000
  H   H5        1.0  0.39848  0.15997  0.65744  1.0000
  H   H6        1.0  0.60152  0.84003  0.34256  1.0000
  H   H7        1.0  0.10326  0.33013  0.17038  1.0000
  H   H8        1.0  0.89674  0.66987  0.82961  1.0000
  H   H9        1.0  0.19376  0.45570  0.08366  1.0000
  H   H10       1.0  0.80623  0.54430  0.91634  1.0000
  C   C1        1.0  0.34403  0.12519  0.34601  1.0000
  C   C2        1.0  0.65597  0.87481  0.65399  1.0000
  C   C3        1.0  0.78928  0.51163  0.18968  1.0000
  C   C4        1.0  0.21072  0.48837  0.81033  1.0000
  C   C5        1.0  0.22349  0.94222  0.78555  1.0000
  C   C6        1.0  0.77651  0.05778  0.21445  1.0000
  C   C7        1.0  0.23824  0.98479  0.39813  1.0000
  C   C8        1.0  0.76176  0.01521  0.60187  1.0000
  C   C9        1.0  0.08511  0.81256  0.27828  1.0000
  C   C10       1.0  0.91489  0.18744  0.72172  1.0000
  C   C11       1.0  0.96795  0.68628  0.32067  1.0000
  C   C12       1.0  0.03205  0.31372  0.67933  1.0000
  C   C13       1.0  0.01339  0.72851  0.48615  1.0000
  C   C14       1.0  0.98661  0.27149  0.51385  1.0000
  C   C15       1.0  0.17221  0.89668  0.60778  1.0000
  C   C16       1.0  0.82780  0.10332  0.39222  1.0000
  C   C17       1.0  0.28063  0.02612  0.56271  1.0000
  C   C18       1.0  0.71937  0.97388  0.43729  1.0000
  O   O1        1.0  0.43165  0.29852  0.44316  1.0000
  O   O2        1.0  0.56835  0.70148  0.55683  1.0000
  O   O3        1.0  0.33578  0.06417  0.20290  1.0000
  O   O4        1.0  0.66422  0.93583  0.79710  1.0000
  O   O5        1.0  0.79142  0.44017  0.05098  1.0000
  O   O6        1.0  0.20858  0.55983  0.94902  1.0000
  O   O7        1.0  0.64354  0.44199  0.22527  1.0000
  O   O8        1.0  0.35646  0.55801  0.77473  1.0000
  O   O9        1.0  0.11893  0.83028  0.82714  1.0000
  O   O10       1.0  0.88107  0.16971  0.17286  1.0000
  O   O11       1.0  0.37633  0.09619  0.89006  1.0000
  O   O12       1.0  0.62367  0.90381  0.10994  1.0000
  O   O13       1.0  0.22924  0.39236  0.16015  1.0000
  O   O14       1.0  0.77076  0.60764  0.83985  1.0000
