data_image0
_chemical_formula_structural       Cd4H32C36O32
_chemical_formula_sum              "Cd4 H32 C36 O32"
_cell_length_a       5.66796
_cell_length_b       9.84043
_cell_length_c       19.7664
_cell_angle_alpha    89.9999
_cell_angle_beta     89.9995
_cell_angle_gamma    88.9903

_space_group_name_H-M_alt    "P 1"
_space_group_IT_number       1

loop_
  _space_group_symop_operation_xyz
  'x, y, z'

loop_
  _atom_site_type_symbol
  _atom_site_label
  _atom_site_symmetry_multiplicity
  _atom_site_fract_x
  _atom_site_fract_y
  _atom_site_fract_z
  _atom_site_occupancy
  Cd  Cd1       1.0  0.25878  0.76403  0.29403  1.0000
  Cd  Cd2       1.0  0.24123  0.73596  0.79403  1.0000
  Cd  Cd3       1.0  0.74122  0.23597  0.70596  1.0000
  Cd  Cd4       1.0  0.75877  0.26403  0.20597  1.0000
  H   H1        1.0  0.80212  0.86801  0.13209  1.0000
  H   H2        1.0  0.69791  0.63199  0.63209  1.0000
  H   H3        1.0  0.19788  0.13199  0.86791  1.0000
  H   H4        1.0  0.30209  0.36802  0.36792  1.0000
  H   H5        1.0  0.04143  0.86674  0.02732  1.0000
  H   H6        1.0  0.45859  0.63326  0.52732  1.0000
  H   H7        1.0  0.95857  0.13326  0.97268  1.0000
  H   H8        1.0  0.54140  0.36675  0.47268  1.0000
  H   H9        1.0  0.78265  0.82571  0.30979  1.0000
  H   H10       1.0  0.71736  0.67428  0.80979  1.0000
  H   H11       1.0  0.21735  0.17429  0.69021  1.0000
  H   H12       1.0  0.28264  0.32571  0.19021  1.0000
  H   H13       1.0  0.89902  0.95969  0.28121  1.0000
  H   H14       1.0  0.60098  0.54030  0.78121  1.0000
  H   H15       1.0  0.10097  0.04031  0.71879  1.0000
  H   H16       1.0  0.39902  0.45970  0.21879  1.0000
  H   H17       1.0  0.49078  0.01365  0.32919  1.0000
  H   H18       1.0  0.00922  0.48634  0.82919  1.0000
  H   H19       1.0  0.50920  0.98635  0.67081  1.0000
  H   H20       1.0  0.99079  0.51365  0.17081  1.0000
  H   H21       1.0  0.24825  0.05393  0.29117  1.0000
  H   H22       1.0  0.25175  0.44606  0.79117  1.0000
  H   H23       1.0  0.75173  0.94607  0.70883  1.0000
  H   H24       1.0  0.74826  0.55393  0.20883  1.0000
  H   H25       1.0  0.99280  0.53369  0.29205  1.0000
  H   H26       1.0  0.50718  0.96631  0.79205  1.0000
  H   H27       1.0  0.00720  0.46631  0.70795  1.0000
  H   H28       1.0  0.49280  0.03368  0.20795  1.0000
  H   H29       1.0  0.90262  0.61843  0.35467  1.0000
  H   H30       1.0  0.59737  0.88157  0.85467  1.0000
  H   H31       1.0  0.09737  0.38157  0.64532  1.0000
  H   H32       1.0  0.40262  0.11842  0.14533  1.0000
  C   C1        1.0  0.58260  0.70235  0.10050  1.0000
  C   C2        1.0  0.91742  0.79765  0.60050  1.0000
  C   C3        1.0  0.41741  0.29764  0.89950  1.0000
  C   C4        1.0  0.08259  0.20236  0.39950  1.0000
  C   C5        1.0  0.76557  0.79497  0.09222  1.0000
  C   C6        1.0  0.73446  0.70503  0.59223  1.0000
  C   C7        1.0  0.23444  0.20503  0.90778  1.0000
  C   C8        1.0  0.26556  0.29498  0.40778  1.0000
  C   C9        1.0  0.89942  0.79421  0.03321  1.0000
  C   C10       1.0  0.60060  0.70579  0.53321  1.0000
  C   C11       1.0  0.10057  0.20580  0.96679  1.0000
  C   C12       1.0  0.39940  0.29422  0.46679  1.0000
  C   C13       1.0  0.85544  0.70089  0.98145  1.0000
  C   C14       1.0  0.64456  0.79912  0.48145  1.0000
  C   C15       1.0  0.14456  0.29912  0.01855  1.0000
  C   C16       1.0  0.35544  0.20089  0.51855  1.0000
  C   C17       1.0  0.68213  0.60205  0.99112  1.0000
  C   C18       1.0  0.81785  0.89796  0.49112  1.0000
  C   C19       1.0  0.31786  0.39796  0.00888  1.0000
  C   C20       1.0  0.18213  0.10205  0.50888  1.0000
  C   C21       1.0  0.54238  0.60460  0.05023  1.0000
  C   C22       1.0  0.95762  0.89541  0.55023  1.0000
  C   C23       1.0  0.45762  0.39540  0.94977  1.0000
  C   C24       1.0  0.04236  0.10460  0.44977  1.0000
  C   C25       1.0  0.65142  0.49237  0.94139  1.0000
  C   C26       1.0  0.84859  0.00763  0.44140  1.0000
  C   C27       1.0  0.34859  0.50763  0.05860  1.0000
  C   C28       1.0  0.15142  0.99238  0.55860  1.0000
  C   C29       1.0  0.44077  0.71286  0.16460  1.0000
  C   C30       1.0  0.05924  0.78713  0.66460  1.0000
  C   C31       1.0  0.55924  0.28713  0.83540  1.0000
  C   C32       1.0  0.94074  0.21287  0.33540  1.0000
  C   C33       1.0  0.99273  0.71495  0.91683  1.0000
  C   C34       1.0  0.50727  0.78504  0.41683  1.0000
  C   C35       1.0  0.00728  0.28504  0.08317  1.0000
  C   C36       1.0  0.49272  0.21496  0.58317  1.0000
  O   O1        1.0  0.49872  0.63314  0.21467  1.0000
  O   O2        1.0  0.00129  0.86685  0.71467  1.0000
  O   O3        1.0  0.50130  0.36684  0.78533  1.0000
  O   O4        1.0  0.99872  0.13314  0.28533  1.0000
  O   O5        1.0  0.28846  0.80543  0.17085  1.0000
  O   O6        1.0  0.21154  0.69458  0.67085  1.0000
  O   O7        1.0  0.71155  0.19457  0.82916  1.0000
  O   O8        1.0  0.78845  0.30543  0.32915  1.0000
  O   O9        1.0  0.88486  0.76905  0.86568  1.0000
  O   O10       1.0  0.61514  0.73095  0.36568  1.0000
  O   O11       1.0  0.11515  0.23095  0.13433  1.0000
  O   O12       1.0  0.38484  0.26906  0.63432  1.0000
  O   O13       1.0  0.20804  0.68190  0.91594  1.0000
  O   O14       1.0  0.29197  0.81809  0.41595  1.0000
  O   O15       1.0  0.79196  0.31810  0.08406  1.0000
  O   O16       1.0  0.70805  0.18191  0.58405  1.0000
  O   O17       1.0  0.79219  0.47748  0.89345  1.0000
  O   O18       1.0  0.70781  0.02250  0.39345  1.0000
  O   O19       1.0  0.20782  0.52251  0.10655  1.0000
  O   O20       1.0  0.29218  0.97750  0.60655  1.0000
  O   O21       1.0  0.88838  0.86064  0.27402  1.0000
  O   O22       1.0  0.61163  0.63935  0.77402  1.0000
  O   O23       1.0  0.11162  0.13936  0.72598  1.0000
  O   O24       1.0  0.38837  0.36065  0.22598  1.0000
  O   O25       1.0  0.39440  0.99356  0.28904  1.0000
  O   O26       1.0  0.10560  0.50644  0.78904  1.0000
  O   O27       1.0  0.60558  0.00645  0.71095  1.0000
  O   O28       1.0  0.89442  0.49356  0.21096  1.0000
  O   O29       1.0  0.04780  0.58211  0.33324  1.0000
  O   O30       1.0  0.45219  0.91789  0.83324  1.0000
  O   O31       1.0  0.95219  0.41789  0.66676  1.0000
  O   O32       1.0  0.54781  0.08210  0.16676  1.0000
