data_image0
_chemical_formula_structural       Nd2H10C20O18
_chemical_formula_sum              "Nd2 H10 C20 O18"
_cell_length_a       6.3394
_cell_length_b       9.34883
_cell_length_c       9.65549
_cell_angle_alpha    88.057
_cell_angle_beta     74.4227
_cell_angle_gamma    76.9895

_space_group_name_H-M_alt    "P 1"
_space_group_IT_number       1

loop_
  _space_group_symop_operation_xyz
  'x, y, z'

loop_
  _atom_site_type_symbol
  _atom_site_label
  _atom_site_symmetry_multiplicity
  _atom_site_fract_x
  _atom_site_fract_y
  _atom_site_fract_z
  _atom_site_occupancy
  Nd  Nd1       1.0  0.35224  0.94114  0.21987  1.0000
  Nd  Nd2       1.0  0.64777  0.05886  0.78013  1.0000
  H   H1        1.0  0.70163  0.56421  0.87354  1.0000
  H   H2        1.0  0.29837  0.43579  0.12646  1.0000
  H   H3        1.0  0.18227  0.65990  0.60583  1.0000
  H   H4        1.0  0.81773  0.34011  0.39417  1.0000
  H   H5        1.0  0.51676  0.42487  0.76120  1.0000
  H   H6        1.0  0.48324  0.57513  0.23880  1.0000
  H   H7        1.0  0.77158  0.07202  0.12594  1.0000
  H   H8        1.0  0.22842  0.92798  0.87406  1.0000
  H   H9        1.0  0.77641  0.01146  0.27939  1.0000
  H   H10       1.0  0.22359  0.98854  0.72061  1.0000
  C   C1        1.0  0.07345  0.35363  0.03507  1.0000
  C   C2        1.0  0.92656  0.64637  0.96493  1.0000
  C   C3        1.0  0.90316  0.39003  0.96377  1.0000
  C   C4        1.0  0.09684  0.60997  0.03623  1.0000
  C   C5        1.0  0.83231  0.53629  0.92982  1.0000
  C   C6        1.0  0.16769  0.46370  0.07018  1.0000
  C   C7        1.0  0.15938  0.20403  0.08480  1.0000
  C   C8        1.0  0.84062  0.79597  0.91520  1.0000
  C   C9        1.0  0.79842  0.27795  0.91953  1.0000
  C   C10       1.0  0.20158  0.72205  0.08047  1.0000
  C   C11       1.0  0.05744  0.34449  0.51407  1.0000
  C   C12       1.0  0.94256  0.65551  0.48593  1.0000
  C   C13       1.0  0.16120  0.43778  0.57190  1.0000
  C   C14       1.0  0.83880  0.56222  0.42810  1.0000
  C   C15       1.0  0.10284  0.59064  0.55741  1.0000
  C   C16       1.0  0.89716  0.40937  0.44258  1.0000
  C   C17       1.0  0.10924  0.17784  0.52427  1.0000
  C   C18       1.0  0.89075  0.82216  0.47573  1.0000
  C   C19       1.0  0.33315  0.37655  0.64922  1.0000
  C   C20       1.0  0.66685  0.62345  0.35078  1.0000
  O   O1        1.0  0.04791  0.15907  0.19977  1.0000
  O   O2        1.0  0.95209  0.84093  0.80023  1.0000
  O   O3        1.0  0.35700  0.13160  0.01892  1.0000
  O   O4        1.0  0.64300  0.86840  0.98108  1.0000
  O   O5        1.0  0.85566  0.14367  0.94900  1.0000
  O   O6        1.0  0.14435  0.85632  0.05100  1.0000
  O   O7        1.0  0.65240  0.31808  0.84802  1.0000
  O   O8        1.0  0.34759  0.68192  0.15198  1.0000
  O   O9        1.0  0.26479  0.10515  0.42517  1.0000
  O   O10       1.0  0.73521  0.89485  0.57482  1.0000
  O   O11       1.0  0.98724  0.12238  0.62933  1.0000
  O   O12       1.0  0.01275  0.87762  0.37067  1.0000
  O   O13       1.0  0.40027  0.24175  0.66053  1.0000
  O   O14       1.0  0.59973  0.75826  0.33947  1.0000
  O   O15       1.0  0.40786  0.47633  0.70481  1.0000
  O   O16       1.0  0.59214  0.52368  0.29519  1.0000
  O   O17       1.0  0.67894  0.03862  0.21488  1.0000
  O   O18       1.0  0.32106  0.96137  0.78512  1.0000
