data_image0
_chemical_formula_structural       Cu2H36C30N12Cl2
_chemical_formula_sum              "Cu2 H36 C30 N12 Cl2"
_cell_length_a       9.33772
_cell_length_b       9.33768
_cell_length_c       9.33773
_cell_angle_alpha    78.2088
_cell_angle_beta     78.209
_cell_angle_gamma    78.2089

_space_group_name_H-M_alt    "P 1"
_space_group_IT_number       1

loop_
  _space_group_symop_operation_xyz
  'x, y, z'

loop_
  _atom_site_type_symbol
  _atom_site_label
  _atom_site_symmetry_multiplicity
  _atom_site_fract_x
  _atom_site_fract_y
  _atom_site_fract_z
  _atom_site_occupancy
  Cu  Cu1       1.0  0.36985  0.36986  0.36985  1.0000
  Cu  Cu2       1.0  0.63015  0.63015  0.63014  1.0000
  H   H1        1.0  0.25430  0.25131  0.94589  1.0000
  H   H2        1.0  0.94589  0.25430  0.25132  1.0000
  H   H3        1.0  0.25132  0.94590  0.25429  1.0000
  H   H4        1.0  0.74570  0.74868  0.05411  1.0000
  H   H5        1.0  0.05411  0.74570  0.74868  1.0000
  H   H6        1.0  0.74868  0.05411  0.74571  1.0000
  H   H7        1.0  0.45252  0.23789  0.67703  1.0000
  H   H8        1.0  0.67703  0.45252  0.23788  1.0000
  H   H9        1.0  0.23789  0.67703  0.45252  1.0000
  H   H10       1.0  0.54748  0.76212  0.32297  1.0000
  H   H11       1.0  0.32297  0.54748  0.76212  1.0000
  H   H12       1.0  0.76212  0.32297  0.54748  1.0000
  H   H13       1.0  0.90098  0.48817  0.87991  1.0000
  H   H14       1.0  0.87991  0.90098  0.48817  1.0000
  H   H15       1.0  0.48818  0.87991  0.90097  1.0000
  H   H16       1.0  0.09902  0.51183  0.12009  1.0000
  H   H17       1.0  0.12009  0.09902  0.51183  1.0000
  H   H18       1.0  0.51183  0.12009  0.09902  1.0000
  H   H19       1.0  0.99338  0.35367  0.01284  1.0000
  H   H20       1.0  0.01284  0.99338  0.35367  1.0000
  H   H21       1.0  0.35368  0.01284  0.99338  1.0000
  H   H22       1.0  0.00661  0.64633  0.98716  1.0000
  H   H23       1.0  0.98716  0.00662  0.64633  1.0000
  H   H24       1.0  0.64632  0.98716  0.00662  1.0000
  H   H25       1.0  0.89921  0.29526  0.89247  1.0000
  H   H26       1.0  0.89248  0.89921  0.29527  1.0000
  H   H27       1.0  0.29527  0.89248  0.89920  1.0000
  H   H28       1.0  0.10079  0.70473  0.10752  1.0000
  H   H29       1.0  0.10752  0.10079  0.70473  1.0000
  H   H30       1.0  0.70473  0.10752  0.10079  1.0000
  H   H31       1.0  0.89947  0.52805  0.64766  1.0000
  H   H32       1.0  0.64766  0.89946  0.52805  1.0000
  H   H33       1.0  0.52805  0.64766  0.89946  1.0000
  H   H34       1.0  0.10054  0.47195  0.35233  1.0000
  H   H35       1.0  0.35233  0.10054  0.47195  1.0000
  H   H36       1.0  0.47194  0.35234  0.10054  1.0000
  C   C1        1.0  0.99864  0.48459  0.57427  1.0000
  C   C2        1.0  0.57426  0.99864  0.48460  1.0000
  C   C3        1.0  0.48460  0.57427  0.99864  1.0000
  C   C4        1.0  0.00136  0.51540  0.42573  1.0000
  C   C5        1.0  0.42573  0.00136  0.51540  1.0000
  C   C6        1.0  0.51540  0.42573  0.00136  1.0000
  C   C7        1.0  0.11990  0.40159  0.64383  1.0000
  C   C8        1.0  0.64383  0.11990  0.40160  1.0000
  C   C9        1.0  0.40160  0.64383  0.11989  1.0000
  C   C10       1.0  0.88011  0.59840  0.35617  1.0000
  C   C11       1.0  0.35617  0.88010  0.59840  1.0000
  C   C12       1.0  0.59840  0.35617  0.88010  1.0000
  C   C13       1.0  0.23986  0.28829  0.83071  1.0000
  C   C14       1.0  0.83071  0.23986  0.28829  1.0000
  C   C15       1.0  0.28830  0.83071  0.23986  1.0000
  C   C16       1.0  0.76014  0.71171  0.16929  1.0000
  C   C17       1.0  0.16929  0.76014  0.71171  1.0000
  C   C18       1.0  0.71171  0.16929  0.76014  1.0000
  C   C19       1.0  0.33554  0.28449  0.69733  1.0000
  C   C20       1.0  0.69733  0.33554  0.28449  1.0000
  C   C21       1.0  0.28450  0.69733  0.33553  1.0000
  C   C22       1.0  0.66447  0.71551  0.30267  1.0000
  C   C23       1.0  0.30267  0.66447  0.71551  1.0000
  C   C24       1.0  0.71551  0.30267  0.66447  1.0000
  C   C25       1.0  0.96609  0.37620  0.90115  1.0000
  C   C26       1.0  0.90115  0.96609  0.37620  1.0000
  C   C27       1.0  0.37621  0.90115  0.96609  1.0000
  C   C28       1.0  0.03391  0.62380  0.09885  1.0000
  C   C29       1.0  0.09885  0.03391  0.62380  1.0000
  C   C30       1.0  0.62380  0.09885  0.03391  1.0000
  N   N1        1.0  0.26161  0.35404  0.58178  1.0000
  N   N2        1.0  0.58178  0.26160  0.35404  1.0000
  N   N3        1.0  0.35404  0.58179  0.26160  1.0000
  N   N4        1.0  0.73840  0.64596  0.41822  1.0000
  N   N5        1.0  0.41822  0.73840  0.64596  1.0000
  N   N6        1.0  0.64596  0.41821  0.73840  1.0000
  N   N7        1.0  0.10469  0.36199  0.79596  1.0000
  N   N8        1.0  0.79596  0.10469  0.36199  1.0000
  N   N9        1.0  0.36199  0.79596  0.10469  1.0000
  N   N10       1.0  0.89531  0.63801  0.20405  1.0000
  N   N11       1.0  0.20404  0.89531  0.63801  1.0000
  N   N12       1.0  0.63801  0.20404  0.89531  1.0000
  Cl  Cl1       1.0  0.23508  0.23508  0.23508  1.0000
  Cl  Cl2       1.0  0.76492  0.76492  0.76492  1.0000
