data_image0
_chemical_formula_structural       Cu2H24C18N4O8
_chemical_formula_sum              "Cu2 H24 C18 N4 O8"
_cell_length_a       7.94897
_cell_length_b       8.11505
_cell_length_c       10.5468
_cell_angle_alpha    105.145
_cell_angle_beta     114.188
_cell_angle_gamma    92.9369

_space_group_name_H-M_alt    "P 1"
_space_group_IT_number       1

loop_
  _space_group_symop_operation_xyz
  'x, y, z'

loop_
  _atom_site_type_symbol
  _atom_site_label
  _atom_site_symmetry_multiplicity
  _atom_site_fract_x
  _atom_site_fract_y
  _atom_site_fract_z
  _atom_site_occupancy
  Cu  Cu1       1.0  0.04979  0.58919  0.13869  1.0000
  Cu  Cu2       1.0  0.95022  0.41080  0.86131  1.0000
  H   H1        1.0  0.85405  0.98201  0.86438  1.0000
  H   H2        1.0  0.14602  0.01794  0.13567  1.0000
  H   H3        1.0  0.70194  0.96370  0.94566  1.0000
  H   H4        1.0  0.29809  0.03635  0.05439  1.0000
  H   H5        1.0  0.63205  0.84099  0.75773  1.0000
  H   H6        1.0  0.36795  0.15905  0.24229  1.0000
  H   H7        1.0  0.48666  0.13260  0.92513  1.0000
  H   H8        1.0  0.51338  0.86739  0.07483  1.0000
  H   H9        1.0  0.50305  0.31537  0.07179  1.0000
  H   H10       1.0  0.49697  0.68461  0.92818  1.0000
  H   H11       1.0  0.38920  0.31596  0.88762  1.0000
  H   H12       1.0  0.61084  0.68403  0.11236  1.0000
  H   H13       1.0  0.31006  0.10303  0.64467  1.0000
  H   H14       1.0  0.68992  0.89700  0.35531  1.0000
  H   H15       1.0  0.27166  0.97090  0.36139  1.0000
  H   H16       1.0  0.72830  0.02911  0.63859  1.0000
  H   H17       1.0  0.00331  0.79443  0.69972  1.0000
  H   H18       1.0  0.99668  0.20556  0.30025  1.0000
  H   H19       1.0  0.14660  0.00379  0.77777  1.0000
  H   H20       1.0  0.85336  0.99620  0.22221  1.0000
  H   H21       1.0  0.24967  0.81542  0.80068  1.0000
  H   H22       1.0  0.75033  0.18459  0.19931  1.0000
  H   H23       1.0  0.92314  0.46082  0.33212  1.0000
  H   H24       1.0  0.07683  0.53919  0.66791  1.0000
  C   C1        1.0  0.83997  0.74519  0.91565  1.0000
  C   C2        1.0  0.16000  0.25479  0.08437  1.0000
  C   C3        1.0  0.74923  0.89104  0.86719  1.0000
  C   C4        1.0  0.25082  0.10896  0.13286  1.0000
  C   C5        1.0  0.68925  0.35420  0.97598  1.0000
  C   C6        1.0  0.31077  0.64580  0.02400  1.0000
  C   C7        1.0  0.50626  0.27449  0.96552  1.0000
  C   C8        1.0  0.49374  0.72550  0.03445  1.0000
  C   C9        1.0  0.09094  0.70373  0.46842  1.0000
  C   C10       1.0  0.90905  0.29627  0.53158  1.0000
  C   C11       1.0  0.24454  0.97666  0.56385  1.0000
  C   C12       1.0  0.75546  0.02336  0.43614  1.0000
  C   C13       1.0  0.22257  0.90965  0.42272  1.0000
  C   C14       1.0  0.77741  0.09036  0.57727  1.0000
  C   C15       1.0  0.13963  0.86630  0.72543  1.0000
  C   C16       1.0  0.86035  0.13369  0.27457  1.0000
  C   C17       1.0  0.99854  0.53456  0.44752  1.0000
  C   C18       1.0  0.00144  0.46545  0.55248  1.0000
  N   N1        1.0  0.16054  0.84664  0.59183  1.0000
  N   N2        1.0  0.83947  0.15337  0.40816  1.0000
  N   N3        1.0  0.12583  0.74271  0.36369  1.0000
  N   N4        1.0  0.87418  0.25731  0.63631  1.0000
  O   O1        1.0  0.91826  0.76777  0.05313  1.0000
  O   O2        1.0  0.08172  0.23219  0.94689  1.0000
  O   O3        1.0  0.83369  0.61371  0.81566  1.0000
  O   O4        1.0  0.16625  0.38627  0.18436  1.0000
  O   O5        1.0  0.71490  0.30837  0.86142  1.0000
  O   O6        1.0  0.28512  0.69162  0.13857  1.0000
  O   O7        1.0  0.80179  0.46227  0.09922  1.0000
  O   O8        1.0  0.19822  0.53773  0.90078  1.0000
