data_image0
_chemical_formula_structural       V4Cu4H42C42N12O12
_chemical_formula_sum              "V4 Cu4 H42 C42 N12 O12"
_cell_length_a       9.56262
_cell_length_b       11.3694
_cell_length_c       12.0231
_cell_angle_alpha    71.2275
_cell_angle_beta     81.9428
_cell_angle_gamma    75.4387

_space_group_name_H-M_alt    "P 1"
_space_group_IT_number       1

loop_
  _space_group_symop_operation_xyz
  'x, y, z'

loop_
  _atom_site_type_symbol
  _atom_site_label
  _atom_site_symmetry_multiplicity
  _atom_site_fract_x
  _atom_site_fract_y
  _atom_site_fract_z
  _atom_site_occupancy
  V   V1        1.0  0.01383  0.08652  0.15598  1.0000
  V   V2        1.0  0.98617  0.91347  0.84401  1.0000
  V   V3        1.0  0.11312  0.78163  0.12229  1.0000
  V   V4        1.0  0.88688  0.21836  0.87770  1.0000
  Cu  Cu1       1.0  0.36732  0.17311  0.06187  1.0000
  Cu  Cu2       1.0  0.63268  0.82689  0.93813  1.0000
  Cu  Cu3       1.0  0.00498  0.52725  0.27781  1.0000
  Cu  Cu4       1.0  0.99502  0.47275  0.72219  1.0000
  H   H1        1.0  0.69930  0.04682  0.08855  1.0000
  H   H2        1.0  0.30070  0.95318  0.91145  1.0000
  H   H3        1.0  0.05368  0.13700  0.63591  1.0000
  H   H4        1.0  0.94632  0.86300  0.36410  1.0000
  H   H5        1.0  0.09029  0.38541  0.99680  1.0000
  H   H6        1.0  0.90971  0.61459  0.00320  1.0000
  H   H7        1.0  0.67177  0.59086  0.69341  1.0000
  H   H8        1.0  0.32823  0.40914  0.30659  1.0000
  H   H9        1.0  0.50416  0.64609  0.84453  1.0000
  H   H10       1.0  0.49584  0.35391  0.15547  1.0000
  H   H11       1.0  0.32740  0.73853  0.80964  1.0000
  H   H12       1.0  0.67260  0.26147  0.19037  1.0000
  H   H13       1.0  0.11569  0.63448  0.86714  1.0000
  H   H14       1.0  0.88431  0.36552  0.13286  1.0000
  H   H15       1.0  0.64281  0.61627  0.29468  1.0000
  H   H16       1.0  0.35719  0.38373  0.70532  1.0000
  H   H17       1.0  0.45372  0.65424  0.27497  1.0000
  H   H18       1.0  0.54628  0.34576  0.72503  1.0000
  H   H19       1.0  0.72948  0.60713  0.48195  1.0000
  H   H20       1.0  0.27052  0.39287  0.51805  1.0000
  H   H21       1.0  0.53310  0.39246  0.91678  1.0000
  H   H22       1.0  0.46690  0.60754  0.08322  1.0000
  H   H23       1.0  0.13803  0.24764  0.26574  1.0000
  H   H24       1.0  0.86196  0.75237  0.73426  1.0000
  H   H25       1.0  0.21732  0.71392  0.63325  1.0000
  H   H26       1.0  0.78268  0.28608  0.36675  1.0000
  H   H27       1.0  0.41798  0.09150  0.29702  1.0000
  H   H28       1.0  0.58202  0.90850  0.70298  1.0000
  H   H29       1.0  0.94534  0.39767  0.54637  1.0000
  H   H30       1.0  0.05466  0.60232  0.45363  1.0000
  H   H31       1.0  0.78053  0.79205  0.21901  1.0000
  H   H32       1.0  0.21947  0.20794  0.78099  1.0000
  H   H33       1.0  0.27468  0.72326  0.42336  1.0000
  H   H34       1.0  0.72532  0.27674  0.57664  1.0000
  H   H35       1.0  0.32432  0.93355  0.66804  1.0000
  H   H36       1.0  0.67567  0.06645  0.33197  1.0000
  H   H37       1.0  0.18893  0.01223  0.37542  1.0000
  H   H38       1.0  0.81106  0.98777  0.62458  1.0000
  H   H39       1.0  0.14751  0.96216  0.53118  1.0000
  H   H40       1.0  0.85248  0.03784  0.46883  1.0000
  H   H41       1.0  0.32365  0.89706  0.20536  1.0000
  H   H42       1.0  0.67635  0.10295  0.79464  1.0000
  C   C1        1.0  0.63296  0.97859  0.13302  1.0000
  C   C2        1.0  0.36704  0.02141  0.86699  1.0000
  C   C3        1.0  0.05564  0.20071  0.54679  1.0000
  C   C4        1.0  0.94436  0.79929  0.45322  1.0000
  C   C5        1.0  0.18476  0.42517  0.96295  1.0000
  C   C6        1.0  0.81524  0.57483  0.03705  1.0000
  C   C7        1.0  0.44069  0.65204  0.67731  1.0000
  C   C8        1.0  0.55931  0.34796  0.32269  1.0000
  C   C9        1.0  0.58435  0.62117  0.63400  1.0000
  C   C10       1.0  0.41564  0.37884  0.36600  1.0000
  C   C11       1.0  0.40592  0.65129  0.80399  1.0000
  C   C12       1.0  0.59408  0.34871  0.19601  1.0000
  C   C13       1.0  0.19559  0.54694  0.89836  1.0000
  C   C14       1.0  0.80441  0.45306  0.10164  1.0000
  C   C15       1.0  0.53915  0.67979  0.30877  1.0000
  C   C16       1.0  0.46085  0.32021  0.69123  1.0000
  C   C17       1.0  0.61688  0.62992  0.51512  1.0000
  C   C18       1.0  0.38311  0.37008  0.48488  1.0000
  C   C19       1.0  0.41579  0.42381  0.92569  1.0000
  C   C20       1.0  0.58421  0.57620  0.07431  1.0000
  C   C21       1.0  0.10168  0.25726  0.35302  1.0000
  C   C22       1.0  0.89832  0.74274  0.64698  1.0000
  C   C23       1.0  0.32952  0.68790  0.60059  1.0000
  C   C24       1.0  0.67048  0.31210  0.39941  1.0000
  C   C25       1.0  0.45395  0.05094  0.38628  1.0000
  C   C26       1.0  0.54605  0.94907  0.61372  1.0000
  C   C27       1.0  0.50618  0.66818  0.43792  1.0000
  C   C28       1.0  0.49382  0.33182  0.56208  1.0000
  C   C29       1.0  0.00284  0.32929  0.50110  1.0000
  C   C30       1.0  0.99716  0.67071  0.49890  1.0000
  C   C31       1.0  0.35516  0.01254  0.48031  1.0000
  C   C32       1.0  0.64483  0.98746  0.51969  1.0000
  C   C33       1.0  0.67447  0.85345  0.19894  1.0000
  C   C34       1.0  0.32553  0.14655  0.80105  1.0000
  C   C35       1.0  0.36218  0.69517  0.48231  1.0000
  C   C36       1.0  0.63782  0.30483  0.51769  1.0000
  C   C37       1.0  0.40185  0.96233  0.59461  1.0000
  C   C38       1.0  0.59814  0.03767  0.40539  1.0000
  C   C39       1.0  0.19895  0.02803  0.45897  1.0000
  C   C40       1.0  0.80105  0.97198  0.54103  1.0000
  C   C41       1.0  0.43562  0.90568  0.19216  1.0000
  C   C42       1.0  0.56438  0.09432  0.80784  1.0000
  N   N1        1.0  0.32278  0.34913  0.97943  1.0000
  N   N2        1.0  0.67722  0.65087  0.02057  1.0000
  N   N3        1.0  0.11648  0.15760  0.45219  1.0000
  N   N4        1.0  0.88351  0.84240  0.54781  1.0000
  N   N5        1.0  0.03234  0.36396  0.37984  1.0000
  N   N6        1.0  0.96766  0.63604  0.62016  1.0000
  N   N7        1.0  0.54877  0.80911  0.23535  1.0000
  N   N8        1.0  0.45123  0.19089  0.76465  1.0000
  N   N9        1.0  0.34180  0.54438  0.87619  1.0000
  N   N10       1.0  0.65820  0.45562  0.12381  1.0000
  N   N11       1.0  0.48349  0.01036  0.12984  1.0000
  N   N12       1.0  0.51651  0.98964  0.87016  1.0000
  O   O1        1.0  0.98957  0.68906  0.18625  1.0000
  O   O2        1.0  0.01044  0.31093  0.81373  1.0000
  O   O3        1.0  0.15713  0.15235  0.13431  1.0000
  O   O4        1.0  0.84288  0.84765  0.86568  1.0000
  O   O5        1.0  0.07392  0.91599  0.17727  1.0000
  O   O6        1.0  0.92609  0.08401  0.82272  1.0000
  O   O7        1.0  0.91918  0.11002  0.27508  1.0000
  O   O8        1.0  0.08083  0.88998  0.72491  1.0000
  O   O9        1.0  0.27735  0.69970  0.15285  1.0000
  O   O10       1.0  0.72266  0.30030  0.84715  1.0000
  O   O11       1.0  0.89751  0.16125  0.03377  1.0000
  O   O12       1.0  0.10250  0.83875  0.96622  1.0000
