data_image0
_chemical_formula_structural       Pr2H34C44N2O20F4
_chemical_formula_sum              "Pr2 H34 C44 N2 O20 F4"
_cell_length_a       9.67826
_cell_length_b       10.7874
_cell_length_c       13.1645
_cell_angle_alpha    67.2606
_cell_angle_beta     77.3491
_cell_angle_gamma    64.2442

_space_group_name_H-M_alt    "P 1"
_space_group_IT_number       1

loop_
  _space_group_symop_operation_xyz
  'x, y, z'

loop_
  _atom_site_type_symbol
  _atom_site_label
  _atom_site_symmetry_multiplicity
  _atom_site_fract_x
  _atom_site_fract_y
  _atom_site_fract_z
  _atom_site_occupancy
  Pr  Pr1       1.0  0.77032  0.96632  0.48825  1.0000
  Pr  Pr2       1.0  0.22968  0.03368  0.51175  1.0000
  H   H1        1.0  0.83411  0.20614  0.21854  1.0000
  H   H2        1.0  0.16589  0.79386  0.78146  1.0000
  H   H3        1.0  0.94498  0.38616  0.19001  1.0000
  H   H4        1.0  0.05502  0.61384  0.80998  1.0000
  H   H5        1.0  0.95917  0.47463  0.83794  1.0000
  H   H6        1.0  0.04083  0.52537  0.16205  1.0000
  H   H7        1.0  0.84509  0.29326  0.88284  1.0000
  H   H8        1.0  0.15491  0.70674  0.11716  1.0000
  H   H9        1.0  0.84718  0.52013  0.45099  1.0000
  H   H10       1.0  0.15282  0.47988  0.54900  1.0000
  H   H11       1.0  0.37765  0.76883  0.35852  1.0000
  H   H12       1.0  0.62235  0.23118  0.64148  1.0000
  H   H13       1.0  0.61829  0.33527  0.33764  1.0000
  H   H14       1.0  0.38171  0.66474  0.66236  1.0000
  H   H15       1.0  0.77070  0.99889  0.86186  1.0000
  H   H16       1.0  0.22930  0.00111  0.13814  1.0000
  H   H17       1.0  0.61056  0.74919  0.17058  1.0000
  H   H18       1.0  0.38944  0.25081  0.82942  1.0000
  H   H19       1.0  0.59840  0.68848  0.86769  1.0000
  H   H20       1.0  0.40160  0.31153  0.13230  1.0000
  H   H21       1.0  0.13316  0.74010  0.32337  1.0000
  H   H22       1.0  0.86684  0.25990  0.67664  1.0000
  H   H23       1.0  0.06330  0.87576  0.19340  1.0000
  H   H24       1.0  0.93670  0.12424  0.80660  1.0000
  H   H25       1.0  0.94076  0.79390  0.29173  1.0000
  H   H26       1.0  0.05924  0.20610  0.70827  1.0000
  H   H27       1.0  0.79989  0.12365  0.05008  1.0000
  H   H28       1.0  0.20012  0.87635  0.94992  1.0000
  H   H29       1.0  0.05491  0.98239  0.32295  1.0000
  H   H30       1.0  0.94509  0.01762  0.67705  1.0000
  H   H31       1.0  0.52044  0.13730  0.31625  1.0000
  H   H32       1.0  0.47956  0.86270  0.68375  1.0000
  H   H33       1.0  0.66716  0.04642  0.25846  1.0000
  H   H34       1.0  0.33284  0.95358  0.74154  1.0000
  C   C1        1.0  0.86387  0.26855  0.13583  1.0000
  C   C2        1.0  0.13613  0.73145  0.86418  1.0000
  C   C3        1.0  0.92639  0.36981  0.11843  1.0000
  C   C4        1.0  0.07361  0.63019  0.88157  1.0000
  C   C5        1.0  0.96518  0.44689  0.01075  1.0000
  C   C6        1.0  0.03481  0.55311  0.98925  1.0000
  C   C7        1.0  0.93449  0.41889  0.92408  1.0000
  C   C8        1.0  0.06551  0.58111  0.07592  1.0000
  C   C9        1.0  0.87101  0.31695  0.94820  1.0000
  C   C10       1.0  0.12899  0.68305  0.05180  1.0000
  C   C11       1.0  0.88402  0.27032  0.42291  1.0000
  C   C12       1.0  0.11598  0.72968  0.57709  1.0000
  C   C13       1.0  0.74820  0.41316  0.39648  1.0000
  C   C14       1.0  0.25181  0.58684  0.60352  1.0000
  C   C15       1.0  0.74642  0.53016  0.41952  1.0000
  C   C16       1.0  0.25358  0.46984  0.58048  1.0000
  C   C17       1.0  0.61251  0.65691  0.40788  1.0000
  C   C18       1.0  0.38749  0.34309  0.59212  1.0000
  C   C19       1.0  0.60673  0.77630  0.44272  1.0000
  C   C20       1.0  0.39327  0.22370  0.55728  1.0000
  C   C21       1.0  0.48200  0.67001  0.36801  1.0000
  C   C22       1.0  0.51800  0.32999  0.63199  1.0000
  C   C23       1.0  0.49045  0.55458  0.34078  1.0000
  C   C24       1.0  0.50954  0.44542  0.65922  1.0000
  C   C25       1.0  0.61911  0.42531  0.35573  1.0000
  C   C26       1.0  0.38089  0.57469  0.64427  1.0000
  C   C27       1.0  0.72101  0.88472  0.72994  1.0000
  C   C28       1.0  0.27899  0.11528  0.27006  1.0000
  C   C29       1.0  0.68999  0.84714  0.85185  1.0000
  C   C30       1.0  0.31002  0.15286  0.14815  1.0000
  C   C31       1.0  0.72369  0.91643  0.90775  1.0000
  C   C32       1.0  0.27632  0.08357  0.09225  1.0000
  C   C33       1.0  0.69488  0.88195  0.02199  1.0000
  C   C34       1.0  0.30513  0.11804  0.97802  1.0000
  C   C35       1.0  0.72438  0.96151  0.08064  1.0000
  C   C36       1.0  0.27562  0.03848  0.91936  1.0000
  C   C37       1.0  0.63311  0.77640  0.08151  1.0000
  C   C38       1.0  0.36689  0.22360  0.91849  1.0000
  C   C39       1.0  0.60000  0.70984  0.02361  1.0000
  C   C40       1.0  0.39999  0.29017  0.97639  1.0000
  C   C41       1.0  0.62627  0.74290  0.91005  1.0000
  C   C42       1.0  0.37373  0.25710  0.08995  1.0000
  C   C43       1.0  0.03259  0.83197  0.28186  1.0000
  C   C44       1.0  0.96741  0.16803  0.71814  1.0000
  N   N1        1.0  0.83796  0.24151  0.05201  1.0000
  N   N2        1.0  0.16204  0.75849  0.94799  1.0000
  O   O1        1.0  0.86324  0.15618  0.43447  1.0000
  O   O2        1.0  0.13676  0.84382  0.56553  1.0000
  O   O3        1.0  0.01150  0.26849  0.43420  1.0000
  O   O4        1.0  0.98850  0.73151  0.56580  1.0000
  O   O5        1.0  0.73346  0.78290  0.44549  1.0000
  O   O6        1.0  0.26654  0.21710  0.55451  1.0000
  O   O7        1.0  0.47611  0.86260  0.46955  1.0000
  O   O8        1.0  0.52389  0.13740  0.53044  1.0000
  O   O9        1.0  0.67198  0.83484  0.67796  1.0000
  O   O10       1.0  0.32802  0.16516  0.32204  1.0000
  O   O11       1.0  0.79630  0.96636  0.67880  1.0000
  O   O12       1.0  0.20370  0.03364  0.32120  1.0000
  O   O13       1.0  0.69011  0.94083  0.18083  1.0000
  O   O14       1.0  0.30989  0.05917  0.81917  1.0000
  O   O15       1.0  0.78679  0.05360  0.01515  1.0000
  O   O16       1.0  0.21322  0.94640  0.98485  1.0000
  O   O17       1.0  0.97421  0.94548  0.33023  1.0000
  O   O18       1.0  0.02579  0.05452  0.66977  1.0000
  O   O19       1.0  0.63422  0.10417  0.30945  1.0000
  O   O20       1.0  0.36578  0.89583  0.69055  1.0000
  F   F1        1.0  0.36540  0.56629  0.29974  1.0000
  F   F2        1.0  0.63460  0.43371  0.70026  1.0000
  F   F3        1.0  0.53953  0.60705  0.08016  1.0000
  F   F4        1.0  0.46047  0.39296  0.91984  1.0000
