data_image0
_chemical_formula_structural       Nd2H34C44N2O20F4
_chemical_formula_sum              "Nd2 H34 C44 N2 O20 F4"
_cell_length_a       9.67673
_cell_length_b       10.7593
_cell_length_c       13.1163
_cell_angle_alpha    67.4441
_cell_angle_beta     76.9776
_cell_angle_gamma    64.1738

_space_group_name_H-M_alt    "P 1"
_space_group_IT_number       1

loop_
  _space_group_symop_operation_xyz
  'x, y, z'

loop_
  _atom_site_type_symbol
  _atom_site_label
  _atom_site_symmetry_multiplicity
  _atom_site_fract_x
  _atom_site_fract_y
  _atom_site_fract_z
  _atom_site_occupancy
  Nd  Nd1       1.0  0.27015  0.46645  0.48744  1.0000
  Nd  Nd2       1.0  0.72985  0.53355  0.51257  1.0000
  H   H1        1.0  0.29878  0.62436  0.04965  1.0000
  H   H2        1.0  0.70121  0.37564  0.95035  1.0000
  H   H3        1.0  0.55360  0.48341  0.32384  1.0000
  H   H4        1.0  0.44640  0.51658  0.67616  1.0000
  H   H5        1.0  0.16843  0.54504  0.25932  1.0000
  H   H6        1.0  0.83157  0.45496  0.74068  1.0000
  H   H7        1.0  0.02158  0.63609  0.31832  1.0000
  H   H8        1.0  0.97843  0.36391  0.68168  1.0000
  H   H9        1.0  0.65216  0.98021  0.54902  1.0000
  H   H10       1.0  0.34784  0.01979  0.45098  1.0000
  H   H11       1.0  0.12130  0.73227  0.64075  1.0000
  H   H12       1.0  0.87870  0.26774  0.35925  1.0000
  H   H13       1.0  0.88015  0.16688  0.66164  1.0000
  H   H14       1.0  0.11984  0.83313  0.33836  1.0000
  H   H15       1.0  0.09769  0.18870  0.86595  1.0000
  H   H16       1.0  0.90230  0.81129  0.13405  1.0000
  H   H17       1.0  0.11179  0.24733  0.17068  1.0000
  H   H18       1.0  0.88821  0.75267  0.82932  1.0000
  H   H19       1.0  0.26990  0.49957  0.86077  1.0000
  H   H20       1.0  0.73009  0.50043  0.13923  1.0000
  H   H21       1.0  0.64021  0.24635  0.31608  1.0000
  H   H22       1.0  0.35979  0.75365  0.68392  1.0000
  H   H23       1.0  0.55670  0.38040  0.18975  1.0000
  H   H24       1.0  0.44330  0.61959  0.81025  1.0000
  H   H25       1.0  0.44686  0.28840  0.29461  1.0000
  H   H26       1.0  0.55314  0.71160  0.70539  1.0000
  H   H27       1.0  0.33654  0.70356  0.21905  1.0000
  H   H28       1.0  0.66347  0.29644  0.78094  1.0000
  H   H29       1.0  0.44885  0.88269  0.19075  1.0000
  H   H30       1.0  0.55115  0.11732  0.80924  1.0000
  H   H31       1.0  0.45345  0.97930  0.83716  1.0000
  H   H32       1.0  0.54654  0.02071  0.16283  1.0000
  H   H33       1.0  0.33773  0.79883  0.88202  1.0000
  H   H34       1.0  0.66228  0.20118  0.11797  1.0000
  C   C1        1.0  0.61522  0.23191  0.57607  1.0000
  C   C2        1.0  0.38478  0.76809  0.42393  1.0000
  C   C3        1.0  0.75052  0.08844  0.60301  1.0000
  C   C4        1.0  0.24948  0.91156  0.39699  1.0000
  C   C5        1.0  0.75259  0.97054  0.58041  1.0000
  C   C6        1.0  0.24741  0.02947  0.41959  1.0000
  C   C7        1.0  0.88655  0.84339  0.59221  1.0000
  C   C8        1.0  0.11346  0.15661  0.40779  1.0000
  C   C9        1.0  0.01664  0.83085  0.63188  1.0000
  C   C10       1.0  0.98336  0.16915  0.36812  1.0000
  C   C11       1.0  0.00774  0.94688  0.65906  1.0000
  C   C12       1.0  0.99226  0.05312  0.34095  1.0000
  C   C13       1.0  0.87913  0.07631  0.64404  1.0000
  C   C14       1.0  0.12087  0.92369  0.35596  1.0000
  C   C15       1.0  0.89311  0.72306  0.55747  1.0000
  C   C16       1.0  0.10689  0.27694  0.44253  1.0000
  C   C17       1.0  0.22021  0.38571  0.72796  1.0000
  C   C18       1.0  0.77978  0.61429  0.27205  1.0000
  C   C19       1.0  0.18923  0.34759  0.85043  1.0000
  C   C20       1.0  0.81077  0.65241  0.14958  1.0000
  C   C21       1.0  0.12581  0.24278  0.90879  1.0000
  C   C22       1.0  0.87419  0.75721  0.09121  1.0000
  C   C23       1.0  0.10034  0.20889  0.02292  1.0000
  C   C24       1.0  0.89966  0.79110  0.97708  1.0000
  C   C25       1.0  0.13369  0.27529  0.08118  1.0000
  C   C26       1.0  0.86631  0.72471  0.91882  1.0000
  C   C27       1.0  0.19501  0.38141  0.02151  1.0000
  C   C28       1.0  0.80499  0.61858  0.97848  1.0000
  C   C29       1.0  0.22315  0.41669  0.90673  1.0000
  C   C30       1.0  0.77685  0.58330  0.09327  1.0000
  C   C31       1.0  0.22462  0.46079  0.08063  1.0000
  C   C32       1.0  0.77537  0.53922  0.91936  1.0000
  C   C33       1.0  0.53422  0.33359  0.27945  1.0000
  C   C34       1.0  0.46578  0.66641  0.72056  1.0000
  C   C35       1.0  0.36427  0.76762  0.13604  1.0000
  C   C36       1.0  0.63574  0.23239  0.86396  1.0000
  C   C37       1.0  0.42791  0.86823  0.11877  1.0000
  C   C38       1.0  0.57209  0.13178  0.88123  1.0000
  C   C39       1.0  0.46463  0.94719  0.01069  1.0000
  C   C40       1.0  0.53537  0.05282  0.98930  1.0000
  C   C41       1.0  0.43078  0.92172  0.92358  1.0000
  C   C42       1.0  0.56922  0.07828  0.07641  1.0000
  C   C43       1.0  0.36620  0.82042  0.94766  1.0000
  C   C44       1.0  0.63380  0.17958  0.05233  1.0000
  N   N1        1.0  0.33527  0.74310  0.05176  1.0000
  N   N2        1.0  0.66473  0.25690  0.94823  1.0000
  O   O1        1.0  0.48840  0.23442  0.56266  1.0000
  O   O2        1.0  0.51160  0.76558  0.43734  1.0000
  O   O3        1.0  0.63599  0.34563  0.56631  1.0000
  O   O4        1.0  0.36401  0.65437  0.43369  1.0000
  O   O5        1.0  0.76646  0.71624  0.55467  1.0000
  O   O6        1.0  0.23354  0.28376  0.44533  1.0000
  O   O7        1.0  0.02423  0.63606  0.53084  1.0000
  O   O8        1.0  0.97577  0.36394  0.46917  1.0000
  O   O9        1.0  0.17192  0.33537  0.67568  1.0000
  O   O10       1.0  0.82808  0.66463  0.32432  1.0000
  O   O11       1.0  0.29481  0.46826  0.67647  1.0000
  O   O12       1.0  0.70519  0.53173  0.32354  1.0000
  O   O13       1.0  0.28679  0.55328  0.01491  1.0000
  O   O14       1.0  0.71320  0.44673  0.98509  1.0000
  O   O15       1.0  0.19071  0.43955  0.18139  1.0000
  O   O16       1.0  0.80929  0.56045  0.81861  1.0000
  O   O17       1.0  0.47365  0.44609  0.32986  1.0000
  O   O18       1.0  0.52636  0.55390  0.67014  1.0000
  O   O19       1.0  0.13545  0.60330  0.31054  1.0000
  O   O20       1.0  0.86455  0.39670  0.68947  1.0000
  F   F1        1.0  0.13242  0.93572  0.69990  1.0000
  F   F2        1.0  0.86758  0.06428  0.30011  1.0000
  F   F3        1.0  0.04028  0.10554  0.07980  1.0000
  F   F4        1.0  0.95971  0.89446  0.92021  1.0000
