data_image0
_chemical_formula_structural       Sm2H34C44N2O20F4
_chemical_formula_sum              "Sm2 H34 C44 N2 O20 F4"
_cell_length_a       9.6399
_cell_length_b       10.7242
_cell_length_c       13.0873
_cell_angle_alpha    68.3055
_cell_angle_beta     76.4788
_cell_angle_gamma    63.9555

_space_group_name_H-M_alt    "P 1"
_space_group_IT_number       1

loop_
  _space_group_symop_operation_xyz
  'x, y, z'

loop_
  _atom_site_type_symbol
  _atom_site_label
  _atom_site_symmetry_multiplicity
  _atom_site_fract_x
  _atom_site_fract_y
  _atom_site_fract_z
  _atom_site_occupancy
  Sm  Sm1       1.0  0.26883  0.46633  0.48790  1.0000
  Sm  Sm2       1.0  0.73117  0.53367  0.51210  1.0000
  H   H1        1.0  0.30143  0.62047  0.05263  1.0000
  H   H2        1.0  0.69857  0.37953  0.94737  1.0000
  H   H3        1.0  0.17232  0.54145  0.26191  1.0000
  H   H4        1.0  0.82768  0.45855  0.73809  1.0000
  H   H5        1.0  0.02389  0.63272  0.32231  1.0000
  H   H6        1.0  0.97612  0.36728  0.67768  1.0000
  H   H7        1.0  0.55318  0.48150  0.32763  1.0000
  H   H8        1.0  0.44682  0.51850  0.67237  1.0000
  H   H9        1.0  0.11144  0.24651  0.16829  1.0000
  H   H10       1.0  0.88856  0.75348  0.83171  1.0000
  H   H11       1.0  0.09608  0.18999  0.86168  1.0000
  H   H12       1.0  0.90392  0.81001  0.13832  1.0000
  H   H13       1.0  0.26914  0.49940  0.86055  1.0000
  H   H14       1.0  0.73086  0.50060  0.13945  1.0000
  H   H15       1.0  0.34959  0.01700  0.45310  1.0000
  H   H16       1.0  0.65041  0.98301  0.54690  1.0000
  H   H17       1.0  0.12064  0.82944  0.34039  1.0000
  H   H18       1.0  0.87936  0.17056  0.65961  1.0000
  H   H19       1.0  0.88240  0.26960  0.35643  1.0000
  H   H20       1.0  0.11760  0.73040  0.64357  1.0000
  H   H21       1.0  0.63176  0.23582  0.32929  1.0000
  H   H22       1.0  0.36824  0.76418  0.67071  1.0000
  H   H23       1.0  0.58238  0.36843  0.19657  1.0000
  H   H24       1.0  0.41762  0.63156  0.80343  1.0000
  H   H25       1.0  0.44508  0.29582  0.28463  1.0000
  H   H26       1.0  0.55492  0.70417  0.71537  1.0000
  H   H27       1.0  0.34121  0.70319  0.22161  1.0000
  H   H28       1.0  0.65879  0.29681  0.77839  1.0000
  H   H29       1.0  0.45072  0.88565  0.19096  1.0000
  H   H30       1.0  0.54928  0.11435  0.80904  1.0000
  H   H31       1.0  0.45400  0.97354  0.83926  1.0000
  H   H32       1.0  0.54600  0.02646  0.16074  1.0000
  H   H33       1.0  0.33991  0.79115  0.88652  1.0000
  H   H34       1.0  0.66009  0.20884  0.11348  1.0000
  C   C1        1.0  0.22585  0.45841  0.08104  1.0000
  C   C2        1.0  0.77415  0.54159  0.91896  1.0000
  C   C3        1.0  0.19459  0.38082  0.02031  1.0000
  C   C4        1.0  0.80541  0.61918  0.97969  1.0000
  C   C5        1.0  0.13299  0.27496  0.07878  1.0000
  C   C6        1.0  0.86701  0.72504  0.92122  1.0000
  C   C7        1.0  0.09917  0.20936  0.01940  1.0000
  C   C8        1.0  0.90083  0.79064  0.98060  1.0000
  C   C9        1.0  0.12438  0.24377  0.90524  1.0000
  C   C10       1.0  0.87562  0.75623  0.09476  1.0000
  C   C11       1.0  0.18776  0.34852  0.84800  1.0000
  C   C12       1.0  0.81224  0.65148  0.15200  1.0000
  C   C13       1.0  0.22216  0.41678  0.90552  1.0000
  C   C14       1.0  0.77784  0.58322  0.09448  1.0000
  C   C15       1.0  0.21854  0.38738  0.72554  1.0000
  C   C16       1.0  0.78146  0.61262  0.27446  1.0000
  C   C17       1.0  0.10894  0.27807  0.44182  1.0000
  C   C18       1.0  0.89106  0.72193  0.55818  1.0000
  C   C19       1.0  0.11611  0.15616  0.40754  1.0000
  C   C20       1.0  0.88389  0.84384  0.59247  1.0000
  C   C21       1.0  0.24933  0.02715  0.42096  1.0000
  C   C22       1.0  0.75067  0.97285  0.57904  1.0000
  C   C23       1.0  0.25053  0.90831  0.39904  1.0000
  C   C24       1.0  0.74947  0.09169  0.60096  1.0000
  C   C25       1.0  0.12222  0.92096  0.35720  1.0000
  C   C26       1.0  0.87778  0.07904  0.64280  1.0000
  C   C27       1.0  0.99485  0.05227  0.34012  1.0000
  C   C28       1.0  0.00515  0.94773  0.65988  1.0000
  C   C29       1.0  0.98643  0.16947  0.36670  1.0000
  C   C30       1.0  0.01357  0.83053  0.63330  1.0000
  C   C31       1.0  0.38393  0.76329  0.42735  1.0000
  C   C32       1.0  0.61607  0.23671  0.57265  1.0000
  C   C33       1.0  0.53814  0.32925  0.28264  1.0000
  C   C34       1.0  0.46185  0.67075  0.71736  1.0000
  C   C35       1.0  0.36770  0.76646  0.13850  1.0000
  C   C36       1.0  0.63230  0.23354  0.86150  1.0000
  C   C37       1.0  0.42989  0.86874  0.11987  1.0000
  C   C38       1.0  0.57011  0.13126  0.88013  1.0000
  C   C39       1.0  0.46545  0.94624  0.01154  1.0000
  C   C40       1.0  0.53455  0.05376  0.98846  1.0000
  C   C41       1.0  0.43180  0.91760  0.92572  1.0000
  C   C42       1.0  0.56821  0.08240  0.07428  1.0000
  C   C43       1.0  0.36835  0.81508  0.95117  1.0000
  C   C44       1.0  0.63166  0.18492  0.04883  1.0000
  N   N1        1.0  0.33855  0.73919  0.05540  1.0000
  N   N2        1.0  0.66145  0.26080  0.94460  1.0000
  O   O1        1.0  0.19339  0.43571  0.18219  1.0000
  O   O2        1.0  0.80661  0.56429  0.81781  1.0000
  O   O3        1.0  0.28800  0.55101  0.01625  1.0000
  O   O4        1.0  0.71200  0.44899  0.98375  1.0000
  O   O5        1.0  0.17081  0.33710  0.67236  1.0000
  O   O6        1.0  0.82919  0.66290  0.32764  1.0000
  O   O7        1.0  0.29244  0.47055  0.67466  1.0000
  O   O8        1.0  0.70756  0.52945  0.32535  1.0000
  O   O9        1.0  0.13851  0.59986  0.31403  1.0000
  O   O10       1.0  0.86149  0.40014  0.68597  1.0000
  O   O11       1.0  0.47270  0.44565  0.33111  1.0000
  O   O12       1.0  0.52730  0.55435  0.66889  1.0000
  O   O13       1.0  0.23620  0.28451  0.44471  1.0000
  O   O14       1.0  0.76380  0.71549  0.55529  1.0000
  O   O15       1.0  0.97643  0.36688  0.46795  1.0000
  O   O16       1.0  0.02357  0.63312  0.53205  1.0000
  O   O17       1.0  0.35986  0.65089  0.43800  1.0000
  O   O18       1.0  0.64014  0.34911  0.56201  1.0000
  O   O19       1.0  0.51219  0.75860  0.44072  1.0000
  O   O20       1.0  0.48781  0.24140  0.55928  1.0000
  F   F1        1.0  0.87074  0.06422  0.29800  1.0000
  F   F2        1.0  0.12926  0.93579  0.70200  1.0000
  F   F3        1.0  0.03931  0.10593  0.07512  1.0000
  F   F4        1.0  0.96069  0.89407  0.92488  1.0000
