data_image0
_chemical_formula_structural       Dy4H24C40N4O32
_chemical_formula_sum              "Dy4 H24 C40 N4 O32"
_cell_length_a       8.19221
_cell_length_b       10.9712
_cell_length_c       13.0191
_cell_angle_alpha    89.9997
_cell_angle_beta     93.615
_cell_angle_gamma    90.0001

_space_group_name_H-M_alt    "P 1"
_space_group_IT_number       1

loop_
  _space_group_symop_operation_xyz
  'x, y, z'

loop_
  _atom_site_type_symbol
  _atom_site_label
  _atom_site_symmetry_multiplicity
  _atom_site_fract_x
  _atom_site_fract_y
  _atom_site_fract_z
  _atom_site_occupancy
  Dy  Dy1       1.0  0.54628  0.54953  0.19246  1.0000
  Dy  Dy2       1.0  0.95372  0.04953  0.80754  1.0000
  Dy  Dy3       1.0  0.45371  0.45047  0.80754  1.0000
  Dy  Dy4       1.0  0.04629  0.95047  0.19246  1.0000
  H   H1        1.0  0.43769  0.80072  0.26670  1.0000
  H   H2        1.0  0.06231  0.30072  0.73330  1.0000
  H   H3        1.0  0.56231  0.19928  0.73330  1.0000
  H   H4        1.0  0.93769  0.69927  0.26670  1.0000
  H   H5        1.0  0.62659  0.81000  0.24329  1.0000
  H   H6        1.0  0.87341  0.31000  0.75671  1.0000
  H   H7        1.0  0.37341  0.19000  0.75671  1.0000
  H   H8        1.0  0.12659  0.69000  0.24329  1.0000
  H   H9        1.0  0.92748  0.58109  0.78419  1.0000
  H   H10       1.0  0.57253  0.08108  0.21581  1.0000
  H   H11       1.0  0.07253  0.41892  0.21581  1.0000
  H   H12       1.0  0.42747  0.91891  0.78419  1.0000
  H   H13       1.0  0.04224  0.73192  0.66304  1.0000
  H   H14       1.0  0.45778  0.23193  0.33695  1.0000
  H   H15       1.0  0.95777  0.26808  0.33695  1.0000
  H   H16       1.0  0.54223  0.76807  0.66304  1.0000
  H   H17       1.0  0.95329  0.71724  0.47208  1.0000
  H   H18       1.0  0.54672  0.21724  0.52792  1.0000
  H   H19       1.0  0.04671  0.28277  0.52792  1.0000
  H   H20       1.0  0.45329  0.78276  0.47208  1.0000
  H   H21       1.0  0.64269  0.41730  0.54915  1.0000
  H   H22       1.0  0.85731  0.91730  0.45084  1.0000
  H   H23       1.0  0.35732  0.58270  0.45084  1.0000
  H   H24       1.0  0.14269  0.08270  0.54916  1.0000
  C   C1        1.0  0.89273  0.58303  0.70241  1.0000
  C   C2        1.0  0.60727  0.08302  0.29759  1.0000
  C   C3        1.0  0.10727  0.41697  0.29759  1.0000
  C   C4        1.0  0.39273  0.91697  0.70241  1.0000
  C   C5        1.0  0.95499  0.66392  0.63300  1.0000
  C   C6        1.0  0.54501  0.16391  0.36699  1.0000
  C   C7        1.0  0.04501  0.33609  0.36699  1.0000
  C   C8        1.0  0.45499  0.83609  0.63301  1.0000
  C   C9        1.0  0.90510  0.65608  0.52876  1.0000
  C   C10       1.0  0.59491  0.15608  0.47124  1.0000
  C   C11       1.0  0.09491  0.34392  0.47124  1.0000
  C   C12       1.0  0.40510  0.84392  0.52876  1.0000
  C   C13       1.0  0.79103  0.56677  0.49661  1.0000
  C   C14       1.0  0.70897  0.06678  0.50338  1.0000
  C   C15       1.0  0.20898  0.43323  0.50338  1.0000
  C   C16       1.0  0.29103  0.93323  0.49662  1.0000
  C   C17       1.0  0.73177  0.48774  0.56867  1.0000
  C   C18       1.0  0.76823  0.98774  0.43133  1.0000
  C   C19       1.0  0.26823  0.51226  0.43133  1.0000
  C   C20       1.0  0.23177  0.01226  0.56867  1.0000
  C   C21       1.0  0.72323  0.55470  0.38734  1.0000
  C   C22       1.0  0.77677  0.05470  0.61265  1.0000
  C   C23       1.0  0.27677  0.44530  0.61265  1.0000
  C   C24       1.0  0.22323  0.94529  0.38735  1.0000
  C   C25       1.0  0.72900  0.70029  0.00902  1.0000
  C   C26       1.0  0.77099  0.20029  0.99098  1.0000
  C   C27       1.0  0.27099  0.29971  0.99098  1.0000
  C   C28       1.0  0.22901  0.79971  0.00902  1.0000
  C   C29       1.0  0.80261  0.82166  0.99590  1.0000
  C   C30       1.0  0.69738  0.32166  0.00410  1.0000
  C   C31       1.0  0.19738  0.17835  0.00411  1.0000
  C   C32       1.0  0.30262  0.67835  0.99590  1.0000
  C   C33       1.0  0.74572  0.82125  0.88619  1.0000
  C   C34       1.0  0.75427  0.32125  0.11381  1.0000
  C   C35       1.0  0.25428  0.17875  0.11381  1.0000
  C   C36       1.0  0.24572  0.67875  0.88619  1.0000
  C   C37       1.0  0.67173  0.70011  0.89855  1.0000
  C   C38       1.0  0.82826  0.20011  0.10145  1.0000
  C   C39       1.0  0.32826  0.29989  0.10145  1.0000
  C   C40       1.0  0.17174  0.79989  0.89855  1.0000
  N   N1        1.0  0.78203  0.49680  0.66945  1.0000
  N   N2        1.0  0.71797  0.99679  0.33055  1.0000
  N   N3        1.0  0.21797  0.50321  0.33055  1.0000
  N   N4        1.0  0.28203  0.00320  0.66945  1.0000
  O   O1        1.0  0.72313  0.41950  0.73662  1.0000
  O   O2        1.0  0.77689  0.91949  0.26339  1.0000
  O   O3        1.0  0.27687  0.58051  0.26337  1.0000
  O   O4        1.0  0.22312  0.08050  0.73662  1.0000
  O   O5        1.0  0.53136  0.75367  0.24305  1.0000
  O   O6        1.0  0.96864  0.25367  0.75695  1.0000
  O   O7        1.0  0.46864  0.24633  0.75695  1.0000
  O   O8        1.0  0.03135  0.74633  0.24305  1.0000
  O   O9        1.0  0.79193  0.60832  0.31535  1.0000
  O   O10       1.0  0.70807  0.10832  0.68465  1.0000
  O   O11       1.0  0.20808  0.39168  0.68464  1.0000
  O   O12       1.0  0.29194  0.89167  0.31536  1.0000
  O   O13       1.0  0.59230  0.49268  0.37062  1.0000
  O   O14       1.0  0.90770  0.99267  0.62937  1.0000
  O   O15       1.0  0.40769  0.50734  0.62937  1.0000
  O   O16       1.0  0.09231  0.00732  0.37063  1.0000
  O   O17       1.0  0.72310  0.62963  0.08474  1.0000
  O   O18       1.0  0.77689  0.12963  0.91526  1.0000
  O   O19       1.0  0.27689  0.37037  0.91527  1.0000
  O   O20       1.0  0.22311  0.87036  0.08474  1.0000
  O   O21       1.0  0.88144  0.89619  0.05263  1.0000
  O   O22       1.0  0.61856  0.39619  0.94736  1.0000
  O   O23       1.0  0.11857  0.10381  0.94736  1.0000
  O   O24       1.0  0.38144  0.60382  0.05265  1.0000
  O   O25       1.0  0.75613  0.89319  0.81152  1.0000
  O   O26       1.0  0.74386  0.39318  0.18848  1.0000
  O   O27       1.0  0.24388  0.10682  0.18848  1.0000
  O   O28       1.0  0.25613  0.60682  0.81152  1.0000
  O   O29       1.0  0.59464  0.62985  0.83602  1.0000
  O   O30       1.0  0.90534  0.12985  0.16398  1.0000
  O   O31       1.0  0.40535  0.37015  0.16398  1.0000
  O   O32       1.0  0.09465  0.87015  0.83602  1.0000
