data_image0
_chemical_formula_structural       Er4H24C36N8O28
_chemical_formula_sum              "Er4 H24 C36 N8 O28"
_cell_length_a       6.58487
_cell_length_b       12.8921
_cell_length_c       12.8953
_cell_angle_alpha    94.9154
_cell_angle_beta     89.9999
_cell_angle_gamma    90.0005

_space_group_name_H-M_alt    "P 1"
_space_group_IT_number       1

loop_
  _space_group_symop_operation_xyz
  'x, y, z'

loop_
  _atom_site_type_symbol
  _atom_site_label
  _atom_site_symmetry_multiplicity
  _atom_site_fract_x
  _atom_site_fract_y
  _atom_site_fract_z
  _atom_site_occupancy
  Er  Er1       1.0  0.81944  0.82339  0.33868  1.0000
  Er  Er2       1.0  0.31944  0.67661  0.66132  1.0000
  Er  Er3       1.0  0.18056  0.17661  0.66133  1.0000
  Er  Er4       1.0  0.68056  0.32339  0.33868  1.0000
  H   H1        1.0  0.31806  0.70376  0.19382  1.0000
  H   H2        1.0  0.81805  0.79625  0.80617  1.0000
  H   H3        1.0  0.68194  0.29624  0.80618  1.0000
  H   H4        1.0  0.18194  0.20376  0.19383  1.0000
  H   H5        1.0  0.81819  0.06965  0.08336  1.0000
  H   H6        1.0  0.31819  0.43035  0.91664  1.0000
  H   H7        1.0  0.18179  0.93036  0.91665  1.0000
  H   H8        1.0  0.68182  0.56965  0.08335  1.0000
  H   H9        1.0  0.37041  0.82652  0.03974  1.0000
  H   H10       1.0  0.87043  0.67348  0.96025  1.0000
  H   H11       1.0  0.62957  0.17348  0.96026  1.0000
  H   H12       1.0  0.12958  0.32652  0.03974  1.0000
  H   H13       1.0  0.42486  0.51745  0.22761  1.0000
  H   H14       1.0  0.92486  0.98255  0.77239  1.0000
  H   H15       1.0  0.57515  0.48255  0.77239  1.0000
  H   H16       1.0  0.07515  0.01744  0.22761  1.0000
  H   H17       1.0  0.85421  0.74492  0.54469  1.0000
  H   H18       1.0  0.35422  0.75508  0.45531  1.0000
  H   H19       1.0  0.14580  0.25508  0.45531  1.0000
  H   H20       1.0  0.64580  0.24492  0.54470  1.0000
  H   H21       1.0  0.97708  0.84520  0.55042  1.0000
  H   H22       1.0  0.47707  0.65480  0.44958  1.0000
  H   H23       1.0  0.02294  0.15479  0.44958  1.0000
  H   H24       1.0  0.52293  0.34521  0.55042  1.0000
  C   C1        1.0  0.98317  0.57725  0.31524  1.0000
  C   C2        1.0  0.48317  0.92275  0.68475  1.0000
  C   C3        1.0  0.01683  0.42275  0.68477  1.0000
  C   C4        1.0  0.51683  0.07724  0.31524  1.0000
  C   C5        1.0  0.78357  0.57539  0.36663  1.0000
  C   C6        1.0  0.28358  0.92461  0.63336  1.0000
  C   C7        1.0  0.21642  0.42460  0.63338  1.0000
  C   C8        1.0  0.71643  0.07540  0.36663  1.0000
  C   C9        1.0  0.22490  0.64926  0.23273  1.0000
  C   C10       1.0  0.72489  0.85074  0.76726  1.0000
  C   C11       1.0  0.77510  0.35073  0.76727  1.0000
  C   C12       1.0  0.27510  0.14926  0.23274  1.0000
  C   C13       1.0  0.71287  0.88169  0.14625  1.0000
  C   C14       1.0  0.21287  0.61832  0.85373  1.0000
  C   C15       1.0  0.28713  0.11832  0.85374  1.0000
  C   C16       1.0  0.78714  0.38168  0.14627  1.0000
  C   C17       1.0  0.17448  0.40380  0.34750  1.0000
  C   C18       1.0  0.67448  0.09620  0.65251  1.0000
  C   C19       1.0  0.82552  0.59621  0.65251  1.0000
  C   C20       1.0  0.32552  0.90379  0.34749  1.0000
  C   C21       1.0  0.60662  0.94122  0.06822  1.0000
  C   C22       1.0  0.10663  0.55878  0.93177  1.0000
  C   C23       1.0  0.39336  0.05879  0.93178  1.0000
  C   C24       1.0  0.89338  0.44121  0.06823  1.0000
  C   C25       1.0  0.67975  0.03913  0.04602  1.0000
  C   C26       1.0  0.17976  0.46088  0.95398  1.0000
  C   C27       1.0  0.32024  0.96089  0.95399  1.0000
  C   C28       1.0  0.82025  0.53912  0.04601  1.0000
  C   C29       1.0  0.13995  0.50473  0.30382  1.0000
  C   C30       1.0  0.63995  0.99527  0.69617  1.0000
  C   C31       1.0  0.86005  0.49527  0.69618  1.0000
  C   C32       1.0  0.36005  0.00472  0.30382  1.0000
  C   C33       1.0  0.42629  0.90247  0.02180  1.0000
  C   C34       1.0  0.92631  0.59753  0.97821  1.0000
  C   C35       1.0  0.57369  0.09755  0.97821  1.0000
  C   C36       1.0  0.07370  0.40246  0.02179  1.0000
  N   N1        1.0  0.28960  0.55274  0.25077  1.0000
  N   N2        1.0  0.78960  0.94726  0.74922  1.0000
  N   N3        1.0  0.71039  0.44726  0.74923  1.0000
  N   N4        1.0  0.21040  0.05274  0.25077  1.0000
  N   N5        1.0  0.03946  0.66715  0.27183  1.0000
  N   N6        1.0  0.53946  0.83285  0.72815  1.0000
  N   N7        1.0  0.96054  0.33285  0.72816  1.0000
  N   N8        1.0  0.46054  0.16714  0.27185  1.0000
  O   O1        1.0  0.63657  0.79760  0.17498  1.0000
  O   O2        1.0  0.13657  0.70239  0.82501  1.0000
  O   O3        1.0  0.36342  0.20239  0.82501  1.0000
  O   O4        1.0  0.86343  0.29761  0.17499  1.0000
  O   O5        1.0  0.87579  0.91904  0.19013  1.0000
  O   O6        1.0  0.37580  0.58096  0.80986  1.0000
  O   O7        1.0  0.12420  0.08096  0.80986  1.0000
  O   O8        1.0  0.62421  0.41904  0.19014  1.0000
  O   O9        1.0  0.35612  0.37350  0.35431  1.0000
  O   O10       1.0  0.85612  0.12651  0.64570  1.0000
  O   O11       1.0  0.64388  0.62651  0.64570  1.0000
  O   O12       1.0  0.14389  0.87349  0.35430  1.0000
  O   O13       1.0  0.71048  0.49455  0.40011  1.0000
  O   O14       1.0  0.21048  0.00546  0.59988  1.0000
  O   O15       1.0  0.28952  0.50546  0.59989  1.0000
  O   O16       1.0  0.78953  0.99453  0.40012  1.0000
  O   O17       1.0  0.85633  0.81269  0.51392  1.0000
  O   O18       1.0  0.35634  0.68731  0.48607  1.0000
  O   O19       1.0  0.14368  0.18731  0.48608  1.0000
  O   O20       1.0  0.64367  0.31269  0.51393  1.0000
  O   O21       1.0  0.68863  0.66284  0.37375  1.0000
  O   O22       1.0  0.18864  0.83716  0.62624  1.0000
  O   O23       1.0  0.31136  0.33717  0.62625  1.0000
  O   O24       1.0  0.81136  0.16282  0.37375  1.0000
  O   O25       1.0  0.02455  0.35258  0.37886  1.0000
  O   O26       1.0  0.52455  0.14743  0.62114  1.0000
  O   O27       1.0  0.97546  0.64743  0.62114  1.0000
  O   O28       1.0  0.47544  0.85256  0.37886  1.0000
