data_image0
_chemical_formula_structural       Cu4H40C20N8O20
_chemical_formula_sum              "Cu4 H40 C20 N8 O20"
_cell_length_a       6.35591
_cell_length_b       9.06171
_cell_length_c       13.568
_cell_angle_alpha    89.997
_cell_angle_beta     98.2555
_cell_angle_gamma    90.0018

_space_group_name_H-M_alt    "P 1"
_space_group_IT_number       1

loop_
  _space_group_symop_operation_xyz
  'x, y, z'

loop_
  _atom_site_type_symbol
  _atom_site_label
  _atom_site_symmetry_multiplicity
  _atom_site_fract_x
  _atom_site_fract_y
  _atom_site_fract_z
  _atom_site_occupancy
  Cu  Cu1       1.0  0.74670  0.39883  0.35671  1.0000
  Cu  Cu2       1.0  0.25330  0.89879  0.14327  1.0000
  Cu  Cu3       1.0  0.25331  0.60116  0.64329  1.0000
  Cu  Cu4       1.0  0.74673  0.10119  0.85673  1.0000
  H   H1        1.0  0.42238  0.21532  0.39410  1.0000
  H   H2        1.0  0.57753  0.71532  0.10593  1.0000
  H   H3        1.0  0.57762  0.78465  0.60592  1.0000
  H   H4        1.0  0.42245  0.28467  0.89404  1.0000
  H   H5        1.0  0.43195  0.54737  0.40988  1.0000
  H   H6        1.0  0.56819  0.04737  0.09018  1.0000
  H   H7        1.0  0.56808  0.45262  0.59012  1.0000
  H   H8        1.0  0.43181  0.95265  0.90981  1.0000
  H   H9        1.0  0.57971  0.64160  0.34262  1.0000
  H   H10       1.0  0.42032  0.14156  0.15740  1.0000
  H   H11       1.0  0.42033  0.35838  0.65740  1.0000
  H   H12       1.0  0.57964  0.85843  0.84259  1.0000
  H   H13       1.0  0.85738  0.55381  0.22013  1.0000
  H   H14       1.0  0.14266  0.05370  0.27985  1.0000
  H   H15       1.0  0.14264  0.44619  0.77990  1.0000
  H   H16       1.0  0.85738  0.94628  0.72012  1.0000
  H   H17       1.0  0.90155  0.37573  0.19793  1.0000
  H   H18       1.0  0.09852  0.87565  0.30208  1.0000
  H   H19       1.0  0.09845  0.62427  0.80207  1.0000
  H   H20       1.0  0.90149  0.12434  0.69790  1.0000
  H   H21       1.0  0.28125  0.40707  0.26027  1.0000
  H   H22       1.0  0.71883  0.90709  0.23984  1.0000
  H   H23       1.0  0.71876  0.59295  0.73973  1.0000
  H   H24       1.0  0.28114  0.09291  0.76015  1.0000
  H   H25       1.0  0.20886  0.59665  0.26498  1.0000
  H   H26       1.0  0.79115  0.09667  0.23509  1.0000
  H   H27       1.0  0.79115  0.40336  0.73503  1.0000
  H   H28       1.0  0.20883  0.90332  0.76490  1.0000
  H   H29       1.0  0.70899  0.03322  0.39832  1.0000
  H   H30       1.0  0.29099  0.53320  0.10175  1.0000
  H   H31       1.0  0.29102  0.96676  0.60167  1.0000
  H   H32       1.0  0.70899  0.46677  0.89824  1.0000
  H   H33       1.0  0.53994  0.33277  0.13451  1.0000
  H   H34       1.0  0.46020  0.83275  0.36554  1.0000
  H   H35       1.0  0.46007  0.66724  0.86550  1.0000
  H   H36       1.0  0.53980  0.16723  0.63445  1.0000
  H   H37       1.0  0.64533  0.47387  0.06694  1.0000
  H   H38       1.0  0.35462  0.97377  0.43308  1.0000
  H   H39       1.0  0.35469  0.52614  0.93308  1.0000
  H   H40       1.0  0.64535  0.02621  0.56691  1.0000
  C   C1        1.0  0.34149  0.52043  0.25945  1.0000
  C   C2        1.0  0.65855  0.02043  0.24061  1.0000
  C   C3        1.0  0.65853  0.47958  0.74056  1.0000
  C   C4        1.0  0.34144  0.97956  0.75938  1.0000
  C   C5        1.0  0.57436  0.04958  0.33799  1.0000
  C   C6        1.0  0.42561  0.54959  0.16206  1.0000
  C   C7        1.0  0.42563  0.95041  0.66200  1.0000
  C   C8        1.0  0.57440  0.45041  0.83795  1.0000
  C   C9        1.0  0.60173  0.44540  0.14030  1.0000
  C   C10       1.0  0.39827  0.94535  0.35972  1.0000
  C   C11       1.0  0.39831  0.55462  0.85971  1.0000
  C   C12       1.0  0.60173  0.05464  0.64027  1.0000
  C   C13       1.0  0.10300  0.27445  0.46268  1.0000
  C   C14       1.0  0.89691  0.77439  0.03731  1.0000
  C   C15       1.0  0.89700  0.72553  0.53733  1.0000
  C   C16       1.0  0.10305  0.22563  0.96269  1.0000
  C   C17       1.0  0.96226  0.31928  0.54224  1.0000
  C   C18       1.0  0.03770  0.81928  0.95773  1.0000
  C   C19       1.0  0.03778  0.68074  0.45777  1.0000
  C   C20       1.0  0.96225  0.18075  0.04228  1.0000
  N   N1        1.0  0.50594  0.54153  0.34715  1.0000
  N   N2        1.0  0.49413  0.04150  0.15289  1.0000
  N   N3        1.0  0.49406  0.45847  0.65285  1.0000
  N   N4        1.0  0.50587  0.95851  0.84710  1.0000
  N   N5        1.0  0.79127  0.45015  0.21670  1.0000
  N   N6        1.0  0.20878  0.95005  0.28331  1.0000
  N   N7        1.0  0.20873  0.54986  0.78331  1.0000
  N   N8        1.0  0.79124  0.04993  0.71667  1.0000
  O   O1        1.0  0.50304  0.20004  0.33600  1.0000
  O   O2        1.0  0.49691  0.70004  0.16402  1.0000
  O   O3        1.0  0.49696  0.79995  0.66401  1.0000
  O   O4        1.0  0.50303  0.29998  0.83596  1.0000
  O   O5        1.0  0.01218  0.28000  0.37179  1.0000
  O   O6        1.0  0.98787  0.77994  0.12820  1.0000
  O   O7        1.0  0.98781  0.71996  0.62821  1.0000
  O   O8        1.0  0.01209  0.22011  0.87181  1.0000
  O   O9        1.0  0.29136  0.23494  0.48960  1.0000
  O   O10       1.0  0.70857  0.73490  0.01039  1.0000
  O   O11       1.0  0.70863  0.76503  0.51039  1.0000
  O   O12       1.0  0.29146  0.26509  0.98964  1.0000
  O   O13       1.0  0.78703  0.38490  0.50678  1.0000
  O   O14       1.0  0.21288  0.88494  0.99320  1.0000
  O   O15       1.0  0.21299  0.61510  0.49322  1.0000
  O   O16       1.0  0.78712  0.11505  0.00680  1.0000
  O   O17       1.0  0.02222  0.29018  0.63178  1.0000
  O   O18       1.0  0.97770  0.79014  0.86819  1.0000
  O   O19       1.0  0.97782  0.70989  0.36822  1.0000
  O   O20       1.0  0.02226  0.20995  0.13182  1.0000
