data_image0
_chemical_formula_structural       Ag2H24C22S2N6O6
_chemical_formula_sum              "Ag2 H24 C22 S2 N6 O6"
_cell_length_a       6.78819
_cell_length_b       10.9286
_cell_length_c       10.9286
_cell_angle_alpha    97.1268
_cell_angle_beta     113.066
_cell_angle_gamma    113.067

_space_group_name_H-M_alt    "P 1"
_space_group_IT_number       1

loop_
  _space_group_symop_operation_xyz
  'x, y, z'

loop_
  _atom_site_type_symbol
  _atom_site_label
  _atom_site_symmetry_multiplicity
  _atom_site_fract_x
  _atom_site_fract_y
  _atom_site_fract_z
  _atom_site_occupancy
  Ag  Ag1       1.0  0.80340  0.87324  0.25664  1.0000
  Ag  Ag2       1.0  0.19667  0.74339  0.12676  1.0000
  H   H1        1.0  0.82747  0.25389  0.05336  1.0000
  H   H2        1.0  0.17245  0.94664  0.74610  1.0000
  H   H3        1.0  0.86136  0.39479  0.99476  1.0000
  H   H4        1.0  0.13860  0.00522  0.60522  1.0000
  H   H5        1.0  0.73241  0.02793  0.90486  1.0000
  H   H6        1.0  0.26746  0.09511  0.97204  1.0000
  H   H7        1.0  0.59783  0.88333  0.66732  1.0000
  H   H8        1.0  0.40207  0.33266  0.11663  1.0000
  H   H9        1.0  0.65391  0.24086  0.52348  1.0000
  H   H10       1.0  0.34622  0.47657  0.75913  1.0000
  H   H11       1.0  0.79276  0.38478  0.75991  1.0000
  H   H12       1.0  0.20731  0.24011  0.61524  1.0000
  H   H13       1.0  0.13092  0.13578  0.25651  1.0000
  H   H14       1.0  0.86901  0.74365  0.86406  1.0000
  H   H15       1.0  0.31231  0.32068  0.33291  1.0000
  H   H16       1.0  0.68751  0.66684  0.67923  1.0000
  H   H17       1.0  0.28375  0.21352  0.44046  1.0000
  H   H18       1.0  0.71651  0.55967  0.78677  1.0000
  H   H19       1.0  0.21226  0.56323  0.41950  1.0000
  H   H20       1.0  0.78772  0.58046  0.43677  1.0000
  H   H21       1.0  0.16792  0.48141  0.25417  1.0000
  H   H22       1.0  0.83200  0.74578  0.51855  1.0000
  H   H23       1.0  0.96123  0.54053  0.26433  1.0000
  H   H24       1.0  0.03874  0.73563  0.45944  1.0000
  C   C1        1.0  0.77196  0.21735  0.85016  1.0000
  C   C2        1.0  0.22803  0.14982  0.78263  1.0000
  C   C3        1.0  0.71505  0.07458  0.82096  1.0000
  C   C4        1.0  0.28490  0.17902  0.92539  1.0000
  C   C5        1.0  0.64070  0.99301  0.68776  1.0000
  C   C6        1.0  0.35930  0.31226  0.00697  1.0000
  C   C7        1.0  0.61617  0.05157  0.57887  1.0000
  C   C8        1.0  0.38385  0.42117  0.94844  1.0000
  C   C9        1.0  0.66991  0.19319  0.60575  1.0000
  C   C10       1.0  0.33010  0.39429  0.80680  1.0000
  C   C11       1.0  0.74794  0.27454  0.73955  1.0000
  C   C12       1.0  0.25210  0.26046  0.72547  1.0000
  C   C13       1.0  0.76934  0.14168  0.33808  1.0000
  C   C14       1.0  0.23070  0.66194  0.85830  1.0000
  C   C15       1.0  0.96710  0.23939  0.33196  1.0000
  C   C16       1.0  0.03289  0.66804  0.76059  1.0000
  C   C17       1.0  0.91441  0.35245  0.31547  1.0000
  C   C18       1.0  0.08558  0.68455  0.64757  1.0000
  C   C19       1.0  0.18306  0.22730  0.34116  1.0000
  C   C20       1.0  0.81694  0.65885  0.77271  1.0000
  C   C21       1.0  0.07195  0.49137  0.31225  1.0000
  C   C22       1.0  0.92803  0.68771  0.50864  1.0000
  S   S1        1.0  0.53013  0.94072  0.41531  1.0000
  S   S2        1.0  0.46991  0.58467  0.05928  1.0000
  N   N1        1.0  0.85582  0.29993  0.98255  1.0000
  N   N2        1.0  0.14415  0.01744  0.70006  1.0000
  N   N3        1.0  0.72842  0.01622  0.36312  1.0000
  N   N4        1.0  0.27162  0.63692  0.98377  1.0000
  N   N5        1.0  0.70105  0.32555  0.30783  1.0000
  N   N6        1.0  0.29892  0.69218  0.67445  1.0000
  O   O1        1.0  0.54171  0.81424  0.43383  1.0000
  O   O2        1.0  0.45833  0.56618  0.18577  1.0000
  O   O3        1.0  0.27963  0.91226  0.31107  1.0000
  O   O4        1.0  0.72042  0.68893  0.08775  1.0000
  O   O5        1.0  0.60227  0.18764  0.31737  1.0000
  O   O6        1.0  0.39778  0.68266  0.81235  1.0000
