data_image0
_chemical_formula_structural       Zn2H24C32N4O16
_chemical_formula_sum              "Zn2 H24 C32 N4 O16"
_cell_length_a       7.21484
_cell_length_b       7.29217
_cell_length_c       17.7408
_cell_angle_alpha    84.2424
_cell_angle_beta     78.2717
_cell_angle_gamma    60.3232

_space_group_name_H-M_alt    "P 1"
_space_group_IT_number       1

loop_
  _space_group_symop_operation_xyz
  'x, y, z'

loop_
  _atom_site_type_symbol
  _atom_site_label
  _atom_site_symmetry_multiplicity
  _atom_site_fract_x
  _atom_site_fract_y
  _atom_site_fract_z
  _atom_site_occupancy
  Zn  Zn1       1.0  0.76569  0.00017  0.99999  1.0000
  Zn  Zn2       1.0  0.51538  0.50018  0.50002  1.0000
  H   H1        1.0  0.93159  0.90464  0.69443  1.0000
  H   H2        1.0  0.53077  0.09529  0.30554  1.0000
  H   H3        1.0  0.37627  0.40483  0.80547  1.0000
  H   H4        1.0  0.58643  0.59513  0.19455  1.0000
  H   H5        1.0  0.27676  0.82802  0.74965  1.0000
  H   H6        1.0  0.85434  0.17177  0.25046  1.0000
  H   H7        1.0  0.77695  0.32728  0.75047  1.0000
  H   H8        1.0  0.85460  0.67251  0.24940  1.0000
  H   H9        1.0  0.43540  0.84520  0.86015  1.0000
  H   H10       1.0  0.14068  0.15430  0.13991  1.0000
  H   H11       1.0  0.04553  0.34506  0.63990  1.0000
  H   H12       1.0  0.03023  0.65474  0.36003  1.0000
  H   H13       1.0  0.94187  0.91636  0.57547  1.0000
  H   H14       1.0  0.43392  0.08349  0.42456  1.0000
  H   H15       1.0  0.26736  0.41719  0.92450  1.0000
  H   H16       1.0  0.60883  0.58325  0.07550  1.0000
  H   H17       1.0  0.69276  0.01123  0.54046  1.0000
  H   H18       1.0  0.24459  0.98881  0.45955  1.0000
  H   H19       1.0  0.98320  0.51208  0.95942  1.0000
  H   H20       1.0  0.45461  0.48842  0.04049  1.0000
  H   H21       1.0  0.87533  0.73505  0.54152  1.0000
  H   H22       1.0  0.15199  0.26494  0.45848  1.0000
  H   H23       1.0  0.16691  0.23593  0.95858  1.0000
  H   H24       1.0  0.36096  0.76455  0.04148  1.0000
  C   C1        1.0  0.79964  0.88699  0.84948  1.0000
  C   C2        1.0  0.53597  0.11298  0.15051  1.0000
  C   C3        1.0  0.39926  0.38674  0.65046  1.0000
  C   C4        1.0  0.43628  0.61305  0.34955  1.0000
  C   C5        1.0  0.69610  0.87488  0.78579  1.0000
  C   C6        1.0  0.35678  0.12494  0.21422  1.0000
  C   C7        1.0  0.23216  0.37467  0.71420  1.0000
  C   C8        1.0  0.32086  0.62513  0.28579  1.0000
  C   C9        1.0  0.78855  0.88460  0.70982  1.0000
  C   C10       1.0  0.38306  0.11531  0.29018  1.0000
  C   C11       1.0  0.24872  0.38457  0.79015  1.0000
  C   C12       1.0  0.42330  0.61534  0.20985  1.0000
  C   C13       1.0  0.52253  0.84849  0.66426  1.0000
  C   C14       1.0  0.03530  0.15158  0.33581  1.0000
  C   C15       1.0  0.93741  0.34815  0.83579  1.0000
  C   C16       1.0  0.12123  0.65178  0.16414  1.0000
  C   C17       1.0  0.42369  0.84107  0.73972  1.0000
  C   C18       1.0  0.00446  0.15876  0.26037  1.0000
  C   C19       1.0  0.91390  0.34056  0.76036  1.0000
  C   C20       1.0  0.01470  0.65925  0.23956  1.0000
  C   C21       1.0  0.50999  0.85317  0.80095  1.0000
  C   C22       1.0  0.16411  0.14652  0.19910  1.0000
  C   C23       1.0  0.06119  0.35288  0.69908  1.0000
  C   C24       1.0  0.11299  0.64692  0.30086  1.0000
  C   C25       1.0  0.81162  0.88409  0.57139  1.0000
  C   C26       1.0  0.26729  0.11587  0.42863  1.0000
  C   C27       1.0  0.13314  0.38478  0.92859  1.0000
  C   C28       1.0  0.44629  0.61562  0.07139  1.0000
  C   C29       1.0  0.42748  0.82308  0.59987  1.0000
  C   C30       1.0  0.85041  0.17741  0.40025  1.0000
  C   C31       1.0  0.77814  0.32265  0.90022  1.0000
  C   C32       1.0  0.00104  0.67717  0.09967  1.0000
  N   N1        1.0  0.70419  0.86995  0.65057  1.0000
  N   N2        1.0  0.22481  0.13004  0.34946  1.0000
  N   N3        1.0  0.10520  0.36999  0.84943  1.0000
  N   N4        1.0  0.32446  0.63006  0.15053  1.0000
  O   O1        1.0  0.68264  0.90966  0.91736  1.0000
  O   O2        1.0  0.50952  0.09023  0.08264  1.0000
  O   O3        1.0  0.34995  0.40941  0.58261  1.0000
  O   O4        1.0  0.34171  0.59060  0.41741  1.0000
  O   O5        1.0  0.98234  0.87377  0.83348  1.0000
  O   O6        1.0  0.68937  0.12634  0.16651  1.0000
  O   O7        1.0  0.56606  0.37348  0.66640  1.0000
  O   O8        1.0  0.60579  0.62621  0.33361  1.0000
  O   O9        1.0  0.22621  0.90694  0.60967  1.0000
  O   O10       1.0  0.74265  0.09367  0.39054  1.0000
  O   O11       1.0  0.58664  0.40654  0.89048  1.0000
  O   O12       1.0  0.88387  0.59313  0.10936  1.0000
  O   O13       1.0  0.56717  0.70609  0.54365  1.0000
  O   O14       1.0  0.81699  0.29458  0.45638  1.0000
  O   O15       1.0  0.86176  0.20557  0.95638  1.0000
  O   O16       1.0  0.02366  0.79430  0.04354  1.0000
