data_image0
_chemical_formula_structural       Cu2H56C52N4O16
_chemical_formula_sum              "Cu2 H56 C52 N4 O16"
_cell_length_a       9.07854
_cell_length_b       11.0872
_cell_length_c       13.4126
_cell_angle_alpha    107.713
_cell_angle_beta     89.9997
_cell_angle_gamma    90.0003

_space_group_name_H-M_alt    "P 1"
_space_group_IT_number       1

loop_
  _space_group_symop_operation_xyz
  'x, y, z'

loop_
  _atom_site_type_symbol
  _atom_site_label
  _atom_site_symmetry_multiplicity
  _atom_site_fract_x
  _atom_site_fract_y
  _atom_site_fract_z
  _atom_site_occupancy
  Cu  Cu1       1.0  0.00000  0.00000  1.00000  1.0000
  Cu  Cu2       1.0  0.50000  1.00000  0.50000  1.0000
  H   H1        1.0  0.62613  0.06980  0.68541  1.0000
  H   H2        1.0  0.12613  0.93020  0.81460  1.0000
  H   H3        1.0  0.37387  0.93020  0.31460  1.0000
  H   H4        1.0  0.87387  0.06980  0.18540  1.0000
  H   H5        1.0  0.76362  0.06813  0.88359  1.0000
  H   H6        1.0  0.26362  0.93186  0.61641  1.0000
  H   H7        1.0  0.23638  0.93186  0.11641  1.0000
  H   H8        1.0  0.73638  0.06813  0.38359  1.0000
  H   H9        1.0  0.43671  0.77294  0.82382  1.0000
  H   H10       1.0  0.93670  0.22705  0.67618  1.0000
  H   H11       1.0  0.56330  0.22705  0.17619  1.0000
  H   H12       1.0  0.06330  0.77295  0.32382  1.0000
  H   H13       1.0  0.59248  0.66845  0.92973  1.0000
  H   H14       1.0  0.09247  0.33155  0.57027  1.0000
  H   H15       1.0  0.40753  0.33155  0.07027  1.0000
  H   H16       1.0  0.90752  0.66845  0.42973  1.0000
  H   H17       1.0  0.83071  0.77225  0.00543  1.0000
  H   H18       1.0  0.33071  0.22776  0.49458  1.0000
  H   H19       1.0  0.16929  0.22776  0.99458  1.0000
  H   H20       1.0  0.66929  0.77224  0.50542  1.0000
  H   H21       1.0  0.39852  0.94824  0.75640  1.0000
  H   H22       1.0  0.89852  0.05176  0.74360  1.0000
  H   H23       1.0  0.60148  0.05176  0.24360  1.0000
  H   H24       1.0  0.10148  0.94824  0.25640  1.0000
  H   H25       1.0  0.48930  0.09242  0.82080  1.0000
  H   H26       1.0  0.98931  0.90758  0.67920  1.0000
  H   H27       1.0  0.51069  0.90758  0.17920  1.0000
  H   H28       1.0  0.01070  0.09242  0.32080  1.0000
  H   H29       1.0  0.30833  0.54316  0.75214  1.0000
  H   H30       1.0  0.80832  0.45685  0.74786  1.0000
  H   H31       1.0  0.69167  0.45685  0.24786  1.0000
  H   H32       1.0  0.19167  0.54315  0.25214  1.0000
  H   H33       1.0  0.19903  0.67843  0.16001  1.0000
  H   H34       1.0  0.69903  0.32157  0.33999  1.0000
  H   H35       1.0  0.80097  0.32157  0.84000  1.0000
  H   H36       1.0  0.30097  0.67843  0.66000  1.0000
  H   H37       1.0  0.05310  0.56681  0.11689  1.0000
  H   H38       1.0  0.55310  0.43319  0.38311  1.0000
  H   H39       1.0  0.94690  0.43319  0.88311  1.0000
  H   H40       1.0  0.44690  0.56681  0.61689  1.0000
  H   H41       1.0  0.04168  0.71992  0.09894  1.0000
  H   H42       1.0  0.54169  0.28007  0.40106  1.0000
  H   H43       1.0  0.95832  0.28008  0.90106  1.0000
  H   H44       1.0  0.45832  0.71992  0.59894  1.0000
  H   H45       1.0  0.41518  0.30443  0.74893  1.0000
  H   H46       1.0  0.91517  0.69557  0.75107  1.0000
  H   H47       1.0  0.58482  0.69557  0.25107  1.0000
  H   H48       1.0  0.08482  0.30442  0.24893  1.0000
  H   H49       1.0  0.30932  0.24248  0.83392  1.0000
  H   H50       1.0  0.80933  0.75752  0.66608  1.0000
  H   H51       1.0  0.69068  0.75752  0.16608  1.0000
  H   H52       1.0  0.19067  0.24248  0.33392  1.0000
  H   H53       1.0  0.48237  0.31685  0.87551  1.0000
  H   H54       1.0  0.98236  0.68315  0.62448  1.0000
  H   H55       1.0  0.51763  0.68315  0.12448  1.0000
  H   H56       1.0  0.01763  0.31684  0.37552  1.0000
  C   C1        1.0  0.72157  0.97880  0.89018  1.0000
  C   C2        1.0  0.22157  0.02120  0.60982  1.0000
  C   C3        1.0  0.27843  0.02120  0.10982  1.0000
  C   C4        1.0  0.77843  0.97880  0.39018  1.0000
  C   C5        1.0  0.58941  0.92729  0.84301  1.0000
  C   C6        1.0  0.08941  0.07270  0.65699  1.0000
  C   C7        1.0  0.41058  0.07270  0.15699  1.0000
  C   C8        1.0  0.91059  0.92730  0.34301  1.0000
  C   C9        1.0  0.54109  0.81437  0.85785  1.0000
  C   C10       1.0  0.04109  0.18563  0.64215  1.0000
  C   C11       1.0  0.45891  0.18563  0.14215  1.0000
  C   C12       1.0  0.95891  0.81437  0.35785  1.0000
  C   C13       1.0  0.62648  0.75698  0.91727  1.0000
  C   C14       1.0  0.12647  0.24302  0.58273  1.0000
  C   C15       1.0  0.37353  0.24302  0.08273  1.0000
  C   C16       1.0  0.87353  0.75698  0.41727  1.0000
  C   C17       1.0  0.75829  0.81343  0.95992  1.0000
  C   C18       1.0  0.25829  0.18657  0.54008  1.0000
  C   C19       1.0  0.24171  0.18658  0.04008  1.0000
  C   C20       1.0  0.74171  0.81342  0.45992  1.0000
  C   C21       1.0  0.50747  0.99243  0.77612  1.0000
  C   C22       1.0  0.00747  0.00756  0.72388  1.0000
  C   C23       1.0  0.49253  0.00757  0.22388  1.0000
  C   C24       1.0  0.99253  0.99243  0.27612  1.0000
  C   C25       1.0  0.15114  0.76013  0.90011  1.0000
  C   C26       1.0  0.65113  0.23987  0.59989  1.0000
  C   C27       1.0  0.84887  0.23987  0.09989  1.0000
  C   C28       1.0  0.34887  0.76013  0.40011  1.0000
  C   C29       1.0  0.18490  0.59247  0.99361  1.0000
  C   C30       1.0  0.68490  0.40753  0.50640  1.0000
  C   C31       1.0  0.81510  0.40753  0.00640  1.0000
  C   C32       1.0  0.31510  0.59247  0.49360  1.0000
  C   C33       1.0  0.20088  0.63685  0.90848  1.0000
  C   C34       1.0  0.70087  0.36315  0.59152  1.0000
  C   C35       1.0  0.79913  0.36315  0.09152  1.0000
  C   C36       1.0  0.29913  0.63685  0.40848  1.0000
  C   C37       1.0  0.27900  0.54045  0.82963  1.0000
  C   C38       1.0  0.77898  0.45956  0.67037  1.0000
  C   C39       1.0  0.72101  0.45956  0.17037  1.0000
  C   C40       1.0  0.22101  0.54044  0.32963  1.0000
  C   C41       1.0  0.30718  0.44429  0.87018  1.0000
  C   C42       1.0  0.80718  0.55572  0.62982  1.0000
  C   C43       1.0  0.69282  0.55572  0.12982  1.0000
  C   C44       1.0  0.19282  0.44428  0.37018  1.0000
  C   C45       1.0  0.11596  0.64194  0.09813  1.0000
  C   C46       1.0  0.61596  0.35805  0.40187  1.0000
  C   C47       1.0  0.88405  0.35806  0.90187  1.0000
  C   C48       1.0  0.38405  0.64194  0.59813  1.0000
  C   C49       1.0  0.38200  0.32049  0.83040  1.0000
  C   C50       1.0  0.88199  0.67951  0.66959  1.0000
  C   C51       1.0  0.61800  0.67951  0.16960  1.0000
  C   C52       1.0  0.11800  0.32049  0.33041  1.0000
  N   N1        1.0  0.80447  0.92305  0.94636  1.0000
  N   N2        1.0  0.30446  0.07695  0.55363  1.0000
  N   N3        1.0  0.19553  0.07695  0.05363  1.0000
  N   N4        1.0  0.69553  0.92305  0.44637  1.0000
  O   O1        1.0  0.07944  0.82983  0.98010  1.0000
  O   O2        1.0  0.57944  0.17017  0.51990  1.0000
  O   O3        1.0  0.92056  0.17017  0.01990  1.0000
  O   O4        1.0  0.42056  0.82983  0.48009  1.0000
  O   O5        1.0  0.18084  0.79022  0.81849  1.0000
  O   O6        1.0  0.68084  0.20978  0.68151  1.0000
  O   O7        1.0  0.81916  0.20978  0.18151  1.0000
  O   O8        1.0  0.31915  0.79022  0.31849  1.0000
  O   O9        1.0  0.58783  0.98339  0.68224  1.0000
  O   O10       1.0  0.08784  0.01661  0.81776  1.0000
  O   O11       1.0  0.41217  0.01660  0.31776  1.0000
  O   O12       1.0  0.91217  0.98339  0.18224  1.0000
  O   O13       1.0  0.25024  0.47543  0.97111  1.0000
  O   O14       1.0  0.75023  0.52457  0.52889  1.0000
  O   O15       1.0  0.74977  0.52456  0.02889  1.0000
  O   O16       1.0  0.24976  0.47543  0.47110  1.0000
