data_image0
_chemical_formula_structural       Zn4Mo4H36C48N20O16
_chemical_formula_sum              "Zn4 Mo4 H36 C48 N20 O16"
_cell_length_a       6.35989
_cell_length_b       9.38817
_cell_length_c       22.9743
_cell_angle_alpha    90.0002
_cell_angle_beta     90
_cell_angle_gamma    90.0003

_space_group_name_H-M_alt    "P 1"
_space_group_IT_number       1

loop_
  _space_group_symop_operation_xyz
  'x, y, z'

loop_
  _atom_site_type_symbol
  _atom_site_label
  _atom_site_symmetry_multiplicity
  _atom_site_fract_x
  _atom_site_fract_y
  _atom_site_fract_z
  _atom_site_occupancy
  Zn  Zn1       1.0  0.50140  0.31070  0.93818  1.0000
  Zn  Zn2       1.0  0.00140  0.68930  0.06182  1.0000
  Zn  Zn3       1.0  0.50141  0.18930  0.43818  1.0000
  Zn  Zn4       1.0  0.00140  0.81070  0.56182  1.0000
  Mo  Mo1       1.0  0.00139  0.51873  0.91948  1.0000
  Mo  Mo2       1.0  0.50139  0.48127  0.08052  1.0000
  Mo  Mo3       1.0  0.00139  0.98127  0.41948  1.0000
  Mo  Mo4       1.0  0.50139  0.01873  0.58052  1.0000
  H   H1        1.0  0.49985  0.11765  0.71674  1.0000
  H   H2        1.0  0.99986  0.88235  0.28326  1.0000
  H   H3        1.0  0.49985  0.38235  0.21675  1.0000
  H   H4        1.0  0.99985  0.61765  0.78325  1.0000
  H   H5        1.0  0.49075  0.31587  0.67534  1.0000
  H   H6        1.0  0.99075  0.68413  0.32465  1.0000
  H   H7        1.0  0.49075  0.18413  0.17534  1.0000
  H   H8        1.0  0.99075  0.81587  0.82466  1.0000
  H   H9        1.0  0.50147  0.10840  0.04374  1.0000
  H   H10       1.0  0.00147  0.89161  0.95626  1.0000
  H   H11       1.0  0.50147  0.39161  0.54374  1.0000
  H   H12       1.0  0.00147  0.60839  0.45626  1.0000
  H   H13       1.0  0.49315  0.79505  0.87229  1.0000
  H   H14       1.0  0.99315  0.20495  0.12771  1.0000
  H   H15       1.0  0.49315  0.70495  0.37230  1.0000
  H   H16       1.0  0.99315  0.29505  0.62770  1.0000
  H   H17       1.0  0.50795  0.52360  0.84332  1.0000
  H   H18       1.0  0.00796  0.47640  0.15668  1.0000
  H   H19       1.0  0.50796  0.97640  0.34332  1.0000
  H   H20       1.0  0.00796  0.02360  0.65668  1.0000
  H   H21       1.0  0.50609  0.75894  0.78829  1.0000
  H   H22       1.0  0.00609  0.24106  0.21171  1.0000
  H   H23       1.0  0.50610  0.74106  0.28829  1.0000
  H   H24       1.0  0.00609  0.25894  0.71171  1.0000
  H   H25       1.0  0.49799  0.75565  0.68116  1.0000
  H   H26       1.0  0.99799  0.24435  0.31884  1.0000
  H   H27       1.0  0.49799  0.74436  0.18116  1.0000
  H   H28       1.0  0.99799  0.25565  0.81884  1.0000
  H   H29       1.0  0.49972  0.84424  0.05952  1.0000
  H   H30       1.0  0.99972  0.15576  0.94048  1.0000
  H   H31       1.0  0.49972  0.65576  0.55952  1.0000
  H   H32       1.0  0.99972  0.34424  0.44048  1.0000
  H   H33       1.0  0.49578  0.68381  0.97126  1.0000
  H   H34       1.0  0.99578  0.31619  0.02874  1.0000
  H   H35       1.0  0.49578  0.81619  0.47126  1.0000
  H   H36       1.0  0.99578  0.18381  0.52874  1.0000
  C   C1        1.0  0.49938  0.26057  0.79177  1.0000
  C   C2        1.0  0.99938  0.73943  0.20823  1.0000
  C   C3        1.0  0.49938  0.23943  0.29177  1.0000
  C   C4        1.0  0.99938  0.76057  0.70823  1.0000
  C   C5        1.0  0.49924  0.40030  0.76369  1.0000
  C   C6        1.0  0.99924  0.59969  0.23631  1.0000
  C   C7        1.0  0.49923  0.09970  0.26369  1.0000
  C   C8        1.0  0.99924  0.90030  0.73631  1.0000
  C   C9        1.0  0.49767  0.00854  0.90650  1.0000
  C   C10       1.0  0.99768  0.99146  0.09350  1.0000
  C   C11       1.0  0.49768  0.49146  0.40650  1.0000
  C   C12       1.0  0.99767  0.50854  0.59350  1.0000
  C   C13       1.0  0.49448  0.41150  0.70245  1.0000
  C   C14       1.0  0.99448  0.58850  0.29754  1.0000
  C   C15       1.0  0.49447  0.08851  0.20246  1.0000
  C   C16       1.0  0.99448  0.91150  0.79754  1.0000
  C   C17       1.0  0.49784  0.08441  0.85113  1.0000
  C   C18       1.0  0.99785  0.91558  0.14887  1.0000
  C   C19       1.0  0.49784  0.41558  0.35114  1.0000
  C   C20       1.0  0.99785  0.58442  0.64886  1.0000
  C   C21       1.0  0.50022  0.03382  0.00742  1.0000
  C   C22       1.0  0.00022  0.96618  0.99258  1.0000
  C   C23       1.0  0.50022  0.46618  0.50742  1.0000
  C   C24       1.0  0.00022  0.53382  0.49258  1.0000
  C   C25       1.0  0.49583  0.86019  0.91136  1.0000
  C   C26       1.0  0.99583  0.13981  0.08864  1.0000
  C   C27       1.0  0.49583  0.63981  0.41136  1.0000
  C   C28       1.0  0.99583  0.36019  0.58864  1.0000
  C   C29       1.0  0.50361  0.52730  0.79595  1.0000
  C   C30       1.0  0.00361  0.47270  0.20405  1.0000
  C   C31       1.0  0.50361  0.97270  0.29595  1.0000
  C   C32       1.0  0.00361  0.02730  0.70405  1.0000
  C   C33       1.0  0.50286  0.65634  0.76613  1.0000
  C   C34       1.0  0.00286  0.34366  0.23387  1.0000
  C   C35       1.0  0.50287  0.84366  0.26613  1.0000
  C   C36       1.0  0.00286  0.15634  0.73387  1.0000
  C   C37       1.0  0.49836  0.65538  0.70538  1.0000
  C   C38       1.0  0.99836  0.34461  0.29462  1.0000
  C   C39       1.0  0.49836  0.84462  0.20538  1.0000
  C   C40       1.0  0.99836  0.15539  0.79462  1.0000
  C   C41       1.0  0.49925  0.88716  0.01552  1.0000
  C   C42       1.0  0.99925  0.11284  0.98449  1.0000
  C   C43       1.0  0.49925  0.61284  0.51552  1.0000
  C   C44       1.0  0.99925  0.38716  0.48448  1.0000
  C   C45       1.0  0.49701  0.79915  0.96652  1.0000
  C   C46       1.0  0.99701  0.20085  0.03349  1.0000
  C   C47       1.0  0.49701  0.70085  0.46652  1.0000
  C   C48       1.0  0.99701  0.29915  0.53348  1.0000
  N   N1        1.0  0.49895  0.13522  0.76232  1.0000
  N   N2        1.0  0.99895  0.86478  0.23768  1.0000
  N   N3        1.0  0.49894  0.36478  0.26232  1.0000
  N   N4        1.0  0.99895  0.63522  0.73768  1.0000
  N   N5        1.0  0.49892  0.22975  0.84905  1.0000
  N   N6        1.0  0.99893  0.77025  0.15095  1.0000
  N   N7        1.0  0.49892  0.27025  0.34905  1.0000
  N   N8        1.0  0.99893  0.72975  0.65095  1.0000
  N   N9        1.0  0.49774  0.02315  0.79873  1.0000
  N   N10       1.0  0.99775  0.97685  0.20127  1.0000
  N   N11       1.0  0.49774  0.47685  0.29873  1.0000
  N   N12       1.0  0.99774  0.52315  0.70127  1.0000
  N   N13       1.0  0.49973  0.09303  0.95414  1.0000
  N   N14       1.0  0.99973  0.90697  0.04586  1.0000
  N   N15       1.0  0.49973  0.40697  0.45414  1.0000
  N   N16       1.0  0.99973  0.59303  0.54586  1.0000
  N   N17       1.0  0.49440  0.53544  0.67360  1.0000
  N   N18       1.0  0.99440  0.46456  0.32640  1.0000
  N   N19       1.0  0.49439  0.96456  0.17360  1.0000
  N   N20       1.0  0.99440  0.03544  0.82640  1.0000
  O   O1        1.0  0.23292  0.41363  0.92714  1.0000
  O   O2        1.0  0.73291  0.58638  0.07286  1.0000
  O   O3        1.0  0.23292  0.08638  0.42714  1.0000
  O   O4        1.0  0.73291  0.91362  0.57286  1.0000
  O   O5        1.0  0.77095  0.41219  0.92693  1.0000
  O   O6        1.0  0.27094  0.58780  0.07307  1.0000
  O   O7        1.0  0.77095  0.08780  0.42693  1.0000
  O   O8        1.0  0.27094  0.91220  0.57307  1.0000
  O   O9        1.0  0.00075  0.65417  0.97297  1.0000
  O   O10       1.0  0.50075  0.34582  0.02703  1.0000
  O   O11       1.0  0.00075  0.84582  0.47297  1.0000
  O   O12       1.0  0.50075  0.15418  0.52703  1.0000
  O   O13       1.0  0.00123  0.59965  0.85050  1.0000
  O   O14       1.0  0.50123  0.40035  0.14950  1.0000
  O   O15       1.0  0.00122  0.90035  0.35050  1.0000
  O   O16       1.0  0.50123  0.09965  0.64950  1.0000
