data_image0
_chemical_formula_structural       Cu2H28C30N4O8
_chemical_formula_sum              "Cu2 H28 C30 N4 O8"
_cell_length_a       7.43769
_cell_length_b       7.87337
_cell_length_c       12.9804
_cell_angle_alpha    97.1285
_cell_angle_beta     98.5084
_cell_angle_gamma    92.5124

_space_group_name_H-M_alt    "P 1"
_space_group_IT_number       1

loop_
  _space_group_symop_operation_xyz
  'x, y, z'

loop_
  _atom_site_type_symbol
  _atom_site_label
  _atom_site_symmetry_multiplicity
  _atom_site_fract_x
  _atom_site_fract_y
  _atom_site_fract_z
  _atom_site_occupancy
  Cu  Cu1       1.0  0.92646  0.44269  0.57398  1.0000
  Cu  Cu2       1.0  0.07353  0.55730  0.42601  1.0000
  H   H1        1.0  0.54367  0.20459  0.00099  1.0000
  H   H2        1.0  0.45634  0.79541  0.99902  1.0000
  H   H3        1.0  0.32510  0.35700  0.09854  1.0000
  H   H4        1.0  0.67490  0.64302  0.90147  1.0000
  H   H5        1.0  0.53348  0.36731  0.59385  1.0000
  H   H6        1.0  0.46652  0.63264  0.40614  1.0000
  H   H7        1.0  0.33583  0.28132  0.72247  1.0000
  H   H8        1.0  0.66417  0.71865  0.27752  1.0000
  H   H9        1.0  0.00593  0.34106  0.80253  1.0000
  H   H10       1.0  0.99408  0.65894  0.19747  1.0000
  H   H11       1.0  0.13876  0.29561  0.23641  1.0000
  H   H12       1.0  0.86126  0.70440  0.76361  1.0000
  H   H13       1.0  0.89824  0.05998  0.19874  1.0000
  H   H14       1.0  0.10178  0.94004  0.80128  1.0000
  H   H15       1.0  0.82987  0.26650  0.94297  1.0000
  H   H16       1.0  0.17014  0.73351  0.05703  1.0000
  H   H17       1.0  0.81172  0.01927  0.60167  1.0000
  H   H18       1.0  0.18829  0.98073  0.39832  1.0000
  H   H19       1.0  0.59441  0.91131  0.55397  1.0000
  H   H20       1.0  0.40560  0.08868  0.44603  1.0000
  H   H21       1.0  0.72364  0.00906  0.46714  1.0000
  H   H22       1.0  0.27635  0.99093  0.53285  1.0000
  H   H23       1.0  0.60797  0.10792  0.28243  1.0000
  H   H24       1.0  0.39201  0.89208  0.71756  1.0000
  H   H25       1.0  0.60445  0.27509  0.20092  1.0000
  H   H26       1.0  0.39552  0.72492  0.79907  1.0000
  H   H27       1.0  0.46170  0.27618  0.30167  1.0000
  H   H28       1.0  0.53829  0.72383  0.69832  1.0000
  C   C1        1.0  0.82368  0.77340  0.51638  1.0000
  C   C2        1.0  0.17632  0.22660  0.48362  1.0000
  C   C3        1.0  0.19440  0.15141  0.98439  1.0000
  C   C4        1.0  0.80561  0.84861  0.01562  1.0000
  C   C5        1.0  0.94647  0.98410  0.03976  1.0000
  C   C6        1.0  0.05353  0.01592  0.96025  1.0000
  C   C7        1.0  0.56847  0.26606  0.84342  1.0000
  C   C8        1.0  0.43153  0.73393  0.15658  1.0000
  C   C9        1.0  0.46441  0.21727  0.92355  1.0000
  C   C10       1.0  0.53560  0.78273  0.07645  1.0000
  C   C11       1.0  0.74378  0.34525  0.35980  1.0000
  C   C12       1.0  0.25621  0.65475  0.64019  1.0000
  C   C13       1.0  0.22248  0.25002  0.08272  1.0000
  C   C14       1.0  0.77752  0.75000  0.91730  1.0000
  C   C15       1.0  0.59229  0.34067  0.67186  1.0000
  C   C16       1.0  0.40771  0.65930  0.32813  1.0000
  C   C17       1.0  0.48365  0.29415  0.74328  1.0000
  C   C18       1.0  0.51636  0.70583  0.25671  1.0000
  C   C19       1.0  0.85727  0.32835  0.78852  1.0000
  C   C20       1.0  0.14273  0.67165  0.21148  1.0000
  C   C21       1.0  0.11549  0.21755  0.15983  1.0000
  C   C22       1.0  0.88452  0.78247  0.84018  1.0000
  C   C23       1.0  0.98023  0.08668  0.13906  1.0000
  C   C24       1.0  0.01978  0.91334  0.86096  1.0000
  C   C25       1.0  0.75897  0.28564  0.86602  1.0000
  C   C26       1.0  0.24103  0.71436  0.13398  1.0000
  C   C27       1.0  0.73029  0.93793  0.53458  1.0000
  C   C28       1.0  0.26971  0.06206  0.46542  1.0000
  C   C29       1.0  0.59505  0.24607  0.28024  1.0000
  C   C30       1.0  0.40493  0.75393  0.71975  1.0000
  N   N1        1.0  0.77590  0.35638  0.69322  1.0000
  N   N2        1.0  0.22410  0.64360  0.30678  1.0000
  N   N3        1.0  0.29078  0.18699  0.90438  1.0000
  N   N4        1.0  0.70923  0.81304  0.09563  1.0000
  O   O1        1.0  0.73636  0.33115  0.45587  1.0000
  O   O2        1.0  0.26362  0.66886  0.54412  1.0000
  O   O3        1.0  0.92333  0.75975  0.44420  1.0000
  O   O4        1.0  0.07665  0.24023  0.55579  1.0000
  O   O5        1.0  0.79786  0.66111  0.57667  1.0000
  O   O6        1.0  0.20215  0.33890  0.42334  1.0000
  O   O7        1.0  0.86422  0.43316  0.32522  1.0000
  O   O8        1.0  0.13578  0.56682  0.67477  1.0000
