data_image0
_chemical_formula_structural       CuH30C32N4O4
_chemical_formula_sum              "Cu1 H30 C32 N4 O4"
_cell_length_a       8.59378
_cell_length_b       8.8619
_cell_length_c       10.7548
_cell_angle_alpha    78.7184
_cell_angle_beta     72.322
_cell_angle_gamma    64.9696

_space_group_name_H-M_alt    "P 1"
_space_group_IT_number       1

loop_
  _space_group_symop_operation_xyz
  'x, y, z'

loop_
  _atom_site_type_symbol
  _atom_site_label
  _atom_site_symmetry_multiplicity
  _atom_site_fract_x
  _atom_site_fract_y
  _atom_site_fract_z
  _atom_site_occupancy
  Cu  Cu1       1.0  0.50000  0.50000  1.00000  1.0000
  H   H1        1.0  0.08948  0.41116  0.14366  1.0000
  H   H2        1.0  0.91052  0.58884  0.85634  1.0000
  H   H3        1.0  0.27223  0.93274  0.61772  1.0000
  H   H4        1.0  0.72777  0.06727  0.38228  1.0000
  H   H5        1.0  0.89194  0.34244  0.05099  1.0000
  H   H6        1.0  0.10806  0.65756  0.94901  1.0000
  H   H7        1.0  0.44022  0.69773  0.25522  1.0000
  H   H8        1.0  0.55978  0.30226  0.74478  1.0000
  H   H9        1.0  0.12343  0.58635  0.27092  1.0000
  H   H10       1.0  0.87657  0.41365  0.72908  1.0000
  H   H11       1.0  0.37168  0.63697  0.57237  1.0000
  H   H12       1.0  0.62832  0.36303  0.42763  1.0000
  H   H13       1.0  0.61678  0.77882  0.35995  1.0000
  H   H14       1.0  0.38322  0.22117  0.64005  1.0000
  H   H15       1.0  0.20356  0.55679  0.46336  1.0000
  H   H16       1.0  0.79644  0.44321  0.53664  1.0000
  H   H17       1.0  0.36549  0.02625  0.86864  1.0000
  H   H18       1.0  0.63452  0.97375  0.13135  1.0000
  H   H19       1.0  0.01759  0.98486  0.12116  1.0000
  H   H20       1.0  0.98241  0.01514  0.87884  1.0000
  H   H21       1.0  0.13521  0.11859  0.04673  1.0000
  H   H22       1.0  0.86480  0.88141  0.95327  1.0000
  H   H23       1.0  0.17528  0.98903  0.19231  1.0000
  H   H24       1.0  0.82473  0.01097  0.80769  1.0000
  H   H25       1.0  0.78697  0.79152  0.69122  1.0000
  H   H26       1.0  0.21303  0.20848  0.30878  1.0000
  H   H27       1.0  0.59392  0.97584  0.68060  1.0000
  H   H28       1.0  0.40609  0.02416  0.31940  1.0000
  H   H29       1.0  0.63453  0.78980  0.61407  1.0000
  H   H30       1.0  0.36548  0.21020  0.38593  1.0000
  C   C1        1.0  0.04877  0.02219  0.53158  1.0000
  C   C2        1.0  0.95122  0.97781  0.46843  1.0000
  C   C3        1.0  0.01203  0.80642  0.44211  1.0000
  C   C4        1.0  0.98796  0.19358  0.55789  1.0000
  C   C5        1.0  0.94564  0.47607  0.17125  1.0000
  C   C6        1.0  0.05436  0.52392  0.82875  1.0000
  C   C7        1.0  0.86755  0.60276  0.25748  1.0000
  C   C8        1.0  0.13245  0.39723  0.74253  1.0000
  C   C9        1.0  0.20113  0.89703  0.56802  1.0000
  C   C10       1.0  0.79886  0.10297  0.43198  1.0000
  C   C11       1.0  0.83664  0.43825  0.12012  1.0000
  C   C12       1.0  0.16336  0.56175  0.87988  1.0000
  C   C13       1.0  0.58457  0.63700  0.23363  1.0000
  C   C14       1.0  0.41543  0.36300  0.76637  1.0000
  C   C15       1.0  0.97909  0.65028  0.30808  1.0000
  C   C16       1.0  0.02091  0.34972  0.69192  1.0000
  C   C17       1.0  0.25599  0.73307  0.54222  1.0000
  C   C18       1.0  0.74400  0.26693  0.45779  1.0000
  C   C19       1.0  0.68156  0.68242  0.29081  1.0000
  C   C20       1.0  0.31844  0.31757  0.70919  1.0000
  C   C21       1.0  0.16229  0.68737  0.47943  1.0000
  C   C22       1.0  0.83771  0.31263  0.52057  1.0000
  C   C23       1.0  0.29044  0.85559  0.01952  1.0000
  C   C24       1.0  0.70957  0.14441  0.98048  1.0000
  C   C25       1.0  0.54797  0.77837  0.82370  1.0000
  C   C26       1.0  0.45203  0.22163  0.17629  1.0000
  C   C27       1.0  0.39809  0.89473  0.90131  1.0000
  C   C28       1.0  0.60191  0.10528  0.09869  1.0000
  C   C29       1.0  0.14590  0.99641  0.09814  1.0000
  C   C30       1.0  0.85410  0.00359  0.90186  1.0000
  C   C31       1.0  0.64491  0.83947  0.69599  1.0000
  C   C32       1.0  0.35509  0.16052  0.30400  1.0000
  N   N1        1.0  0.90770  0.76568  0.38824  1.0000
  N   N2        1.0  0.09229  0.23432  0.61176  1.0000
  N   N3        1.0  0.65997  0.51772  0.14848  1.0000
  N   N4        1.0  0.34003  0.48227  0.85152  1.0000
  O   O1        1.0  0.61372  0.62011  0.85159  1.0000
  O   O2        1.0  0.38629  0.37989  0.14841  1.0000
  O   O3        1.0  0.30422  0.70802  0.06939  1.0000
  O   O4        1.0  0.69578  0.29198  0.93061  1.0000
