data_image0
_chemical_formula_structural       H32Pb2C44Br4N8
_chemical_formula_sum              "H32 Pb2 C44 Br4 N8"
_cell_length_a       4.15769
_cell_length_b       16.0906
_cell_length_c       17.4168
_cell_angle_alpha    113.794
_cell_angle_beta     89.999
_cell_angle_gamma    89.9998

_space_group_name_H-M_alt    "P 1"
_space_group_IT_number       1

loop_
  _space_group_symop_operation_xyz
  'x, y, z'

loop_
  _atom_site_type_symbol
  _atom_site_label
  _atom_site_symmetry_multiplicity
  _atom_site_fract_x
  _atom_site_fract_y
  _atom_site_fract_z
  _atom_site_occupancy
  H   H1        1.0  0.85946  0.78219  0.23287  1.0000
  H   H2        1.0  0.85946  0.21781  0.26713  1.0000
  H   H3        1.0  0.14053  0.21781  0.76712  1.0000
  H   H4        1.0  0.14052  0.78219  0.73288  1.0000
  H   H5        1.0  0.29533  0.97088  0.41750  1.0000
  H   H6        1.0  0.29535  0.02912  0.08251  1.0000
  H   H7        1.0  0.70467  0.02912  0.58250  1.0000
  H   H8        1.0  0.70465  0.97088  0.91749  1.0000
  H   H9        1.0  0.27563  0.87457  0.50027  1.0000
  H   H10       1.0  0.27562  0.12543  0.99973  1.0000
  H   H11       1.0  0.72439  0.12543  0.49973  1.0000
  H   H12       1.0  0.72436  0.87457  0.00026  1.0000
  H   H13       1.0  0.87144  0.67901  0.30940  1.0000
  H   H14       1.0  0.87142  0.32099  0.19059  1.0000
  H   H15       1.0  0.12857  0.32099  0.69060  1.0000
  H   H16       1.0  0.12857  0.67901  0.80940  1.0000
  H   H17       1.0  0.39181  0.73223  0.51080  1.0000
  H   H18       1.0  0.39181  0.26776  0.98920  1.0000
  H   H19       1.0  0.60819  0.26777  0.48920  1.0000
  H   H20       1.0  0.60819  0.73224  0.01080  1.0000
  H   H21       1.0  0.40214  0.28623  0.38724  1.0000
  H   H22       1.0  0.40214  0.71377  0.11276  1.0000
  H   H23       1.0  0.59787  0.71377  0.61276  1.0000
  H   H24       1.0  0.59785  0.28623  0.88725  1.0000
  H   H25       1.0  0.34502  0.37079  0.29678  1.0000
  H   H26       1.0  0.34505  0.62921  0.20323  1.0000
  H   H27       1.0  0.65497  0.62921  0.70322  1.0000
  H   H28       1.0  0.65497  0.37079  0.79677  1.0000
  H   H29       1.0  0.07181  0.52173  0.35059  1.0000
  H   H30       1.0  0.07182  0.47828  0.14940  1.0000
  H   H31       1.0  0.92819  0.47827  0.64941  1.0000
  H   H32       1.0  0.92821  0.52172  0.85060  1.0000
  Pb  Pb1       1.0  0.58088  1.00000  0.25000  1.0000
  Pb  Pb2       1.0  0.41910  0.00000  0.74999  1.0000
  C   C1        1.0  0.73385  0.80009  0.29257  1.0000
  C   C2        1.0  0.73385  0.19991  0.20743  1.0000
  C   C3        1.0  0.26615  0.19991  0.70743  1.0000
  C   C4        1.0  0.26615  0.80009  0.79257  1.0000
  C   C5        1.0  0.41989  0.90558  0.39572  1.0000
  C   C6        1.0  0.41990  0.09442  0.10428  1.0000
  C   C7        1.0  0.58011  0.09442  0.60428  1.0000
  C   C8        1.0  0.58011  0.90558  0.89572  1.0000
  C   C9        1.0  0.40909  0.85212  0.44142  1.0000
  C   C10       1.0  0.40911  0.14788  0.05858  1.0000
  C   C11       1.0  0.59090  0.14789  0.55858  1.0000
  C   C12       1.0  0.59091  0.85212  0.94142  1.0000
  C   C13       1.0  0.73990  0.74300  0.33485  1.0000
  C   C14       1.0  0.73990  0.25699  0.16515  1.0000
  C   C15       1.0  0.26010  0.25700  0.66516  1.0000
  C   C16       1.0  0.26010  0.74300  0.83484  1.0000
  C   C17       1.0  0.57587  0.76925  0.41160  1.0000
  C   C18       1.0  0.57587  0.23074  0.08840  1.0000
  C   C19       1.0  0.42414  0.23075  0.58840  1.0000
  C   C20       1.0  0.42415  0.76925  0.91160  1.0000
  C   C21       1.0  0.57928  0.71545  0.46220  1.0000
  C   C22       1.0  0.57928  0.28455  0.03781  1.0000
  C   C23       1.0  0.42073  0.28455  0.53781  1.0000
  C   C24       1.0  0.42073  0.71544  0.96219  1.0000
  C   C25       1.0  0.81814  0.60975  0.50469  1.0000
  C   C26       1.0  0.81814  0.39025  0.99531  1.0000
  C   C27       1.0  0.18186  0.39025  0.49530  1.0000
  C   C28       1.0  0.18186  0.60974  0.00469  1.0000
  C   C29       1.0  0.29103  0.35327  0.41256  1.0000
  C   C30       1.0  0.29103  0.64673  0.08743  1.0000
  C   C31       1.0  0.70898  0.64673  0.58743  1.0000
  C   C32       1.0  0.70898  0.35327  0.91257  1.0000
  C   C33       1.0  0.25228  0.40067  0.36077  1.0000
  C   C34       1.0  0.25228  0.59934  0.13923  1.0000
  C   C35       1.0  0.74773  0.59933  0.63923  1.0000
  C   C36       1.0  0.74773  0.40066  0.86077  1.0000
  C   C37       1.0  0.10097  0.48422  0.39006  1.0000
  C   C38       1.0  0.10095  0.51579  0.10994  1.0000
  C   C39       1.0  0.89904  0.51578  0.60993  1.0000
  C   C40       1.0  0.89906  0.48421  0.89006  1.0000
  C   C41       1.0  0.98067  0.52357  0.47308  1.0000
  C   C42       1.0  0.98065  0.47643  0.02692  1.0000
  C   C43       1.0  0.01934  0.47643  0.52691  1.0000
  C   C44       1.0  0.01935  0.52357  0.97308  1.0000
  Br  Br1       1.0  0.07413  0.11612  0.36968  1.0000
  Br  Br2       1.0  0.07412  0.88387  0.13032  1.0000
  Br  Br3       1.0  0.92582  0.88389  0.63032  1.0000
  Br  Br4       1.0  0.92581  0.11613  0.86970  1.0000
  N   N1        1.0  0.57927  0.88059  0.32262  1.0000
  N   N2        1.0  0.57928  0.11941  0.17738  1.0000
  N   N3        1.0  0.42072  0.11942  0.67738  1.0000
  N   N4        1.0  0.42072  0.88058  0.82262  1.0000
  N   N5        1.0  0.79479  0.65419  0.45060  1.0000
  N   N6        1.0  0.79479  0.34582  0.04940  1.0000
  N   N7        1.0  0.20521  0.34582  0.54940  1.0000
  N   N8        1.0  0.20521  0.65418  0.95060  1.0000
