data_image0
_chemical_formula_structural       V4Zn2H28C28N8O16
_chemical_formula_sum              "V4 Zn2 H28 C28 N8 O16"
_cell_length_a       8.31631
_cell_length_b       8.86219
_cell_length_c       13.6293
_cell_angle_alpha    80.0598
_cell_angle_beta     76.8897
_cell_angle_gamma    68.3285

_space_group_name_H-M_alt    "P 1"
_space_group_IT_number       1

loop_
  _space_group_symop_operation_xyz
  'x, y, z'

loop_
  _atom_site_type_symbol
  _atom_site_label
  _atom_site_symmetry_multiplicity
  _atom_site_fract_x
  _atom_site_fract_y
  _atom_site_fract_z
  _atom_site_occupancy
  V   V1        1.0  0.77705  0.23986  0.47016  1.0000
  V   V2        1.0  0.22295  0.76014  0.52984  1.0000
  V   V3        1.0  0.05507  0.08526  0.64951  1.0000
  V   V4        1.0  0.94494  0.91474  0.35049  1.0000
  Zn  Zn1       1.0  0.34881  0.31383  0.58777  1.0000
  Zn  Zn2       1.0  0.65120  0.68617  0.41223  1.0000
  H   H1        1.0  0.02610  0.55424  0.28025  1.0000
  H   H2        1.0  0.97390  0.44576  0.71975  1.0000
  H   H3        1.0  0.76911  0.22304  0.14764  1.0000
  H   H4        1.0  0.23089  0.77696  0.85236  1.0000
  H   H5        1.0  0.81038  0.41042  0.10794  1.0000
  H   H6        1.0  0.18962  0.58958  0.89206  1.0000
  H   H7        1.0  0.77110  0.39522  0.94039  1.0000
  H   H8        1.0  0.22891  0.60478  0.05961  1.0000
  H   H9        1.0  0.38363  0.05740  0.26429  1.0000
  H   H10       1.0  0.61637  0.94260  0.73571  1.0000
  H   H11       1.0  0.12061  0.08671  0.19098  1.0000
  H   H12       1.0  0.87939  0.91329  0.80902  1.0000
  H   H13       1.0  0.41316  0.10472  0.96048  1.0000
  H   H14       1.0  0.58684  0.89528  0.03952  1.0000
  H   H15       1.0  0.29841  0.14077  0.80041  1.0000
  H   H16       1.0  0.70159  0.85923  0.19959  1.0000
  H   H17       1.0  0.05257  0.07718  0.03668  1.0000
  H   H18       1.0  0.94743  0.92282  0.96332  1.0000
  H   H19       1.0  0.08103  0.26866  0.98940  1.0000
  H   H20       1.0  0.91897  0.73134  0.01060  1.0000
  H   H21       1.0  0.11100  0.54937  0.44543  1.0000
  H   H22       1.0  0.88900  0.45063  0.55457  1.0000
  H   H23       1.0  0.46076  0.07543  0.42695  1.0000
  H   H24       1.0  0.53924  0.92458  0.57305  1.0000
  H   H25       1.0  0.63406  0.48062  0.82862  1.0000
  H   H26       1.0  0.36594  0.51938  0.17138  1.0000
  H   H27       1.0  0.50872  0.50235  0.67613  1.0000
  H   H28       1.0  0.49128  0.49765  0.32387  1.0000
  C   C1        1.0  0.11970  0.44458  0.31196  1.0000
  C   C2        1.0  0.88029  0.55542  0.68804  1.0000
  C   C3        1.0  0.82807  0.29192  0.08452  1.0000
  C   C4        1.0  0.17193  0.70808  0.91548  1.0000
  C   C5        1.0  0.31834  0.16811  0.30250  1.0000
  C   C6        1.0  0.68166  0.83189  0.69750  1.0000
  C   C7        1.0  0.53628  0.28725  0.90795  1.0000
  C   C8        1.0  0.46371  0.71275  0.09205  1.0000
  C   C9        1.0  0.43653  0.19482  0.89947  1.0000
  C   C10       1.0  0.56347  0.80519  0.10053  1.0000
  C   C11       1.0  0.37223  0.21418  0.81079  1.0000
  C   C12       1.0  0.62777  0.78582  0.18921  1.0000
  C   C13       1.0  0.19561  0.30457  0.26025  1.0000
  C   C14       1.0  0.80438  0.69543  0.73975  1.0000
  C   C15       1.0  0.02656  0.20068  0.05518  1.0000
  C   C16       1.0  0.97344  0.79932  0.94482  1.0000
  C   C17       1.0  0.61438  0.25281  0.00256  1.0000
  C   C18       1.0  0.38562  0.74719  0.99744  1.0000
  C   C19       1.0  0.14362  0.31559  0.16030  1.0000
  C   C20       1.0  0.85638  0.68441  0.83970  1.0000
  C   C21       1.0  0.16761  0.44281  0.40323  1.0000
  C   C22       1.0  0.83239  0.55719  0.59677  1.0000
  C   C23       1.0  0.36225  0.17794  0.39335  1.0000
  C   C24       1.0  0.63775  0.82206  0.60665  1.0000
  C   C25       1.0  0.56080  0.40196  0.82693  1.0000
  C   C26       1.0  0.43920  0.59804  0.17307  1.0000
  C   C27       1.0  0.49119  0.41538  0.74099  1.0000
  C   C28       1.0  0.50881  0.58462  0.25901  1.0000
  N   N1        1.0  0.40048  0.32163  0.73195  1.0000
  N   N2        1.0  0.59952  0.67837  0.26805  1.0000
  N   N3        1.0  0.73785  0.31879  0.00058  1.0000
  N   N4        1.0  0.26215  0.68121  0.99942  1.0000
  N   N5        1.0  0.28814  0.31239  0.44334  1.0000
  N   N6        1.0  0.71186  0.68761  0.55666  1.0000
  N   N7        1.0  0.11376  0.18683  0.13912  1.0000
  N   N8        1.0  0.88624  0.81316  0.86088  1.0000
  O   O1        1.0  0.28185  0.56025  0.56389  1.0000
  O   O2        1.0  0.71816  0.43975  0.43611  1.0000
  O   O3        1.0  0.21150  0.16395  0.64774  1.0000
  O   O4        1.0  0.78850  0.83605  0.35226  1.0000
  O   O5        1.0  0.91398  0.11454  0.75571  1.0000
  O   O6        1.0  0.08602  0.88546  0.24429  1.0000
  O   O7        1.0  0.85476  0.13249  0.35971  1.0000
  O   O8        1.0  0.14524  0.86751  0.64029  1.0000
  O   O9        1.0  0.60579  0.19294  0.53966  1.0000
  O   O10       1.0  0.39421  0.80706  0.46033  1.0000
  O   O11       1.0  0.94868  0.18141  0.54216  1.0000
  O   O12       1.0  0.05132  0.81859  0.45784  1.0000
  O   O13       1.0  0.12275  0.44518  0.10296  1.0000
  O   O14       1.0  0.87725  0.55481  0.89704  1.0000
  O   O15       1.0  0.56738  0.16432  0.07637  1.0000
  O   O16       1.0  0.43262  0.83568  0.92363  1.0000
