data_image0
_chemical_formula_structural       Zn4H40C72N8O16
_chemical_formula_sum              "Zn4 H40 C72 N8 O16"
_cell_length_a       7.47871
_cell_length_b       13.0404
_cell_length_c       16.7305
_cell_angle_alpha    102.46
_cell_angle_beta     90.0002
_cell_angle_gamma    90.0003

_space_group_name_H-M_alt    "P 1"
_space_group_IT_number       1

loop_
  _space_group_symop_operation_xyz
  'x, y, z'

loop_
  _atom_site_type_symbol
  _atom_site_label
  _atom_site_symmetry_multiplicity
  _atom_site_fract_x
  _atom_site_fract_y
  _atom_site_fract_z
  _atom_site_occupancy
  Zn  Zn1       1.0  0.53547  0.93422  0.76281  1.0000
  Zn  Zn2       1.0  0.03545  0.06577  0.73718  1.0000
  Zn  Zn3       1.0  0.46455  0.06578  0.23719  1.0000
  Zn  Zn4       1.0  0.96453  0.93423  0.26282  1.0000
  H   H1        1.0  0.40461  0.09828  0.92070  1.0000
  H   H2        1.0  0.90455  0.90172  0.57930  1.0000
  H   H3        1.0  0.59544  0.90173  0.07931  1.0000
  H   H4        1.0  0.09541  0.09828  0.42070  1.0000
  H   H5        1.0  0.21979  0.09366  0.04481  1.0000
  H   H6        1.0  0.71974  0.90634  0.45519  1.0000
  H   H7        1.0  0.78026  0.90634  0.95520  1.0000
  H   H8        1.0  0.28024  0.09367  0.54481  1.0000
  H   H9        1.0  0.10516  0.92094  0.06508  1.0000
  H   H10       1.0  0.60511  0.07908  0.43493  1.0000
  H   H11       1.0  0.89488  0.07907  0.93493  1.0000
  H   H12       1.0  0.39486  0.92093  0.56507  1.0000
  H   H13       1.0  0.17075  0.75960  0.95938  1.0000
  H   H14       1.0  0.67073  0.24041  0.54063  1.0000
  H   H15       1.0  0.82927  0.24041  0.04063  1.0000
  H   H16       1.0  0.32924  0.75960  0.45938  1.0000
  H   H17       1.0  0.30439  0.62350  0.87226  1.0000
  H   H18       1.0  0.80438  0.37651  0.62775  1.0000
  H   H19       1.0  0.69561  0.37651  0.12775  1.0000
  H   H20       1.0  0.19559  0.62350  0.37226  1.0000
  H   H21       1.0  0.50218  0.55165  0.62280  1.0000
  H   H22       1.0  0.00219  0.44834  0.87721  1.0000
  H   H23       1.0  0.49781  0.44835  0.37720  1.0000
  H   H24       1.0  0.99781  0.55165  0.12279  1.0000
  H   H25       1.0  0.29701  0.41424  0.62321  1.0000
  H   H26       1.0  0.79708  0.58576  0.87681  1.0000
  H   H27       1.0  0.70295  0.58577  0.37681  1.0000
  H   H28       1.0  0.20297  0.41424  0.12320  1.0000
  H   H29       1.0  0.29628  0.22531  0.62071  1.0000
  H   H30       1.0  0.79633  0.77469  0.87930  1.0000
  H   H31       1.0  0.70368  0.77470  0.37930  1.0000
  H   H32       1.0  0.20371  0.22531  0.12071  1.0000
  H   H33       1.0  0.52232  0.28411  0.86291  1.0000
  H   H34       1.0  0.02228  0.71588  0.63708  1.0000
  H   H35       1.0  0.47769  0.71589  0.13709  1.0000
  H   H36       1.0  0.97769  0.28411  0.36290  1.0000
  H   H37       1.0  0.50406  0.47629  0.86996  1.0000
  H   H38       1.0  0.00404  0.52371  0.63004  1.0000
  H   H39       1.0  0.49595  0.52371  0.13005  1.0000
  H   H40       1.0  0.99594  0.47628  0.36995  1.0000
  C   C1        1.0  0.35200  0.02488  0.93188  1.0000
  C   C2        1.0  0.85195  0.97512  0.56811  1.0000
  C   C3        1.0  0.64804  0.97512  0.06811  1.0000
  C   C4        1.0  0.14802  0.02488  0.43189  1.0000
  C   C5        1.0  0.25013  0.02164  0.00092  1.0000
  C   C6        1.0  0.75009  0.97836  0.49907  1.0000
  C   C7        1.0  0.74991  0.97836  0.99908  1.0000
  C   C8        1.0  0.24989  0.02164  0.50092  1.0000
  C   C9        1.0  0.18672  0.92555  0.01204  1.0000
  C   C10       1.0  0.68668  0.07446  0.48796  1.0000
  C   C11       1.0  0.81331  0.07446  0.98796  1.0000
  C   C12       1.0  0.31329  0.92555  0.51204  1.0000
  C   C13       1.0  0.22535  0.83489  0.95301  1.0000
  C   C14       1.0  0.72533  0.16511  0.54699  1.0000
  C   C15       1.0  0.77467  0.16511  0.04699  1.0000
  C   C16       1.0  0.27464  0.83490  0.45301  1.0000
  C   C17       1.0  0.32765  0.84404  0.88521  1.0000
  C   C18       1.0  0.82762  0.15596  0.61479  1.0000
  C   C19       1.0  0.67237  0.15596  0.11479  1.0000
  C   C20       1.0  0.17235  0.84404  0.38521  1.0000
  C   C21       1.0  0.37207  0.75439  0.81729  1.0000
  C   C22       1.0  0.87206  0.24561  0.68270  1.0000
  C   C23       1.0  0.62794  0.24561  0.18271  1.0000
  C   C24       1.0  0.12792  0.75440  0.31729  1.0000
  C   C25       1.0  0.35436  0.64799  0.81815  1.0000
  C   C26       1.0  0.85437  0.35201  0.68185  1.0000
  C   C27       1.0  0.64564  0.35202  0.18185  1.0000
  C   C28       1.0  0.14561  0.64799  0.31815  1.0000
  C   C29       1.0  0.40293  0.57244  0.74819  1.0000
  C   C30       1.0  0.90294  0.42757  0.75181  1.0000
  C   C31       1.0  0.59708  0.42757  0.25181  1.0000
  C   C32       1.0  0.09707  0.57244  0.24819  1.0000
  C   C33       1.0  0.46286  0.60671  0.67863  1.0000
  C   C34       1.0  0.96287  0.39329  0.82137  1.0000
  C   C35       1.0  0.53714  0.39329  0.32137  1.0000
  C   C36       1.0  0.03713  0.60671  0.17863  1.0000
  C   C37       1.0  0.48284  0.71379  0.68335  1.0000
  C   C38       1.0  0.98284  0.28621  0.81665  1.0000
  C   C39       1.0  0.51715  0.28621  0.31665  1.0000
  C   C40       1.0  0.01715  0.71379  0.18335  1.0000
  C   C41       1.0  0.56163  0.76284  0.61623  1.0000
  C   C42       1.0  0.06163  0.23714  0.88376  1.0000
  C   C43       1.0  0.43838  0.23716  0.38377  1.0000
  C   C44       1.0  0.93838  0.76286  0.11623  1.0000
  C   C45       1.0  0.39913  0.45915  0.74729  1.0000
  C   C46       1.0  0.89913  0.54084  0.75272  1.0000
  C   C47       1.0  0.60087  0.54085  0.25272  1.0000
  C   C48       1.0  0.10086  0.45916  0.24728  1.0000
  C   C49       1.0  0.34332  0.38692  0.67678  1.0000
  C   C50       1.0  0.84335  0.61308  0.82323  1.0000
  C   C51       1.0  0.65667  0.61308  0.32323  1.0000
  C   C52       1.0  0.15668  0.38693  0.17678  1.0000
  C   C53       1.0  0.34432  0.28002  0.67497  1.0000
  C   C54       1.0  0.84434  0.71998  0.82504  1.0000
  C   C55       1.0  0.65566  0.71998  0.32504  1.0000
  C   C56       1.0  0.15568  0.28002  0.17496  1.0000
  C   C57       1.0  0.41033  0.24205  0.74146  1.0000
  C   C58       1.0  0.91034  0.75794  0.75854  1.0000
  C   C59       1.0  0.58966  0.75795  0.25854  1.0000
  C   C60       1.0  0.08967  0.24205  0.24146  1.0000
  C   C61       1.0  0.46926  0.31353  0.81151  1.0000
  C   C62       1.0  0.96924  0.68646  0.68849  1.0000
  C   C63       1.0  0.53075  0.68647  0.18850  1.0000
  C   C64       1.0  0.03074  0.31353  0.31150  1.0000
  C   C65       1.0  0.45877  0.42102  0.81512  1.0000
  C   C66       1.0  0.95877  0.57898  0.68488  1.0000
  C   C67       1.0  0.54123  0.57898  0.18488  1.0000
  C   C68       1.0  0.04123  0.42101  0.31512  1.0000
  C   C69       1.0  0.41704  0.12624  0.73626  1.0000
  C   C70       1.0  0.91704  0.87375  0.76374  1.0000
  C   C71       1.0  0.58296  0.87376  0.26374  1.0000
  C   C72       1.0  0.08296  0.12624  0.23626  1.0000
  N   N1        1.0  0.39038  0.93829  0.87568  1.0000
  N   N2        1.0  0.89035  0.06170  0.62431  1.0000
  N   N3        1.0  0.60964  0.06170  0.12431  1.0000
  N   N4        1.0  0.10962  0.93830  0.37569  1.0000
  N   N5        1.0  0.43898  0.78348  0.75130  1.0000
  N   N6        1.0  0.93898  0.21652  0.74870  1.0000
  N   N7        1.0  0.56102  0.21652  0.24870  1.0000
  N   N8        1.0  0.06101  0.78348  0.25130  1.0000
  O   O1        1.0  0.59682  0.86182  0.63929  1.0000
  O   O2        1.0  0.09681  0.13816  0.86070  1.0000
  O   O3        1.0  0.40318  0.13818  0.36071  1.0000
  O   O4        1.0  0.90319  0.86183  0.13929  1.0000
  O   O5        1.0  0.58456  0.70628  0.54666  1.0000
  O   O6        1.0  0.08456  0.29371  0.95334  1.0000
  O   O7        1.0  0.41544  0.29373  0.45333  1.0000
  O   O8        1.0  0.91546  0.70628  0.04666  1.0000
  O   O9        1.0  0.54826  0.09025  0.77058  1.0000
  O   O10       1.0  0.04825  0.90973  0.72940  1.0000
  O   O11       1.0  0.45174  0.90974  0.22941  1.0000
  O   O12       1.0  0.95175  0.09026  0.27059  1.0000
  O   O13       1.0  0.29567  0.06771  0.69692  1.0000
  O   O14       1.0  0.79567  0.93228  0.80307  1.0000
  O   O15       1.0  0.70432  0.93229  0.30308  1.0000
  O   O16       1.0  0.20433  0.06771  0.19693  1.0000
