data_image0
_chemical_formula_structural       Zn4H24C36N4O12
_chemical_formula_sum              "Zn4 H24 C36 N4 O12"
_cell_length_a       6.63391
_cell_length_b       12.3467
_cell_length_c       14.2692
_cell_angle_alpha    113.353
_cell_angle_beta     90.0009
_cell_angle_gamma    90.0004

_space_group_name_H-M_alt    "P 1"
_space_group_IT_number       1

loop_
  _space_group_symop_operation_xyz
  'x, y, z'

loop_
  _atom_site_type_symbol
  _atom_site_label
  _atom_site_symmetry_multiplicity
  _atom_site_fract_x
  _atom_site_fract_y
  _atom_site_fract_z
  _atom_site_occupancy
  Zn  Zn1       1.0  0.25001  0.18587  0.98008  1.0000
  Zn  Zn2       1.0  0.75000  0.81413  0.01992  1.0000
  Zn  Zn3       1.0  0.25000  0.87158  0.97782  1.0000
  Zn  Zn4       1.0  0.75001  0.12843  0.02218  1.0000
  H   H1        1.0  0.94171  0.82546  0.88006  1.0000
  H   H2        1.0  0.44175  0.17457  0.11995  1.0000
  H   H3        1.0  0.05828  0.17454  0.11994  1.0000
  H   H4        1.0  0.55825  0.82542  0.88004  1.0000
  H   H5        1.0  0.25002  0.45927  0.11934  1.0000
  H   H6        1.0  0.75000  0.54073  0.88066  1.0000
  H   H7        1.0  0.25001  0.65201  0.09339  1.0000
  H   H8        1.0  0.75001  0.34799  0.90660  1.0000
  H   H9        1.0  0.25002  0.64035  0.91460  1.0000
  H   H10       1.0  0.75000  0.35965  0.08540  1.0000
  H   H11       1.0  0.25001  0.44486  0.77007  1.0000
  H   H12       1.0  0.75000  0.55514  0.22993  1.0000
  H   H13       1.0  0.24999  0.27144  0.65780  1.0000
  H   H14       1.0  0.74999  0.72856  0.34219  1.0000
  H   H15       1.0  0.25001  0.90078  0.60642  1.0000
  H   H16       1.0  0.74999  0.09922  0.39358  1.0000
  H   H17       1.0  0.24998  0.86136  0.45902  1.0000
  H   H18       1.0  0.74998  0.13864  0.54097  1.0000
  H   H19       1.0  0.24998  0.81085  0.27344  1.0000
  H   H20       1.0  0.74999  0.18915  0.72656  1.0000
  H   H21       1.0  0.25000  0.17753  0.32666  1.0000
  H   H22       1.0  0.75001  0.82248  0.67335  1.0000
  H   H23       1.0  0.25000  0.23150  0.51240  1.0000
  H   H24       1.0  0.75000  0.76849  0.48760  1.0000
  C   C1        1.0  0.25000  0.46107  0.04342  1.0000
  C   C2        1.0  0.75001  0.53893  0.95659  1.0000
  C   C3        1.0  0.25001  0.56643  0.02920  1.0000
  C   C4        1.0  0.75001  0.43357  0.97080  1.0000
  C   C5        1.0  0.25000  0.56043  0.92943  1.0000
  C   C6        1.0  0.75001  0.43958  0.07058  1.0000
  C   C7        1.0  0.25000  0.45038  0.84818  1.0000
  C   C8        1.0  0.75000  0.54963  0.15182  1.0000
  C   C9        1.0  0.24999  0.34866  0.86868  1.0000
  C   C10       1.0  0.75000  0.65134  0.13133  1.0000
  C   C11       1.0  0.24999  0.22714  0.78851  1.0000
  C   C12       1.0  0.75000  0.77285  0.21148  1.0000
  C   C13       1.0  0.25000  0.19986  0.68388  1.0000
  C   C14       1.0  0.74999  0.80013  0.31612  1.0000
  C   C15       1.0  0.24999  0.08167  0.61295  1.0000
  C   C16       1.0  0.74999  0.91833  0.38705  1.0000
  C   C17       1.0  0.25000  0.99482  0.65333  1.0000
  C   C18       1.0  0.74999  0.00517  0.34667  1.0000
  C   C19       1.0  0.25001  0.02808  0.75855  1.0000
  C   C20       1.0  0.74999  0.97192  0.24145  1.0000
  C   C21       1.0  0.25002  0.93821  0.80628  1.0000
  C   C22       1.0  0.74999  0.06177  0.19371  1.0000
  C   C23       1.0  0.25000  0.05073  0.50151  1.0000
  C   C24       1.0  0.74999  0.94928  0.49850  1.0000
  C   C25       1.0  0.24999  0.93208  0.43163  1.0000
  C   C26       1.0  0.74999  0.06793  0.56837  1.0000
  C   C27       1.0  0.24999  0.90276  0.32711  1.0000
  C   C28       1.0  0.74999  0.09724  0.67289  1.0000
  C   C29       1.0  0.24999  0.99086  0.28852  1.0000
  C   C30       1.0  0.75000  0.00914  0.71148  1.0000
  C   C31       1.0  0.25000  0.10923  0.35691  1.0000
  C   C32       1.0  0.75000  0.89076  0.64309  1.0000
  C   C33       1.0  0.25000  0.13837  0.46158  1.0000
  C   C34       1.0  0.75000  0.86163  0.53843  1.0000
  C   C35       1.0  0.24999  0.95850  0.17588  1.0000
  C   C36       1.0  0.75001  0.04150  0.82412  1.0000
  N   N1        1.0  0.25001  0.35531  0.96537  1.0000
  N   N2        1.0  0.75001  0.64469  0.03463  1.0000
  N   N3        1.0  0.25001  0.14122  0.82393  1.0000
  N   N4        1.0  0.74999  0.85878  0.17607  1.0000
  O   O1        1.0  0.25001  0.98575  0.90561  1.0000
  O   O2        1.0  0.74999  0.01425  0.09439  1.0000
  O   O3        1.0  0.25005  0.83148  0.75068  1.0000
  O   O4        1.0  0.74997  0.16854  0.24932  1.0000
  O   O5        1.0  0.24999  0.03817  0.14069  1.0000
  O   O6        1.0  0.75002  0.96184  0.85931  1.0000
  O   O7        1.0  0.24999  0.84839  0.11749  1.0000
  O   O8        1.0  0.75001  0.15162  0.88251  1.0000
  O   O9        1.0  0.98535  0.79714  0.93175  1.0000
  O   O10       1.0  0.48537  0.20288  0.06825  1.0000
  O   O11       1.0  0.01465  0.20287  0.06825  1.0000
  O   O12       1.0  0.51463  0.79712  0.93175  1.0000
