data_image0
_chemical_formula_structural       Cd4H40C24S8N16
_chemical_formula_sum              "Cd4 H40 C24 S8 N16"
_cell_length_a       7.65158
_cell_length_b       7.72619
_cell_length_c       16.5964
_cell_angle_alpha    90.0004
_cell_angle_beta     89.9993
_cell_angle_gamma    90.0001

_space_group_name_H-M_alt    "P 1"
_space_group_IT_number       1

loop_
  _space_group_symop_operation_xyz
  'x, y, z'

loop_
  _atom_site_type_symbol
  _atom_site_label
  _atom_site_symmetry_multiplicity
  _atom_site_fract_x
  _atom_site_fract_y
  _atom_site_fract_z
  _atom_site_occupancy
  Cd  Cd1       1.0  0.91031  0.33060  0.12228  1.0000
  Cd  Cd2       1.0  0.58969  0.66941  0.62228  1.0000
  Cd  Cd3       1.0  0.08971  0.83059  0.37772  1.0000
  Cd  Cd4       1.0  0.41031  0.16942  0.87771  1.0000
  H   H1        1.0  0.56106  0.98277  0.10994  1.0000
  H   H2        1.0  0.93895  0.01723  0.60993  1.0000
  H   H3        1.0  0.43896  0.48276  0.39007  1.0000
  H   H4        1.0  0.06103  0.51724  0.89007  1.0000
  H   H5        1.0  0.48145  0.18045  0.14762  1.0000
  H   H6        1.0  0.01855  0.81956  0.64761  1.0000
  H   H7        1.0  0.51856  0.68044  0.35238  1.0000
  H   H8        1.0  0.98144  0.31955  0.85239  1.0000
  H   H9        1.0  0.11097  0.95462  0.13770  1.0000
  H   H10       1.0  0.38902  0.04538  0.63772  1.0000
  H   H11       1.0  0.88903  0.45460  0.36229  1.0000
  H   H12       1.0  0.61097  0.54538  0.86229  1.0000
  H   H13       1.0  0.33739  0.73291  0.93281  1.0000
  H   H14       1.0  0.16260  0.26711  0.43283  1.0000
  H   H15       1.0  0.66259  0.23291  0.56718  1.0000
  H   H16       1.0  0.83740  0.76712  0.06718  1.0000
  H   H17       1.0  0.11158  0.77887  0.92205  1.0000
  H   H18       1.0  0.38842  0.22114  0.42207  1.0000
  H   H19       1.0  0.88839  0.27885  0.57794  1.0000
  H   H20       1.0  0.61158  0.72114  0.07794  1.0000
  H   H21       1.0  0.45262  0.06581  0.28407  1.0000
  H   H22       1.0  0.04739  0.93419  0.78406  1.0000
  H   H23       1.0  0.54739  0.56579  0.21594  1.0000
  H   H24       1.0  0.95261  0.43418  0.71594  1.0000
  H   H25       1.0  0.43118  0.86582  0.23165  1.0000
  H   H26       1.0  0.06883  0.13418  0.73164  1.0000
  H   H27       1.0  0.56883  0.36581  0.26835  1.0000
  H   H28       1.0  0.93116  0.63417  0.76835  1.0000
  H   H29       1.0  0.71223  0.86973  0.32467  1.0000
  H   H30       1.0  0.78778  0.13026  0.82467  1.0000
  H   H31       1.0  0.28778  0.36972  0.17533  1.0000
  H   H32       1.0  0.21221  0.63026  0.67532  1.0000
  H   H33       1.0  0.09698  0.65937  0.05629  1.0000
  H   H34       1.0  0.40299  0.34064  0.55631  1.0000
  H   H35       1.0  0.90300  0.15935  0.44371  1.0000
  H   H36       1.0  0.59701  0.84064  0.94369  1.0000
  H   H37       1.0  0.31511  0.72259  0.07949  1.0000
  H   H38       1.0  0.18486  0.27740  0.57952  1.0000
  H   H39       1.0  0.68487  0.22258  0.42050  1.0000
  H   H40       1.0  0.81514  0.77741  0.92049  1.0000
  C   C1        1.0  0.19507  0.05558  0.02748  1.0000
  C   C2        1.0  0.30493  0.94442  0.52749  1.0000
  C   C3        1.0  0.80494  0.55556  0.47251  1.0000
  C   C4        1.0  0.69508  0.44443  0.97251  1.0000
  C   C5        1.0  0.56663  0.07098  0.16209  1.0000
  C   C6        1.0  0.93339  0.92903  0.66207  1.0000
  C   C7        1.0  0.43339  0.57097  0.33792  1.0000
  C   C8        1.0  0.06660  0.42903  0.83792  1.0000
  C   C9        1.0  0.81196  0.03371  0.23622  1.0000
  C   C10       1.0  0.68805  0.96631  0.73622  1.0000
  C   C11       1.0  0.18805  0.53369  0.26379  1.0000
  C   C12       1.0  0.31194  0.46631  0.76378  1.0000
  C   C13       1.0  0.22856  0.80584  0.95908  1.0000
  C   C14       1.0  0.27144  0.19420  0.45910  1.0000
  C   C15       1.0  0.77145  0.30579  0.54092  1.0000
  C   C16       1.0  0.72857  0.69419  0.04091  1.0000
  C   C17       1.0  0.51729  0.97761  0.24085  1.0000
  C   C18       1.0  0.98271  0.02241  0.74084  1.0000
  C   C19       1.0  0.48273  0.47760  0.25915  1.0000
  C   C20       1.0  0.01727  0.52238  0.75915  1.0000
  C   C21       1.0  0.19412  0.76204  0.04806  1.0000
  C   C22       1.0  0.30586  0.23797  0.54808  1.0000
  C   C23       1.0  0.80589  0.26204  0.45194  1.0000
  C   C24       1.0  0.69414  0.73797  0.95193  1.0000
  S   S1        1.0  0.19554  0.27575  0.04725  1.0000
  S   S2        1.0  0.30447  0.72426  0.54725  1.0000
  S   S3        1.0  0.80448  0.77574  0.45275  1.0000
  S   S4        1.0  0.69553  0.22426  0.95275  1.0000
  S   S5        1.0  0.02637  0.05577  0.26637  1.0000
  S   S6        1.0  0.47365  0.94422  0.76637  1.0000
  S   S7        1.0  0.97364  0.55575  0.23364  1.0000
  S   S8        1.0  0.52635  0.44423  0.73362  1.0000
  N   N1        1.0  0.74847  0.12596  0.17569  1.0000
  N   N2        1.0  0.75154  0.87405  0.67568  1.0000
  N   N3        1.0  0.25154  0.62594  0.32432  1.0000
  N   N4        1.0  0.24846  0.37405  0.82432  1.0000
  N   N5        1.0  0.25925  0.99402  0.95942  1.0000
  N   N6        1.0  0.24074  0.00598  0.45944  1.0000
  N   N7        1.0  0.74075  0.49403  0.54057  1.0000
  N   N8        1.0  0.75927  0.50599  0.04057  1.0000
  N   N9        1.0  0.13193  0.93005  0.07767  1.0000
  N   N10       1.0  0.36806  0.06995  0.57768  1.0000
  N   N11       1.0  0.86807  0.43003  0.42232  1.0000
  N   N12       1.0  0.63194  0.56995  0.92232  1.0000
  N   N13       1.0  0.69086  0.92632  0.26975  1.0000
  N   N14       1.0  0.80914  0.07368  0.76974  1.0000
  N   N15       1.0  0.30915  0.42631  0.23025  1.0000
  N   N16       1.0  0.19084  0.57368  0.73025  1.0000
