data_image0
_chemical_formula_structural       CdH26C34N10Cl2O4
_chemical_formula_sum              "Cd1 H26 C34 N10 Cl2 O4"
_cell_length_a       8.41372
_cell_length_b       9.11434
_cell_length_c       11.9016
_cell_angle_alpha    78.5614
_cell_angle_beta     75.5483
_cell_angle_gamma    87.1733

_space_group_name_H-M_alt    "P 1"
_space_group_IT_number       1

loop_
  _space_group_symop_operation_xyz
  'x, y, z'

loop_
  _atom_site_type_symbol
  _atom_site_label
  _atom_site_symmetry_multiplicity
  _atom_site_fract_x
  _atom_site_fract_y
  _atom_site_fract_z
  _atom_site_occupancy
  Cd  Cd1       1.0  0.50000  0.50000  0.00000  1.0000
  H   H1        1.0  0.19015  0.79172  0.63590  1.0000
  H   H2        1.0  0.80986  0.20828  0.36410  1.0000
  H   H3        1.0  0.94763  0.69539  0.58100  1.0000
  H   H4        1.0  0.05236  0.30462  0.41900  1.0000
  H   H5        1.0  0.31702  0.63869  0.78642  1.0000
  H   H6        1.0  0.68299  0.36131  0.21358  1.0000
  H   H7        1.0  0.25416  0.11775  0.75668  1.0000
  H   H8        1.0  0.74585  0.88225  0.24332  1.0000
  H   H9        1.0  0.32206  0.09072  0.95269  1.0000
  H   H10       1.0  0.67793  0.90927  0.04732  1.0000
  H   H11       1.0  0.40015  0.83534  0.05139  1.0000
  H   H12       1.0  0.59984  0.16465  0.94861  1.0000
  H   H13       1.0  0.35981  0.13897  0.31903  1.0000
  H   H14       1.0  0.64019  0.86103  0.68097  1.0000
  H   H15       1.0  0.25221  0.08100  0.15441  1.0000
  H   H16       1.0  0.74779  0.91900  0.84559  1.0000
  H   H17       1.0  0.06179  0.85675  0.19908  1.0000
  H   H18       1.0  0.93821  0.14325  0.80092  1.0000
  H   H19       1.0  0.78421  0.60303  0.76759  1.0000
  H   H20       1.0  0.21578  0.39697  0.23241  1.0000
  H   H21       1.0  0.39994  0.31484  0.81385  1.0000
  H   H22       1.0  0.60006  0.68516  0.18615  1.0000
  H   H23       1.0  0.47428  0.29763  0.59804  1.0000
  H   H24       1.0  0.52572  0.70237  0.40196  1.0000
  H   H25       1.0  0.70692  0.45791  0.46032  1.0000
  H   H26       1.0  0.29308  0.54209  0.53968  1.0000
  C   C1        1.0  0.32009  0.74171  0.81970  1.0000
  C   C2        1.0  0.67991  0.25829  0.18029  1.0000
  C   C3        1.0  0.28290  0.88017  0.75569  1.0000
  C   C4        1.0  0.71710  0.11983  0.24431  1.0000
  C   C5        1.0  0.28465  0.00878  0.80315  1.0000
  C   C6        1.0  0.71535  0.99122  0.19685  1.0000
  C   C7        1.0  0.32414  0.99298  0.91189  1.0000
  C   C8        1.0  0.67586  0.00701  0.08811  1.0000
  C   C9        1.0  0.36433  0.85183  0.96781  1.0000
  C   C10       1.0  0.63567  0.14816  0.03220  1.0000
  C   C11       1.0  0.28332  0.99317  0.54845  1.0000
  C   C12       1.0  0.71668  0.00683  0.45155  1.0000
  C   C13       1.0  0.22401  0.95914  0.44705  1.0000
  C   C14       1.0  0.77599  0.04086  0.55295  1.0000
  C   C15       1.0  0.27577  0.04618  0.33379  1.0000
  C   C16       1.0  0.72423  0.95382  0.66621  1.0000
  C   C17       1.0  0.21751  0.01087  0.24248  1.0000
  C   C18       1.0  0.78249  0.98913  0.75752  1.0000
  C   C19       1.0  0.11030  0.89013  0.26700  1.0000
  C   C20       1.0  0.88970  0.10987  0.73300  1.0000
  C   C21       1.0  0.06199  0.81179  0.38344  1.0000
  C   C22       1.0  0.93801  0.18821  0.61656  1.0000
  C   C23       1.0  0.93692  0.68775  0.41649  1.0000
  C   C24       1.0  0.06308  0.31226  0.58351  1.0000
  C   C25       1.0  0.76152  0.54449  0.60249  1.0000
  C   C26       1.0  0.23848  0.45551  0.39751  1.0000
  C   C27       1.0  0.71766  0.53880  0.72516  1.0000
  C   C28       1.0  0.28234  0.46120  0.27484  1.0000
  C   C29       1.0  0.50509  0.37414  0.75118  1.0000
  C   C30       1.0  0.49491  0.62586  0.24882  1.0000
  C   C31       1.0  0.54499  0.36872  0.63128  1.0000
  C   C32       1.0  0.45500  0.63128  0.36872  1.0000
  C   C33       1.0  0.67403  0.45576  0.55492  1.0000
  C   C34       1.0  0.32597  0.54425  0.44508  1.0000
  N   N1        1.0  0.36255  0.72848  0.92222  1.0000
  N   N2        1.0  0.63745  0.27151  0.07779  1.0000
  N   N3        1.0  0.24426  0.88342  0.64740  1.0000
  N   N4        1.0  0.75574  0.11657  0.35260  1.0000
  N   N5        1.0  0.11821  0.84553  0.47140  1.0000
  N   N6        1.0  0.88179  0.15447  0.52860  1.0000
  N   N7        1.0  0.88965  0.63943  0.53620  1.0000
  N   N8        1.0  0.11035  0.36057  0.46380  1.0000
  N   N9        1.0  0.59141  0.45736  0.79699  1.0000
  N   N10       1.0  0.40858  0.54264  0.20301  1.0000
  Cl  Cl1       1.0  0.75437  0.66224  0.97158  1.0000
  Cl  Cl2       1.0  0.24563  0.33776  0.02842  1.0000
  O   O1        1.0  0.35818  0.10973  0.54023  1.0000
  O   O2        1.0  0.64182  0.89027  0.45977  1.0000
  O   O3        1.0  0.88483  0.64045  0.34197  1.0000
  O   O4        1.0  0.11517  0.35955  0.65803  1.0000
