data_image0
_chemical_formula_structural       CdH26C34I2N10O4
_chemical_formula_sum              "Cd1 H26 C34 I2 N10 O4"
_cell_length_a       8.26786
_cell_length_b       9.3412
_cell_length_c       11.9466
_cell_angle_alpha    78.5146
_cell_angle_beta     76.3772
_cell_angle_gamma    87.4893

_space_group_name_H-M_alt    "P 1"
_space_group_IT_number       1

loop_
  _space_group_symop_operation_xyz
  'x, y, z'

loop_
  _atom_site_type_symbol
  _atom_site_label
  _atom_site_symmetry_multiplicity
  _atom_site_fract_x
  _atom_site_fract_y
  _atom_site_fract_z
  _atom_site_occupancy
  Cd  Cd1       1.0  0.50000  0.50000  0.00000  1.0000
  H   H1        1.0  0.19062  0.79001  0.63156  1.0000
  H   H2        1.0  0.80938  0.20999  0.36844  1.0000
  H   H3        1.0  0.94221  0.69182  0.57927  1.0000
  H   H4        1.0  0.05779  0.30819  0.42073  1.0000
  H   H5        1.0  0.32918  0.64117  0.77767  1.0000
  H   H6        1.0  0.67080  0.35883  0.22233  1.0000
  H   H7        1.0  0.25148  0.10627  0.75571  1.0000
  H   H8        1.0  0.74853  0.89373  0.24429  1.0000
  H   H9        1.0  0.32341  0.07754  0.95024  1.0000
  H   H10       1.0  0.67660  0.92246  0.04976  1.0000
  H   H11       1.0  0.41341  0.82955  0.04436  1.0000
  H   H12       1.0  0.58658  0.17045  0.95564  1.0000
  H   H13       1.0  0.35246  0.12962  0.31741  1.0000
  H   H14       1.0  0.64753  0.87038  0.68259  1.0000
  H   H15       1.0  0.25205  0.06111  0.15248  1.0000
  H   H16       1.0  0.74795  0.93888  0.84752  1.0000
  H   H17       1.0  0.06069  0.84092  0.19815  1.0000
  H   H18       1.0  0.93932  0.15907  0.80185  1.0000
  H   H19       1.0  0.78316  0.59929  0.76316  1.0000
  H   H20       1.0  0.21683  0.40072  0.23684  1.0000
  H   H21       1.0  0.40513  0.30209  0.81163  1.0000
  H   H22       1.0  0.59487  0.69791  0.18837  1.0000
  H   H23       1.0  0.47543  0.28745  0.59806  1.0000
  H   H24       1.0  0.52457  0.71255  0.40195  1.0000
  H   H25       1.0  0.70227  0.45196  0.45964  1.0000
  H   H26       1.0  0.29774  0.54803  0.54036  1.0000
  C   C1        1.0  0.33064  0.74098  0.81209  1.0000
  C   C2        1.0  0.66935  0.25903  0.18792  1.0000
  C   C3        1.0  0.28751  0.87593  0.75060  1.0000
  C   C4        1.0  0.71249  0.12407  0.24940  1.0000
  C   C5        1.0  0.28643  0.00005  0.79996  1.0000
  C   C6        1.0  0.71358  0.99995  0.20004  1.0000
  C   C7        1.0  0.32879  0.98341  0.90793  1.0000
  C   C8        1.0  0.67121  0.01659  0.09206  1.0000
  C   C9        1.0  0.37513  0.84634  0.96137  1.0000
  C   C10       1.0  0.62487  0.15366  0.03863  1.0000
  C   C11       1.0  0.27904  0.98896  0.54581  1.0000
  C   C12       1.0  0.72096  0.01104  0.45419  1.0000
  C   C13       1.0  0.21737  0.95398  0.44538  1.0000
  C   C14       1.0  0.78262  0.04602  0.55462  1.0000
  C   C15       1.0  0.26960  0.03693  0.33229  1.0000
  C   C16       1.0  0.73040  0.96307  0.66771  1.0000
  C   C17       1.0  0.21445  0.99667  0.24119  1.0000
  C   C18       1.0  0.78555  0.00333  0.75881  1.0000
  C   C19       1.0  0.10684  0.87765  0.26599  1.0000
  C   C20       1.0  0.89317  0.12235  0.73401  1.0000
  C   C21       1.0  0.05569  0.80500  0.38261  1.0000
  C   C22       1.0  0.94431  0.19500  0.61739  1.0000
  C   C23       1.0  0.92989  0.68275  0.41579  1.0000
  C   C24       1.0  0.07012  0.31725  0.58421  1.0000
  C   C25       1.0  0.75821  0.53920  0.60045  1.0000
  C   C26       1.0  0.24179  0.46080  0.39955  1.0000
  C   C27       1.0  0.71605  0.53341  0.72223  1.0000
  C   C28       1.0  0.28395  0.46660  0.27777  1.0000
  C   C29       1.0  0.50847  0.36411  0.74957  1.0000
  C   C30       1.0  0.49153  0.63589  0.25044  1.0000
  C   C31       1.0  0.54593  0.35960  0.63040  1.0000
  C   C32       1.0  0.45407  0.64040  0.36960  1.0000
  C   C33       1.0  0.67153  0.44907  0.55364  1.0000
  C   C34       1.0  0.32847  0.55093  0.44636  1.0000
  I   I1        1.0  0.80915  0.65409  0.97614  1.0000
  I   I2        1.0  0.19084  0.34591  0.02386  1.0000
  N   N1        1.0  0.37616  0.72738  0.91383  1.0000
  N   N2        1.0  0.62383  0.27262  0.08617  1.0000
  N   N3        1.0  0.24508  0.88005  0.64330  1.0000
  N   N4        1.0  0.75492  0.11995  0.35670  1.0000
  N   N5        1.0  0.11136  0.84152  0.47006  1.0000
  N   N6        1.0  0.88864  0.15848  0.52994  1.0000
  N   N7        1.0  0.88432  0.63549  0.53463  1.0000
  N   N8        1.0  0.11569  0.36451  0.46537  1.0000
  N   N9        1.0  0.59298  0.44970  0.79472  1.0000
  N   N10       1.0  0.40701  0.55031  0.20528  1.0000
  O   O1        1.0  0.35252  0.10435  0.53789  1.0000
  O   O2        1.0  0.64748  0.89566  0.46211  1.0000
  O   O3        1.0  0.87634  0.63530  0.34191  1.0000
  O   O4        1.0  0.12368  0.36468  0.65809  1.0000
