data_image0
_chemical_formula_structural       CdH26C34Br2N10O4
_chemical_formula_sum              "Cd1 H26 C34 Br2 N10 O4"
_cell_length_a       8.39353
_cell_length_b       9.16449
_cell_length_c       11.9116
_cell_angle_alpha    78.3542
_cell_angle_beta     75.3479
_cell_angle_gamma    87.025

_space_group_name_H-M_alt    "P 1"
_space_group_IT_number       1

loop_
  _space_group_symop_operation_xyz
  'x, y, z'

loop_
  _atom_site_type_symbol
  _atom_site_label
  _atom_site_symmetry_multiplicity
  _atom_site_fract_x
  _atom_site_fract_y
  _atom_site_fract_z
  _atom_site_occupancy
  Cd  Cd1       1.0  0.50000  0.50000  1.00000  1.0000
  H   H1        1.0  0.18981  0.79214  0.63617  1.0000
  H   H2        1.0  0.81019  0.20786  0.36383  1.0000
  H   H3        1.0  0.94809  0.69512  0.57960  1.0000
  H   H4        1.0  0.05191  0.30487  0.42040  1.0000
  H   H5        1.0  0.32796  0.64118  0.78334  1.0000
  H   H6        1.0  0.67204  0.35882  0.21666  1.0000
  H   H7        1.0  0.24485  0.11542  0.75883  1.0000
  H   H8        1.0  0.75514  0.88458  0.24117  1.0000
  H   H9        1.0  0.31689  0.08944  0.95278  1.0000
  H   H10       1.0  0.68310  0.91056  0.04722  1.0000
  H   H11       1.0  0.40883  0.83754  0.04757  1.0000
  H   H12       1.0  0.59117  0.16246  0.95243  1.0000
  H   H13       1.0  0.36020  0.13981  0.31915  1.0000
  H   H14       1.0  0.63980  0.86019  0.68085  1.0000
  H   H15       1.0  0.25665  0.08093  0.15336  1.0000
  H   H16       1.0  0.74335  0.91907  0.84664  1.0000
  H   H17       1.0  0.06684  0.85787  0.19739  1.0000
  H   H18       1.0  0.93316  0.14213  0.80262  1.0000
  H   H19       1.0  0.78574  0.59978  0.76537  1.0000
  H   H20       1.0  0.21426  0.40022  0.23462  1.0000
  H   H21       1.0  0.40293  0.31067  0.81063  1.0000
  H   H22       1.0  0.59707  0.68933  0.18937  1.0000
  H   H23       1.0  0.47800  0.29698  0.59487  1.0000
  H   H24       1.0  0.52200  0.70302  0.40513  1.0000
  H   H25       1.0  0.70917  0.46019  0.45694  1.0000
  H   H26       1.0  0.29083  0.53981  0.54306  1.0000
  C   C1        1.0  0.32763  0.74362  0.81709  1.0000
  C   C2        1.0  0.67236  0.25638  0.18291  1.0000
  C   C3        1.0  0.28399  0.88041  0.75488  1.0000
  C   C4        1.0  0.71601  0.11959  0.24513  1.0000
  C   C5        1.0  0.28119  0.00783  0.80340  1.0000
  C   C6        1.0  0.71880  0.99217  0.19660  1.0000
  C   C7        1.0  0.32336  0.99271  0.91105  1.0000
  C   C8        1.0  0.67663  0.00730  0.08895  1.0000
  C   C9        1.0  0.37049  0.85356  0.96503  1.0000
  C   C10       1.0  0.62950  0.14644  0.03497  1.0000
  C   C11       1.0  0.28278  0.99319  0.54813  1.0000
  C   C12       1.0  0.71722  0.00681  0.45187  1.0000
  C   C13       1.0  0.22394  0.95989  0.44666  1.0000
  C   C14       1.0  0.77606  0.04011  0.55334  1.0000
  C   C15       1.0  0.27680  0.04706  0.33344  1.0000
  C   C16       1.0  0.72320  0.95294  0.66656  1.0000
  C   C17       1.0  0.22063  0.01157  0.24166  1.0000
  C   C18       1.0  0.77937  0.98843  0.75834  1.0000
  C   C19       1.0  0.11363  0.89132  0.26574  1.0000
  C   C20       1.0  0.88637  0.10868  0.73426  1.0000
  C   C21       1.0  0.06344  0.81338  0.38226  1.0000
  C   C22       1.0  0.93656  0.18662  0.61774  1.0000
  C   C23       1.0  0.93832  0.68988  0.41465  1.0000
  C   C24       1.0  0.06169  0.31012  0.58535  1.0000
  C   C25       1.0  0.76318  0.54405  0.59997  1.0000
  C   C26       1.0  0.23682  0.45594  0.40003  1.0000
  C   C27       1.0  0.71913  0.53631  0.72292  1.0000
  C   C28       1.0  0.28087  0.46369  0.27708  1.0000
  C   C29       1.0  0.50823  0.37102  0.74845  1.0000
  C   C30       1.0  0.49177  0.62898  0.25155  1.0000
  C   C31       1.0  0.54831  0.36767  0.62819  1.0000
  C   C32       1.0  0.45169  0.63233  0.37181  1.0000
  C   C33       1.0  0.67648  0.45623  0.55181  1.0000
  C   C34       1.0  0.32352  0.54376  0.44819  1.0000
  Br  Br1       1.0  0.78070  0.65036  0.97593  1.0000
  Br  Br2       1.0  0.21929  0.34965  0.02407  1.0000
  N   N1        1.0  0.37246  0.73131  0.91857  1.0000
  N   N2        1.0  0.62754  0.26869  0.08143  1.0000
  N   N3        1.0  0.24394  0.88353  0.64716  1.0000
  N   N4        1.0  0.75606  0.11647  0.35284  1.0000
  N   N5        1.0  0.11833  0.84666  0.47067  1.0000
  N   N6        1.0  0.88167  0.15334  0.52933  1.0000
  N   N7        1.0  0.89079  0.64004  0.53426  1.0000
  N   N8        1.0  0.10921  0.35996  0.46574  1.0000
  N   N9        1.0  0.59353  0.45371  0.79485  1.0000
  N   N10       1.0  0.40647  0.54629  0.20515  1.0000
  O   O1        1.0  0.35775  0.10908  0.53972  1.0000
  O   O2        1.0  0.64225  0.89092  0.46028  1.0000
  O   O3        1.0  0.88632  0.64409  0.33977  1.0000
  O   O4        1.0  0.11368  0.35591  0.66023  1.0000
