data_image0
_chemical_formula_structural       Cd2H12C18N6Cl4
_chemical_formula_sum              "Cd2 H12 C18 N6 Cl4"
_cell_length_a       7.16381
_cell_length_b       9.05681
_cell_length_c       8.56357
_cell_angle_alpha    112.516
_cell_angle_beta     95.0555
_cell_angle_gamma    95.5566

_space_group_name_H-M_alt    "P 1"
_space_group_IT_number       1

loop_
  _space_group_symop_operation_xyz
  'x, y, z'

loop_
  _atom_site_type_symbol
  _atom_site_label
  _atom_site_symmetry_multiplicity
  _atom_site_fract_x
  _atom_site_fract_y
  _atom_site_fract_z
  _atom_site_occupancy
  Cd  Cd1       1.0  0.23169  0.40843  0.97631  1.0000
  Cd  Cd2       1.0  0.76831  0.59157  0.02368  1.0000
  H   H1        1.0  0.02428  0.74590  0.76502  1.0000
  H   H2        1.0  0.97572  0.25409  0.23498  1.0000
  H   H3        1.0  0.38098  0.40881  0.61107  1.0000
  H   H4        1.0  0.61902  0.59119  0.38894  1.0000
  H   H5        1.0  0.47553  0.31073  0.31593  1.0000
  H   H6        1.0  0.52447  0.68928  0.68408  1.0000
  H   H7        1.0  0.43641  0.02038  0.13414  1.0000
  H   H8        1.0  0.56359  0.97963  0.86586  1.0000
  H   H9        1.0  0.29724  0.81345  0.23102  1.0000
  H   H10       1.0  0.70276  0.18656  0.76898  1.0000
  H   H11       1.0  0.14454  0.79746  0.52669  1.0000
  H   H12       1.0  0.85547  0.20254  0.47331  1.0000
  C   C1        1.0  0.01445  0.86079  0.86864  1.0000
  C   C2        1.0  0.98554  0.13920  0.13135  1.0000
  C   C3        1.0  0.08096  0.01172  0.86723  1.0000
  C   C4        1.0  0.91904  0.98827  0.13277  1.0000
  C   C5        1.0  0.16266  0.03489  0.72711  1.0000
  C   C6        1.0  0.83734  0.96511  0.27289  1.0000
  C   C7        1.0  0.28619  0.16419  0.58345  1.0000
  C   C8        1.0  0.71381  0.83581  0.41655  1.0000
  C   C9        1.0  0.36323  0.28093  0.52811  1.0000
  C   C10       1.0  0.63677  0.71907  0.47190  1.0000
  C   C11       1.0  0.41547  0.22526  0.36561  1.0000
  C   C12       1.0  0.58454  0.77474  0.63440  1.0000
  C   C13       1.0  0.39232  0.05859  0.26076  1.0000
  C   C14       1.0  0.60768  0.94142  0.73925  1.0000
  C   C15       1.0  0.31479  0.94118  0.31313  1.0000
  C   C16       1.0  0.68520  0.05882  0.68687  1.0000
  C   C17       1.0  0.26104  0.99710  0.47659  1.0000
  C   C18       1.0  0.73895  0.00290  0.52341  1.0000
  N   N1        1.0  0.22441  0.18225  0.73616  1.0000
  N   N2        1.0  0.77559  0.81774  0.26384  1.0000
  N   N3        1.0  0.18150  0.91953  0.57122  1.0000
  N   N4        1.0  0.81850  0.08047  0.42877  1.0000
  N   N5        1.0  0.93441  0.85090  0.99909  1.0000
  N   N6        1.0  0.06558  0.14910  0.00091  1.0000
  Cl  Cl1       1.0  0.42039  0.64428  0.92941  1.0000
  Cl  Cl2       1.0  0.57960  0.35573  0.07059  1.0000
  Cl  Cl3       1.0  0.07913  0.55272  0.23733  1.0000
  Cl  Cl4       1.0  0.92088  0.44728  0.76267  1.0000
