data_image0
_chemical_formula_structural       Zn2H24C8S4N4O12
_chemical_formula_sum              "Zn2 H24 C8 S4 N4 O12"
_cell_length_a       6.51317
_cell_length_b       8.64001
_cell_length_c       9.16901
_cell_angle_alpha    115.788
_cell_angle_beta     89.9999
_cell_angle_gamma    90.0001

_space_group_name_H-M_alt    "P 1"
_space_group_IT_number       1

loop_
  _space_group_symop_operation_xyz
  'x, y, z'

loop_
  _atom_site_type_symbol
  _atom_site_label
  _atom_site_symmetry_multiplicity
  _atom_site_fract_x
  _atom_site_fract_y
  _atom_site_fract_z
  _atom_site_occupancy
  Zn  Zn1       1.0  1.00000  0.50000  1.00000  1.0000
  Zn  Zn2       1.0  0.50000  0.50000  0.50000  1.0000
  H   H1        1.0  0.43889  0.96351  0.33992  1.0000
  H   H2        1.0  0.93889  0.03648  0.16008  1.0000
  H   H3        1.0  0.56111  0.03649  0.66008  1.0000
  H   H4        1.0  0.06111  0.96352  0.83992  1.0000
  H   H5        1.0  0.60984  0.91124  0.17301  1.0000
  H   H6        1.0  0.10984  0.08876  0.32699  1.0000
  H   H7        1.0  0.39016  0.08876  0.82699  1.0000
  H   H8        1.0  0.89016  0.91124  0.67301  1.0000
  H   H9        1.0  0.28216  0.81575  0.05801  1.0000
  H   H10       1.0  0.78216  0.18426  0.44199  1.0000
  H   H11       1.0  0.71784  0.18425  0.94199  1.0000
  H   H12       1.0  0.21784  0.81575  0.55801  1.0000
  H   H13       1.0  0.43882  0.63518  0.01560  1.0000
  H   H14       1.0  0.93882  0.36482  0.48440  1.0000
  H   H15       1.0  0.56118  0.36482  0.98440  1.0000
  H   H16       1.0  0.06118  0.63518  0.51560  1.0000
  H   H17       1.0  0.10171  0.75817  0.25655  1.0000
  H   H18       1.0  0.60171  0.24182  0.24345  1.0000
  H   H19       1.0  0.89829  0.24183  0.74345  1.0000
  H   H20       1.0  0.39829  0.75817  0.75655  1.0000
  H   H21       1.0  0.25443  0.59749  0.23332  1.0000
  H   H22       1.0  0.75443  0.40251  0.26668  1.0000
  H   H23       1.0  0.74557  0.40250  0.76668  1.0000
  H   H24       1.0  0.24557  0.59750  0.73332  1.0000
  C   C1        1.0  0.51035  0.85732  0.23592  1.0000
  C   C2        1.0  0.01035  0.14268  0.26407  1.0000
  C   C3        1.0  0.48965  0.14268  0.76407  1.0000
  C   C4        1.0  0.98965  0.85732  0.73592  1.0000
  C   C5        1.0  0.35672  0.74008  0.11269  1.0000
  C   C6        1.0  0.85673  0.25992  0.38731  1.0000
  C   C7        1.0  0.64327  0.25992  0.88731  1.0000
  C   C8        1.0  0.14327  0.74008  0.61269  1.0000
  S   S1        1.0  0.67817  0.75267  0.31948  1.0000
  S   S2        1.0  0.17817  0.24732  0.18051  1.0000
  S   S3        1.0  0.32182  0.24732  0.68051  1.0000
  S   S4        1.0  0.82184  0.75267  0.81949  1.0000
  N   N1        1.0  0.19422  0.66410  0.17371  1.0000
  N   N2        1.0  0.69422  0.33590  0.32629  1.0000
  N   N3        1.0  0.80578  0.33590  0.82629  1.0000
  N   N4        1.0  0.30578  0.66410  0.67372  1.0000
  O   O1        1.0  0.74013  0.58611  0.18463  1.0000
  O   O2        1.0  0.24013  0.41389  0.31537  1.0000
  O   O3        1.0  0.25987  0.41389  0.81537  1.0000
  O   O4        1.0  0.75987  0.58612  0.68464  1.0000
  O   O5        1.0  0.55441  0.72241  0.44041  1.0000
  O   O6        1.0  0.05442  0.27759  0.05958  1.0000
  O   O7        1.0  0.44558  0.27760  0.55959  1.0000
  O   O8        1.0  0.94559  0.72240  0.94041  1.0000
  O   O9        1.0  0.85126  0.86872  0.39190  1.0000
  O   O10       1.0  0.35127  0.13128  0.10810  1.0000
  O   O11       1.0  0.14874  0.13129  0.60810  1.0000
  O   O12       1.0  0.64874  0.86873  0.89192  1.0000
