data_image0
_chemical_formula_structural       Ag4P4H28C20O12
_chemical_formula_sum              "Ag4 P4 H28 C20 O12"
_cell_length_a       6.09343
_cell_length_b       6.69702
_cell_length_c       15.7442
_cell_angle_alpha    93.3166
_cell_angle_beta     90.0001
_cell_angle_gamma    89.9996

_space_group_name_H-M_alt    "P 1"
_space_group_IT_number       1

loop_
  _space_group_symop_operation_xyz
  'x, y, z'

loop_
  _atom_site_type_symbol
  _atom_site_label
  _atom_site_symmetry_multiplicity
  _atom_site_fract_x
  _atom_site_fract_y
  _atom_site_fract_z
  _atom_site_occupancy
  Ag  Ag1       1.0  0.40116  0.91984  0.82066  1.0000
  Ag  Ag2       1.0  0.90117  0.08016  0.67935  1.0000
  Ag  Ag3       1.0  0.59884  0.08016  0.17934  1.0000
  Ag  Ag4       1.0  0.09883  0.91986  0.32066  1.0000
  P   P1        1.0  0.88639  0.72127  0.81475  1.0000
  P   P2        1.0  0.38639  0.27873  0.68525  1.0000
  P   P3        1.0  0.11361  0.27873  0.18525  1.0000
  P   P4        1.0  0.61361  0.72128  0.31475  1.0000
  H   H1        1.0  0.71157  0.43389  0.78737  1.0000
  H   H2        1.0  0.21157  0.56611  0.71262  1.0000
  H   H3        1.0  0.28843  0.56611  0.21262  1.0000
  H   H4        1.0  0.78843  0.43390  0.28738  1.0000
  H   H5        1.0  0.86793  0.66114  0.08667  1.0000
  H   H6        1.0  0.36791  0.33886  0.41333  1.0000
  H   H7        1.0  0.13208  0.33884  0.91333  1.0000
  H   H8        1.0  0.63207  0.66115  0.58667  1.0000
  H   H9        1.0  0.74392  0.52865  0.99840  1.0000
  H   H10       1.0  0.24390  0.47135  0.50160  1.0000
  H   H11       1.0  0.25608  0.47134  0.00160  1.0000
  H   H12       1.0  0.75608  0.52867  0.49840  1.0000
  H   H13       1.0  0.60458  0.55816  0.09781  1.0000
  H   H14       1.0  0.10455  0.44184  0.40219  1.0000
  H   H15       1.0  0.39543  0.44183  0.90219  1.0000
  H   H16       1.0  0.89543  0.55817  0.59781  1.0000
  H   H17       1.0  0.66725  0.19495  0.88844  1.0000
  H   H18       1.0  0.16725  0.80504  0.61156  1.0000
  H   H19       1.0  0.33276  0.80503  0.11156  1.0000
  H   H20       1.0  0.83274  0.19496  0.38845  1.0000
  H   H21       1.0  0.01119  0.78211  0.95734  1.0000
  H   H22       1.0  0.51118  0.21788  0.54266  1.0000
  H   H23       1.0  0.98882  0.21788  0.04266  1.0000
  H   H24       1.0  0.48881  0.78212  0.45734  1.0000
  H   H25       1.0  0.99818  0.00106  0.89996  1.0000
  H   H26       1.0  0.49818  0.99893  0.60004  1.0000
  H   H27       1.0  0.00183  0.99893  0.10005  1.0000
  H   H28       1.0  0.50182  0.00107  0.39996  1.0000
  C   C1        1.0  0.71122  0.63251  0.05344  1.0000
  C   C2        1.0  0.21119  0.36748  0.44656  1.0000
  C   C3        1.0  0.28880  0.36747  0.94656  1.0000
  C   C4        1.0  0.78879  0.63253  0.55344  1.0000
  C   C5        1.0  0.60704  0.82178  0.02576  1.0000
  C   C6        1.0  0.10701  0.17822  0.47424  1.0000
  C   C7        1.0  0.39299  0.17821  0.97424  1.0000
  C   C8        1.0  0.89297  0.82179  0.52576  1.0000
  C   C9        1.0  0.69387  0.92774  0.95865  1.0000
  C   C10       1.0  0.19386  0.07226  0.54135  1.0000
  C   C11       1.0  0.30615  0.07227  0.04135  1.0000
  C   C12       1.0  0.80612  0.92775  0.45865  1.0000
  C   C13       1.0  0.58498  0.10199  0.93351  1.0000
  C   C14       1.0  0.08497  0.89801  0.56649  1.0000
  C   C15       1.0  0.41505  0.89800  0.06650  1.0000
  C   C16       1.0  0.91502  0.10200  0.43351  1.0000
  C   C17       1.0  0.90586  0.86688  0.91580  1.0000
  C   C18       1.0  0.40585  0.13311  0.58420  1.0000
  C   C19       1.0  0.09416  0.13311  0.08420  1.0000
  C   C20       1.0  0.59415  0.86689  0.41580  1.0000
  O   O1        1.0  0.73393  0.82458  0.75375  1.0000
  O   O2        1.0  0.23394  0.17542  0.74624  1.0000
  O   O3        1.0  0.26607  0.17542  0.24625  1.0000
  O   O4        1.0  0.76607  0.82459  0.25375  1.0000
  O   O5        1.0  0.78561  0.51438  0.83840  1.0000
  O   O6        1.0  0.28561  0.48562  0.66160  1.0000
  O   O7        1.0  0.21439  0.48562  0.16160  1.0000
  O   O8        1.0  0.71438  0.51439  0.33840  1.0000
  O   O9        1.0  0.12383  0.69669  0.78287  1.0000
  O   O10       1.0  0.62383  0.30331  0.71712  1.0000
  O   O11       1.0  0.87616  0.30331  0.21712  1.0000
  O   O12       1.0  0.37617  0.69671  0.28287  1.0000
