data_image0
_chemical_formula_structural       Ag4P4H36C28N4O12
_chemical_formula_sum              "Ag4 P4 H36 C28 N4 O12"
_cell_length_a       4.5769
_cell_length_b       11.7976
_cell_length_c       16.0334
_cell_angle_alpha    102.011
_cell_angle_beta     90
_cell_angle_gamma    90

_space_group_name_H-M_alt    "P 1"
_space_group_IT_number       1

loop_
  _space_group_symop_operation_xyz
  'x, y, z'

loop_
  _atom_site_type_symbol
  _atom_site_label
  _atom_site_symmetry_multiplicity
  _atom_site_fract_x
  _atom_site_fract_y
  _atom_site_fract_z
  _atom_site_occupancy
  Ag  Ag1       1.0  0.97672  0.51042  0.18937  1.0000
  Ag  Ag2       1.0  0.47672  0.48958  0.31063  1.0000
  Ag  Ag3       1.0  0.02328  0.48958  0.81063  1.0000
  Ag  Ag4       1.0  0.52328  0.51042  0.68937  1.0000
  P   P1        1.0  0.19537  0.73982  0.31950  1.0000
  P   P2        1.0  0.69537  0.26018  0.18050  1.0000
  P   P3        1.0  0.80463  0.26018  0.68050  1.0000
  P   P4        1.0  0.30463  0.73982  0.81950  1.0000
  H   H1        1.0  0.63827  0.74341  0.26388  1.0000
  H   H2        1.0  0.13827  0.25659  0.23612  1.0000
  H   H3        1.0  0.36173  0.25659  0.73612  1.0000
  H   H4        1.0  0.86173  0.74341  0.76388  1.0000
  H   H5        1.0  0.96021  0.92358  0.34473  1.0000
  H   H6        1.0  0.46021  0.07642  0.15528  1.0000
  H   H7        1.0  0.03979  0.07642  0.65527  1.0000
  H   H8        1.0  0.53979  0.92358  0.84473  1.0000
  H   H9        1.0  0.88196  0.84586  0.42471  1.0000
  H   H10       1.0  0.38196  0.15414  0.07529  1.0000
  H   H11       1.0  0.11804  0.15414  0.57529  1.0000
  H   H12       1.0  0.61804  0.84586  0.92471  1.0000
  H   H13       1.0  0.11486  0.10624  0.34438  1.0000
  H   H14       1.0  0.61485  0.89376  0.15562  1.0000
  H   H15       1.0  0.88515  0.89376  0.65562  1.0000
  H   H16       1.0  0.38515  0.10624  0.84438  1.0000
  H   H17       1.0  0.38713  0.01549  0.28826  1.0000
  H   H18       1.0  0.88713  0.98450  0.21174  1.0000
  H   H19       1.0  0.61287  0.98450  0.71174  1.0000
  H   H20       1.0  0.11287  0.01550  0.78826  1.0000
  H   H21       1.0  0.47651  0.15886  0.34151  1.0000
  H   H22       1.0  0.97651  0.84114  0.15849  1.0000
  H   H23       1.0  0.52349  0.84114  0.65849  1.0000
  H   H24       1.0  0.02349  0.15886  0.84151  1.0000
  H   H25       1.0  0.26758  0.82513  0.53164  1.0000
  H   H26       1.0  0.76758  0.17487  0.96836  1.0000
  H   H27       1.0  0.73242  0.17486  0.46836  1.0000
  H   H28       1.0  0.23242  0.82514  0.03164  1.0000
  H   H29       1.0  0.81776  0.65853  0.98154  1.0000
  H   H30       1.0  0.31775  0.34147  0.51846  1.0000
  H   H31       1.0  0.18225  0.34147  0.01846  1.0000
  H   H32       1.0  0.68224  0.65853  0.48154  1.0000
  H   H33       1.0  0.48139  0.67589  0.11051  1.0000
  H   H34       1.0  0.98138  0.32411  0.38949  1.0000
  H   H35       1.0  0.51862  0.32411  0.88949  1.0000
  H   H36       1.0  0.01860  0.67589  0.61051  1.0000
  C   C1        1.0  0.06012  0.87199  0.38668  1.0000
  C   C2        1.0  0.56012  0.12801  0.11332  1.0000
  C   C3        1.0  0.93988  0.12801  0.61332  1.0000
  C   C4        1.0  0.43988  0.87199  0.88668  1.0000
  C   C5        1.0  0.28847  0.93940  0.44381  1.0000
  C   C6        1.0  0.78847  0.06060  0.05619  1.0000
  C   C7        1.0  0.71153  0.06060  0.55619  1.0000
  C   C8        1.0  0.21153  0.93940  0.94381  1.0000
  C   C9        1.0  0.42138  0.03881  0.42490  1.0000
  C   C10       1.0  0.92138  0.96119  0.07510  1.0000
  C   C11       1.0  0.57862  0.96119  0.57510  1.0000
  C   C12       1.0  0.07862  0.03881  0.92490  1.0000
  C   C13       1.0  0.34654  0.08227  0.34600  1.0000
  C   C14       1.0  0.84654  0.91772  0.15400  1.0000
  C   C15       1.0  0.65346  0.91772  0.65400  1.0000
  C   C16       1.0  0.15346  0.08227  0.84600  1.0000
  C   C17       1.0  0.37110  0.90267  0.51789  1.0000
  C   C18       1.0  0.87110  0.09733  0.98211  1.0000
  C   C19       1.0  0.62890  0.09733  0.48211  1.0000
  C   C20       1.0  0.12890  0.90267  0.01789  1.0000
  C   C21       1.0  0.67474  0.58786  0.99033  1.0000
  C   C22       1.0  0.17473  0.41214  0.50967  1.0000
  C   C23       1.0  0.32527  0.41214  0.00967  1.0000
  C   C24       1.0  0.82526  0.58786  0.49033  1.0000
  C   C25       1.0  0.49013  0.59716  0.06074  1.0000
  C   C26       1.0  0.99012  0.40284  0.43926  1.0000
  C   C27       1.0  0.50988  0.40284  0.93926  1.0000
  C   C28       1.0  0.00987  0.59716  0.56074  1.0000
  N   N1        1.0  0.31468  0.50949  0.07020  1.0000
  N   N2        1.0  0.81467  0.49051  0.42980  1.0000
  N   N3        1.0  0.68533  0.49051  0.92980  1.0000
  N   N4        1.0  0.18532  0.50949  0.57020  1.0000
  O   O1        1.0  0.93367  0.68774  0.26349  1.0000
  O   O2        1.0  0.43367  0.31227  0.23651  1.0000
  O   O3        1.0  0.06633  0.31227  0.73651  1.0000
  O   O4        1.0  0.56633  0.68774  0.76349  1.0000
  O   O5        1.0  0.32842  0.66239  0.37446  1.0000
  O   O6        1.0  0.82842  0.33761  0.12554  1.0000
  O   O7        1.0  0.67158  0.33761  0.62554  1.0000
  O   O8        1.0  0.17158  0.66239  0.87446  1.0000
  O   O9        1.0  0.43288  0.77715  0.25830  1.0000
  O   O10       1.0  0.93288  0.22285  0.24170  1.0000
  O   O11       1.0  0.56712  0.22285  0.74170  1.0000
  O   O12       1.0  0.06712  0.77715  0.75830  1.0000
