data_image0
_chemical_formula_structural       Ag6P6H24C18O18
_chemical_formula_sum              "Ag6 P6 H24 C18 O18"
_cell_length_a       8.30793
_cell_length_b       9.26717
_cell_length_c       10.8467
_cell_angle_alpha    87.5441
_cell_angle_beta     90.8435
_cell_angle_gamma    62.9354

_space_group_name_H-M_alt    "P 1"
_space_group_IT_number       1

loop_
  _space_group_symop_operation_xyz
  'x, y, z'

loop_
  _atom_site_type_symbol
  _atom_site_label
  _atom_site_symmetry_multiplicity
  _atom_site_fract_x
  _atom_site_fract_y
  _atom_site_fract_z
  _atom_site_occupancy
  Ag  Ag1       1.0  0.57046  0.60717  0.04682  1.0000
  Ag  Ag2       1.0  0.42953  0.39283  0.95318  1.0000
  Ag  Ag3       1.0  0.83269  0.82838  0.03007  1.0000
  Ag  Ag4       1.0  0.16731  0.17162  0.96993  1.0000
  Ag  Ag5       1.0  0.84718  0.15371  0.87585  1.0000
  Ag  Ag6       1.0  0.15281  0.84629  0.12415  1.0000
  P   P1        1.0  0.84500  0.22645  0.19896  1.0000
  P   P2        1.0  0.15500  0.77355  0.80104  1.0000
  P   P3        1.0  0.81632  0.52584  0.82269  1.0000
  P   P4        1.0  0.18368  0.47416  0.17731  1.0000
  P   P5        1.0  0.48241  0.08483  0.76469  1.0000
  P   P6        1.0  0.51759  0.91517  0.23531  1.0000
  H   H1        1.0  0.65603  0.11885  0.17962  1.0000
  H   H2        1.0  0.34397  0.88115  0.82038  1.0000
  H   H3        1.0  0.09154  0.50450  0.81712  1.0000
  H   H4        1.0  0.90846  0.49550  0.18287  1.0000
  H   H5        1.0  0.69063  0.83076  0.77717  1.0000
  H   H6        1.0  0.30937  0.16924  0.22283  1.0000
  H   H7        1.0  0.94515  0.36134  0.48293  1.0000
  H   H8        1.0  0.05485  0.63867  0.51707  1.0000
  H   H9        1.0  0.49124  0.45464  0.70990  1.0000
  H   H10       1.0  0.50877  0.54536  0.29011  1.0000
  H   H11       1.0  0.65089  0.08405  0.44698  1.0000
  H   H12       1.0  0.34911  0.91595  0.55302  1.0000
  H   H13       1.0  0.93930  0.00282  0.34518  1.0000
  H   H14       1.0  0.06070  0.99719  0.65482  1.0000
  H   H15       1.0  0.06653  0.11105  0.36191  1.0000
  H   H16       1.0  0.93347  0.88895  0.63809  1.0000
  H   H17       1.0  0.60524  0.66365  0.65996  1.0000
  H   H18       1.0  0.39476  0.33635  0.34004  1.0000
  H   H19       1.0  0.82944  0.59385  0.61040  1.0000
  H   H20       1.0  0.17056  0.40615  0.38961  1.0000
  H   H21       1.0  0.36612  0.16684  0.55771  1.0000
  H   H22       1.0  0.63388  0.83315  0.44229  1.0000
  H   H23       1.0  0.29104  0.33405  0.65488  1.0000
  H   H24       1.0  0.70896  0.66595  0.34512  1.0000
  C   C1        1.0  0.81165  0.21207  0.45463  1.0000
  C   C2        1.0  0.18835  0.78793  0.54537  1.0000
  C   C3        1.0  0.83755  0.33255  0.51272  1.0000
  C   C4        1.0  0.16245  0.66745  0.48728  1.0000
  C   C5        1.0  0.72372  0.41971  0.60509  1.0000
  C   C6        1.0  0.27628  0.58028  0.39491  1.0000
  C   C7        1.0  0.58440  0.38346  0.64086  1.0000
  C   C8        1.0  0.41560  0.61654  0.35914  1.0000
  C   C9        1.0  0.55773  0.26218  0.58558  1.0000
  C   C10       1.0  0.44227  0.73782  0.41442  1.0000
  C   C11       1.0  0.67190  0.17742  0.49223  1.0000
  C   C12       1.0  0.32810  0.82258  0.50777  1.0000
  C   C13       1.0  0.92810  0.12541  0.35087  1.0000
  C   C14       1.0  0.07190  0.87459  0.64913  1.0000
  C   C15       1.0  0.73937  0.55775  0.66182  1.0000
  C   C16       1.0  0.26063  0.44225  0.33819  1.0000
  C   C17       1.0  0.40955  0.22395  0.62898  1.0000
  C   C18       1.0  0.59045  0.77605  0.37102  1.0000
  O   O1        1.0  0.80746  0.40347  0.19683  1.0000
  O   O2        1.0  0.19255  0.59653  0.80317  1.0000
  O   O3        1.0  0.65398  0.23171  0.17182  1.0000
  O   O4        1.0  0.34602  0.76829  0.82818  1.0000
  O   O5        1.0  0.98455  0.11903  0.10823  1.0000
  O   O6        1.0  0.01546  0.88097  0.89177  1.0000
  O   O7        1.0  0.03049  0.42755  0.82601  1.0000
  O   O8        1.0  0.96950  0.57246  0.17399  1.0000
  O   O9        1.0  0.75796  0.69422  0.87181  1.0000
  O   O10       1.0  0.24204  0.30579  0.12819  1.0000
  O   O11       1.0  0.74337  0.42377  0.89540  1.0000
  O   O12       1.0  0.25663  0.57623  0.10460  1.0000
  O   O13       1.0  0.63883  0.92770  0.71201  1.0000
  O   O14       1.0  0.36117  0.07230  0.28799  1.0000
  O   O15       1.0  0.55593  0.14856  0.86813  1.0000
  O   O16       1.0  0.44407  0.85143  0.13187  1.0000
  O   O17       1.0  0.32629  0.04905  0.80449  1.0000
  O   O18       1.0  0.67371  0.95095  0.19551  1.0000
