data_image0
_chemical_formula_structural       Cu6H14C20S2I4N4
_chemical_formula_sum              "Cu6 H14 C20 S2 I4 N4"
_cell_length_a       7.67883
_cell_length_b       7.67886
_cell_length_c       11.9867
_cell_angle_alpha    76.7743
_cell_angle_beta     76.7739
_cell_angle_gamma    75.1939

_space_group_name_H-M_alt    "P 1"
_space_group_IT_number       1

loop_
  _space_group_symop_operation_xyz
  'x, y, z'

loop_
  _atom_site_type_symbol
  _atom_site_label
  _atom_site_symmetry_multiplicity
  _atom_site_fract_x
  _atom_site_fract_y
  _atom_site_fract_z
  _atom_site_occupancy
  Cu  Cu1       1.0  0.37781  0.98684  0.59972  1.0000
  Cu  Cu2       1.0  0.01316  0.62219  0.40028  1.0000
  Cu  Cu3       1.0  0.62219  0.01316  0.40028  1.0000
  Cu  Cu4       1.0  0.98684  0.37781  0.59972  1.0000
  Cu  Cu5       1.0  0.03374  0.03374  0.59224  1.0000
  Cu  Cu6       1.0  0.96625  0.96626  0.40776  1.0000
  H   H1        1.0  0.42390  0.88632  0.84071  1.0000
  H   H2        1.0  0.11368  0.57610  0.15929  1.0000
  H   H3        1.0  0.57611  0.11368  0.15929  1.0000
  H   H4        1.0  0.88632  0.42390  0.84071  1.0000
  H   H5        1.0  0.86818  0.40511  0.01048  1.0000
  H   H6        1.0  0.59489  0.13180  0.98952  1.0000
  H   H7        1.0  0.13182  0.59490  0.98952  1.0000
  H   H8        1.0  0.40511  0.86820  0.01048  1.0000
  H   H9        1.0  0.83350  0.37371  0.22143  1.0000
  H   H10       1.0  0.62628  0.16649  0.77858  1.0000
  H   H11       1.0  0.16650  0.62629  0.77857  1.0000
  H   H12       1.0  0.37372  0.83351  0.22142  1.0000
  H   H13       1.0  0.58892  0.58893  0.32945  1.0000
  H   H14       1.0  0.41108  0.41107  0.67055  1.0000
  C   C1        1.0  0.69824  0.69824  0.62715  1.0000
  C   C2        1.0  0.30176  0.30176  0.37285  1.0000
  C   C3        1.0  0.54044  0.79240  0.80034  1.0000
  C   C4        1.0  0.20761  0.45956  0.19967  1.0000
  C   C5        1.0  0.45956  0.20760  0.19966  1.0000
  C   C6        1.0  0.79239  0.54043  0.80034  1.0000
  C   C7        1.0  0.65968  0.65967  0.86493  1.0000
  C   C8        1.0  0.34033  0.34033  0.13507  1.0000
  C   C9        1.0  0.64193  0.64193  0.99175  1.0000
  C   C10       1.0  0.35808  0.35807  0.00825  1.0000
  C   C11       1.0  0.76079  0.50295  0.05440  1.0000
  C   C12       1.0  0.49705  0.23921  0.94560  1.0000
  C   C13       1.0  0.23922  0.49705  0.94560  1.0000
  C   C14       1.0  0.50296  0.76079  0.05439  1.0000
  C   C15       1.0  0.74206  0.48474  0.17464  1.0000
  C   C16       1.0  0.51526  0.25793  0.82536  1.0000
  C   C17       1.0  0.25794  0.51526  0.82536  1.0000
  C   C18       1.0  0.48474  0.74207  0.17464  1.0000
  C   C19       1.0  0.60440  0.60440  0.23525  1.0000
  C   C20       1.0  0.39560  0.39560  0.76475  1.0000
  S   S1        1.0  0.72663  0.72663  0.47737  1.0000
  S   S2        1.0  0.27337  0.27337  0.52263  1.0000
  I   I1        1.0  0.23947  0.76053  0.50000  1.0000
  I   I2        1.0  0.76053  0.23947  0.50000  1.0000
  I   I3        1.0  0.04485  0.04485  0.80243  1.0000
  I   I4        1.0  0.95515  0.95514  0.19757  1.0000
  N   N1        1.0  0.55840  0.81218  0.68426  1.0000
  N   N2        1.0  0.18782  0.44160  0.31575  1.0000
  N   N3        1.0  0.44160  0.18782  0.31575  1.0000
  N   N4        1.0  0.81218  0.55840  0.68425  1.0000
