data_image0
_chemical_formula_structural       Cu8H28C40S4Br4N8
_chemical_formula_sum              "Cu8 H28 C40 S4 Br4 N8"
_cell_length_a       8.09744
_cell_length_b       9.34834
_cell_length_c       14.65
_cell_angle_alpha    89.3172
_cell_angle_beta     77.5861
_cell_angle_gamma    86.9699

_space_group_name_H-M_alt    "P 1"
_space_group_IT_number       1

loop_
  _space_group_symop_operation_xyz
  'x, y, z'

loop_
  _atom_site_type_symbol
  _atom_site_label
  _atom_site_symmetry_multiplicity
  _atom_site_fract_x
  _atom_site_fract_y
  _atom_site_fract_z
  _atom_site_occupancy
  Cu  Cu1       1.0  0.96376  0.58579  0.44186  1.0000
  Cu  Cu2       1.0  0.03624  0.41421  0.55815  1.0000
  Cu  Cu3       1.0  0.29096  0.30174  0.43441  1.0000
  Cu  Cu4       1.0  0.70904  0.69826  0.56559  1.0000
  Cu  Cu5       1.0  0.99263  0.18216  0.40176  1.0000
  Cu  Cu6       1.0  0.00737  0.81785  0.59824  1.0000
  Cu  Cu7       1.0  0.68037  0.09035  0.48329  1.0000
  Cu  Cu8       1.0  0.31962  0.90965  0.51670  1.0000
  H   H1        1.0  0.58376  0.85619  0.34482  1.0000
  H   H2        1.0  0.41625  0.14381  0.65518  1.0000
  H   H3        1.0  0.57570  0.39767  0.30648  1.0000
  H   H4        1.0  0.42431  0.60233  0.69352  1.0000
  H   H5        1.0  0.68247  0.85993  0.19911  1.0000
  H   H6        1.0  0.31753  0.14007  0.80088  1.0000
  H   H7        1.0  0.91555  0.87633  0.06006  1.0000
  H   H8        1.0  0.08446  0.12367  0.93994  1.0000
  H   H9        1.0  0.11048  0.66428  0.00766  1.0000
  H   H10       1.0  0.88952  0.33571  0.99234  1.0000
  H   H11       1.0  0.07163  0.43588  0.09732  1.0000
  H   H12       1.0  0.92837  0.56412  0.90268  1.0000
  H   H13       1.0  0.84034  0.41808  0.23591  1.0000
  H   H14       1.0  0.15966  0.58192  0.76409  1.0000
  H   H15       1.0  0.81227  0.38566  0.75059  1.0000
  H   H16       1.0  0.18772  0.61434  0.24941  1.0000
  H   H17       1.0  0.82724  0.92350  0.78388  1.0000
  H   H18       1.0  0.17277  0.07650  0.21612  1.0000
  H   H19       1.0  0.55694  0.36492  0.84925  1.0000
  H   H20       1.0  0.44306  0.63508  0.15075  1.0000
  H   H21       1.0  0.39335  0.39948  0.01088  1.0000
  H   H22       1.0  0.60665  0.60052  0.98912  1.0000
  H   H23       1.0  0.44622  0.23487  0.13783  1.0000
  H   H24       1.0  0.55378  0.76512  0.86217  1.0000
  H   H25       1.0  0.65469  0.02776  0.09932  1.0000
  H   H26       1.0  0.34532  0.97223  0.90068  1.0000
  H   H27       1.0  0.81374  0.98802  0.93632  1.0000
  H   H28       1.0  0.18626  0.01198  0.06368  1.0000
  C   C1        1.0  0.33543  0.61705  0.45809  1.0000
  C   C2        1.0  0.66457  0.38295  0.54191  1.0000
  C   C3        1.0  0.53467  0.75033  0.36093  1.0000
  C   C4        1.0  0.46533  0.24967  0.63907  1.0000
  C   C5        1.0  0.60393  0.62855  0.30936  1.0000
  C   C6        1.0  0.39607  0.37145  0.69064  1.0000
  C   C7        1.0  0.53113  0.49961  0.34092  1.0000
  C   C8        1.0  0.46887  0.50039  0.65908  1.0000
  C   C9        1.0  0.74308  0.63731  0.22701  1.0000
  C   C10       1.0  0.25693  0.36269  0.77299  1.0000
  C   C11       1.0  0.76775  0.76664  0.17697  1.0000
  C   C12       1.0  0.23226  0.23336  0.82303  1.0000
  C   C13       1.0  0.89784  0.77549  0.09819  1.0000
  C   C14       1.0  0.10216  0.22451  0.90181  1.0000
  C   C15       1.0  0.00691  0.65647  0.06842  1.0000
  C   C16       1.0  0.99309  0.34353  0.93158  1.0000
  C   C17       1.0  0.98464  0.52836  0.11831  1.0000
  C   C18       1.0  0.01536  0.47164  0.88169  1.0000
  C   C19       1.0  0.85309  0.51810  0.19658  1.0000
  C   C20       1.0  0.14691  0.48190  0.80342  1.0000
  C   C21       1.0  0.02603  0.12864  0.61751  1.0000
  C   C22       1.0  0.97396  0.87137  0.38249  1.0000
  C   C23       1.0  0.85486  0.27578  0.72983  1.0000
  C   C24       1.0  0.14513  0.72422  0.27017  1.0000
  C   C25       1.0  0.80400  0.15741  0.78641  1.0000
  C   C26       1.0  0.19599  0.84258  0.21359  1.0000
  C   C27       1.0  0.86664  0.02344  0.74850  1.0000
  C   C28       1.0  0.13336  0.97656  0.25150  1.0000
  C   C29       1.0  0.69772  0.17410  0.88103  1.0000
  C   C30       1.0  0.30228  0.82590  0.11897  1.0000
  C   C31       1.0  0.57906  0.29027  0.90363  1.0000
  C   C32       1.0  0.42093  0.70973  0.09638  1.0000
  C   C33       1.0  0.48760  0.31048  0.99510  1.0000
  C   C34       1.0  0.51240  0.68951  0.00490  1.0000
  C   C35       1.0  0.51626  0.21759  0.06610  1.0000
  C   C36       1.0  0.48374  0.78240  0.93391  1.0000
  C   C37       1.0  0.63352  0.10136  0.04423  1.0000
  C   C38       1.0  0.36649  0.89864  0.95577  1.0000
  C   C39       1.0  0.72163  0.07850  0.95253  1.0000
  C   C40       1.0  0.27837  0.92149  0.04747  1.0000
  S   S1        1.0  0.16311  0.61590  0.55190  1.0000
  S   S2        1.0  0.83689  0.38411  0.44810  1.0000
  S   S3        1.0  0.17198  0.11248  0.51159  1.0000
  S   S4        1.0  0.82801  0.88753  0.48841  1.0000
  Br  Br1       1.0  0.18278  0.33545  0.27886  1.0000
  Br  Br2       1.0  0.81722  0.66456  0.72113  1.0000
  Br  Br3       1.0  0.54608  0.12610  0.35012  1.0000
  Br  Br4       1.0  0.45391  0.87388  0.64988  1.0000
  N   N1        1.0  0.40210  0.74555  0.43363  1.0000
  N   N2        1.0  0.59790  0.25445  0.56637  1.0000
  N   N3        1.0  0.39890  0.49273  0.41426  1.0000
  N   N4        1.0  0.60110  0.50728  0.58574  1.0000
  N   N5        1.0  0.96468  0.26151  0.64721  1.0000
  N   N6        1.0  0.03531  0.73849  0.35279  1.0000
  N   N7        1.0  0.97407  0.00806  0.66500  1.0000
  N   N8        1.0  0.02593  0.99194  0.33500  1.0000
