data_image0
_chemical_formula_structural       Co2H16C16S4N4Cl4
_chemical_formula_sum              "Co2 H16 C16 S4 N4 Cl4"
_cell_length_a       7.31047
_cell_length_b       9.27557
_cell_length_c       9.27557
_cell_angle_alpha    112.113
_cell_angle_beta     97.3994
_cell_angle_gamma    97.3995

_space_group_name_H-M_alt    "P 1"
_space_group_IT_number       1

loop_
  _space_group_symop_operation_xyz
  'x, y, z'

loop_
  _atom_site_type_symbol
  _atom_site_label
  _atom_site_symmetry_multiplicity
  _atom_site_fract_x
  _atom_site_fract_y
  _atom_site_fract_z
  _atom_site_occupancy
  Co  Co1       1.0  0.75000  0.37292  0.62709  1.0000
  Co  Co2       1.0  0.25000  0.62709  0.37291  1.0000
  H   H1        1.0  0.25000  0.84913  0.15088  1.0000
  H   H2        1.0  0.75000  0.15088  0.84912  1.0000
  H   H3        1.0  0.40867  0.29468  0.11081  1.0000
  H   H4        1.0  0.09134  0.88920  0.70533  1.0000
  H   H5        1.0  0.59133  0.70533  0.88920  1.0000
  H   H6        1.0  0.90867  0.11080  0.29466  1.0000
  H   H7        1.0  0.25000  0.17221  0.82780  1.0000
  H   H8        1.0  0.75000  0.82779  0.17221  1.0000
  H   H9        1.0  0.41654  0.15595  0.53824  1.0000
  H   H10       1.0  0.08346  0.46176  0.84405  1.0000
  H   H11       1.0  0.58345  0.84404  0.46175  1.0000
  H   H12       1.0  0.91654  0.53825  0.15595  1.0000
  H   H13       1.0  0.25382  0.00323  0.38390  1.0000
  H   H14       1.0  0.24618  0.61610  0.99678  1.0000
  H   H15       1.0  0.74619  0.99677  0.61610  1.0000
  H   H16       1.0  0.75381  0.38390  0.00322  1.0000
  C   C1        1.0  0.42400  0.15712  0.32041  1.0000
  C   C2        1.0  0.07601  0.67959  0.84288  1.0000
  C   C3        1.0  0.57600  0.84288  0.67959  1.0000
  C   C4        1.0  0.92400  0.32041  0.15712  1.0000
  C   C5        1.0  0.33767  0.08046  0.15014  1.0000
  C   C6        1.0  0.16233  0.84986  0.91954  1.0000
  C   C7        1.0  0.66232  0.91954  0.84986  1.0000
  C   C8        1.0  0.83767  0.15013  0.08045  1.0000
  C   C9        1.0  0.25000  0.91993  0.08007  1.0000
  C   C10       1.0  0.75000  0.08007  0.91993  1.0000
  C   C11       1.0  0.34022  0.16997  0.05686  1.0000
  C   C12       1.0  0.15978  0.94314  0.83003  1.0000
  C   C13       1.0  0.65978  0.83003  0.94315  1.0000
  C   C14       1.0  0.84022  0.05685  0.16996  1.0000
  C   C15       1.0  0.25000  0.10149  0.89852  1.0000
  C   C16       1.0  0.75000  0.89851  0.10148  1.0000
  S   S1        1.0  0.59594  0.32125  0.38332  1.0000
  S   S2        1.0  0.90406  0.61668  0.67876  1.0000
  S   S3        1.0  0.40407  0.67875  0.61669  1.0000
  S   S4        1.0  0.09593  0.38331  0.32124  1.0000
  N   N1        1.0  0.36520  0.09661  0.41886  1.0000
  N   N2        1.0  0.13481  0.58114  0.90340  1.0000
  N   N3        1.0  0.63481  0.90339  0.58113  1.0000
  N   N4        1.0  0.86519  0.41886  0.09661  1.0000
  Cl  Cl1       1.0  0.54987  0.36443  0.78772  1.0000
  Cl  Cl2       1.0  0.95013  0.21228  0.63558  1.0000
  Cl  Cl3       1.0  0.45012  0.63557  0.21228  1.0000
  Cl  Cl4       1.0  0.04988  0.78772  0.36443  1.0000
