data_image0
_chemical_formula_structural       Co2H16C16S4Br4N4
_chemical_formula_sum              "Co2 H16 C16 S4 Br4 N4"
_cell_length_a       7.36123
_cell_length_b       9.49521
_cell_length_c       9.49526
_cell_angle_alpha    112.823
_cell_angle_beta     97.7142
_cell_angle_gamma    97.7131

_space_group_name_H-M_alt    "P 1"
_space_group_IT_number       1

loop_
  _space_group_symop_operation_xyz
  'x, y, z'

loop_
  _atom_site_type_symbol
  _atom_site_label
  _atom_site_symmetry_multiplicity
  _atom_site_fract_x
  _atom_site_fract_y
  _atom_site_fract_z
  _atom_site_occupancy
  Co  Co1       1.0  0.25000  0.87848  0.12152  1.0000
  Co  Co2       1.0  0.75000  0.12152  0.87848  1.0000
  H   H1        1.0  0.75000  0.35320  0.64681  1.0000
  H   H2        1.0  0.25000  0.64680  0.35319  1.0000
  H   H3        1.0  0.58825  0.38946  0.21023  1.0000
  H   H4        1.0  0.91176  0.78977  0.61054  1.0000
  H   H5        1.0  0.41176  0.61053  0.78977  1.0000
  H   H6        1.0  0.08825  0.21022  0.38946  1.0000
  H   H7        1.0  0.75000  0.66756  0.33245  1.0000
  H   H8        1.0  0.25000  0.33244  0.66755  1.0000
  H   H9        1.0  0.73826  0.12387  0.49542  1.0000
  H   H10       1.0  0.76174  0.50459  0.87613  1.0000
  H   H11       1.0  0.26175  0.87613  0.50458  1.0000
  H   H12       1.0  0.23825  0.49541  0.12387  1.0000
  H   H13       1.0  0.57467  0.97159  0.34463  1.0000
  H   H14       1.0  0.92533  0.65538  0.02841  1.0000
  H   H15       1.0  0.42533  0.02841  0.65538  1.0000
  H   H16       1.0  0.07467  0.34462  0.97159  1.0000
  C   C1        1.0  0.57152  0.18465  0.34313  1.0000
  C   C2        1.0  0.92849  0.65687  0.81535  1.0000
  C   C3        1.0  0.42849  0.81534  0.65687  1.0000
  C   C4        1.0  0.07151  0.34313  0.18465  1.0000
  C   C5        1.0  0.66042  0.35223  0.41982  1.0000
  C   C6        1.0  0.83958  0.58019  0.64777  1.0000
  C   C7        1.0  0.33958  0.64777  0.58018  1.0000
  C   C8        1.0  0.16042  0.41982  0.35223  1.0000
  C   C9        1.0  0.75000  0.42217  0.57784  1.0000
  C   C10       1.0  0.25000  0.57783  0.42216  1.0000
  C   C11       1.0  0.65835  0.44299  0.33284  1.0000
  C   C12       1.0  0.84166  0.66717  0.55701  1.0000
  C   C13       1.0  0.34165  0.55701  0.66716  1.0000
  C   C14       1.0  0.15834  0.33283  0.44299  1.0000
  C   C15       1.0  0.75000  0.59876  0.40125  1.0000
  C   C16       1.0  0.25000  0.40124  0.59875  1.0000
  S   S1        1.0  0.40130  0.12067  0.17957  1.0000
  S   S2        1.0  0.09870  0.82043  0.87933  1.0000
  S   S3        1.0  0.59870  0.87933  0.82043  1.0000
  S   S4        1.0  0.90130  0.17957  0.12067  1.0000
  Br  Br1       1.0  0.45841  0.71029  0.13059  1.0000
  Br  Br2       1.0  0.04159  0.86941  0.28970  1.0000
  Br  Br3       1.0  0.54158  0.28970  0.86940  1.0000
  Br  Br4       1.0  0.95841  0.13059  0.71030  1.0000
  N   N1        1.0  0.62659  0.08922  0.40372  1.0000
  N   N2        1.0  0.87341  0.59628  0.91078  1.0000
  N   N3        1.0  0.37341  0.91077  0.59628  1.0000
  N   N4        1.0  0.12658  0.40372  0.08922  1.0000
