data_image0
_chemical_formula_structural       Ni2H32C32S8Br4N8
_chemical_formula_sum              "Ni2 H32 C32 S8 Br4 N8"
_cell_length_a       8.13769
_cell_length_b       9.64389
_cell_length_c       13.6695
_cell_angle_alpha    90.0006
_cell_angle_beta     112.295
_cell_angle_gamma    90.0024

_space_group_name_H-M_alt    "P 1"
_space_group_IT_number       1

loop_
  _space_group_symop_operation_xyz
  'x, y, z'

loop_
  _atom_site_type_symbol
  _atom_site_label
  _atom_site_symmetry_multiplicity
  _atom_site_fract_x
  _atom_site_fract_y
  _atom_site_fract_z
  _atom_site_occupancy
  Ni  Ni1       1.0  0.50000  0.00001  1.00000  1.0000
  Ni  Ni2       1.0  0.50000  0.50000  0.50000  1.0000
  H   H1        1.0  0.80418  0.68510  0.84802  1.0000
  H   H2        1.0  0.19582  0.18515  0.65192  1.0000
  H   H3        1.0  0.19583  0.31491  0.15199  1.0000
  H   H4        1.0  0.80417  0.81483  0.34807  1.0000
  H   H5        1.0  0.34399  0.55565  0.91304  1.0000
  H   H6        1.0  0.65605  0.05566  0.58700  1.0000
  H   H7        1.0  0.65601  0.44435  0.08695  1.0000
  H   H8        1.0  0.34394  0.94433  0.41302  1.0000
  H   H9        1.0  0.70848  0.44370  0.82695  1.0000
  H   H10       1.0  0.29152  0.94376  0.67303  1.0000
  H   H11       1.0  0.29152  0.55630  0.17307  1.0000
  H   H12       1.0  0.70847  0.05622  0.32696  1.0000
  H   H13       1.0  0.92355  0.25281  0.84923  1.0000
  H   H14       1.0  0.07649  0.75283  0.65076  1.0000
  H   H15       1.0  0.07646  0.74719  0.15078  1.0000
  H   H16       1.0  0.92349  0.24715  0.34924  1.0000
  H   H17       1.0  0.38962  0.38412  0.80075  1.0000
  H   H18       1.0  0.61040  0.88412  0.69927  1.0000
  H   H19       1.0  0.61037  0.61589  0.19924  1.0000
  H   H20       1.0  0.38959  0.11587  0.30074  1.0000
  H   H21       1.0  0.48967  0.22195  0.85270  1.0000
  H   H22       1.0  0.51037  0.72192  0.64733  1.0000
  H   H23       1.0  0.51033  0.77807  0.14730  1.0000
  H   H24       1.0  0.48962  0.27807  0.35267  1.0000
  H   H25       1.0  0.91635  0.85501  0.91562  1.0000
  H   H26       1.0  0.08371  0.35505  0.58442  1.0000
  H   H27       1.0  0.08367  0.14501  0.08438  1.0000
  H   H28       1.0  0.91630  0.64493  0.41558  1.0000
  H   H29       1.0  0.06910  0.98094  0.91693  1.0000
  H   H30       1.0  0.93093  0.48097  0.58305  1.0000
  H   H31       1.0  0.93093  0.01907  0.08306  1.0000
  H   H32       1.0  0.06908  0.51902  0.41694  1.0000
  C   C1        1.0  0.14634  0.78366  0.90212  1.0000
  C   C2        1.0  0.85368  0.28368  0.59788  1.0000
  C   C3        1.0  0.85367  0.21635  0.09788  1.0000
  C   C4        1.0  0.14632  0.71631  0.40212  1.0000
  C   C5        1.0  0.08384  0.63816  0.88384  1.0000
  C   C6        1.0  0.91617  0.13822  0.61614  1.0000
  C   C7        1.0  0.91614  0.36184  0.11615  1.0000
  C   C8        1.0  0.08384  0.86178  0.38385  1.0000
  C   C9        1.0  0.90401  0.60478  0.85934  1.0000
  C   C10       1.0  0.09601  0.10479  0.64064  1.0000
  C   C11       1.0  0.09601  0.39524  0.14067  1.0000
  C   C12       1.0  0.90398  0.89520  0.35935  1.0000
  C   C13       1.0  0.20455  0.53037  0.89296  1.0000
  C   C14       1.0  0.79548  0.03037  0.60703  1.0000
  C   C15       1.0  0.79545  0.46963  0.10703  1.0000
  C   C16       1.0  0.20450  0.96962  0.39297  1.0000
  C   C17       1.0  0.84859  0.46716  0.84762  1.0000
  C   C18       1.0  0.15145  0.96719  0.65237  1.0000
  C   C19       1.0  0.15143  0.53284  0.15239  1.0000
  C   C20       1.0  0.84854  0.03279  0.34762  1.0000
  C   C21       1.0  0.96966  0.36019  0.85919  1.0000
  C   C22       1.0  0.03037  0.86023  0.64080  1.0000
  C   C23       1.0  0.03033  0.63982  0.14081  1.0000
  C   C24       1.0  0.96963  0.13977  0.35920  1.0000
  C   C25       1.0  0.14810  0.39205  0.88023  1.0000
  C   C26       1.0  0.85190  0.89204  0.61975  1.0000
  C   C27       1.0  0.85191  0.60798  0.11976  1.0000
  C   C28       1.0  0.14809  0.10797  0.38025  1.0000
  C   C29       1.0  0.27965  0.28094  0.89168  1.0000
  C   C30       1.0  0.72039  0.78094  0.60832  1.0000
  C   C31       1.0  0.72035  0.71907  0.10831  1.0000
  C   C32       1.0  0.27961  0.21905  0.39168  1.0000
  S   S1        1.0  0.27359  0.14182  0.96696  1.0000
  S   S2        1.0  0.72640  0.64182  0.53305  1.0000
  S   S3        1.0  0.72641  0.85819  0.03304  1.0000
  S   S4        1.0  0.27360  0.35817  0.46696  1.0000
  S   S5        1.0  0.35336  0.81939  0.90577  1.0000
  S   S6        1.0  0.64666  0.31939  0.59422  1.0000
  S   S7        1.0  0.64665  0.18062  0.09423  1.0000
  S   S8        1.0  0.35334  0.68061  0.40578  1.0000
  Br  Br1       1.0  0.65531  0.05741  0.81716  1.0000
  Br  Br2       1.0  0.34469  0.55738  0.68285  1.0000
  Br  Br3       1.0  0.34468  0.94261  0.18284  1.0000
  Br  Br4       1.0  0.65528  0.44261  0.31715  1.0000
  N   N1        1.0  0.39926  0.29940  0.84985  1.0000
  N   N2        1.0  0.60080  0.79939  0.65018  1.0000
  N   N3        1.0  0.60074  0.70061  0.15015  1.0000
  N   N4        1.0  0.39919  0.20060  0.34983  1.0000
  N   N5        1.0  0.03660  0.87821  0.91271  1.0000
  N   N6        1.0  0.96342  0.37824  0.58729  1.0000
  N   N7        1.0  0.96341  0.12180  0.08728  1.0000
  N   N8        1.0  0.03658  0.62175  0.41270  1.0000
