data_image0
_chemical_formula_structural       Cu2H34C24N6O10
_chemical_formula_sum              "Cu2 H34 C24 N6 O10"
_cell_length_a       7.12261
_cell_length_b       9.79195
_cell_length_c       10.1074
_cell_angle_alpha    103.054
_cell_angle_beta     102.503
_cell_angle_gamma    90.7189

_space_group_name_H-M_alt    "P 1"
_space_group_IT_number       1

loop_
  _space_group_symop_operation_xyz
  'x, y, z'

loop_
  _atom_site_type_symbol
  _atom_site_label
  _atom_site_symmetry_multiplicity
  _atom_site_fract_x
  _atom_site_fract_y
  _atom_site_fract_z
  _atom_site_occupancy
  Cu  Cu1       1.0  0.75382  0.37128  0.13095  1.0000
  Cu  Cu2       1.0  0.24618  0.62871  0.86905  1.0000
  H   H1        1.0  0.81308  0.60821  0.07972  1.0000
  H   H2        1.0  0.18691  0.39179  0.92028  1.0000
  H   H3        1.0  0.59750  0.60142  0.11659  1.0000
  H   H4        1.0  0.40250  0.39858  0.88341  1.0000
  H   H5        1.0  0.78879  0.84725  0.86870  1.0000
  H   H6        1.0  0.21122  0.15275  0.13130  1.0000
  H   H7        1.0  0.75746  0.82529  0.61870  1.0000
  H   H8        1.0  0.24254  0.17471  0.38130  1.0000
  H   H9        1.0  0.69047  0.03732  0.51944  1.0000
  H   H10       1.0  0.30952  0.96267  0.48056  1.0000
  H   H11       1.0  0.64931  0.26631  0.67605  1.0000
  H   H12       1.0  0.35068  0.73368  0.32395  1.0000
  H   H13       1.0  0.90538  0.89475  0.11515  1.0000
  H   H14       1.0  0.09463  0.10525  0.88485  1.0000
  H   H15       1.0  0.66412  0.84354  0.02527  1.0000
  H   H16       1.0  0.33588  0.15646  0.97474  1.0000
  H   H17       1.0  0.71611  0.93211  0.20363  1.0000
  H   H18       1.0  0.28390  0.06789  0.79637  1.0000
  H   H19       1.0  0.77950  0.75958  0.31831  1.0000
  H   H20       1.0  0.22050  0.24042  0.68169  1.0000
  H   H21       1.0  0.97907  0.65155  0.31004  1.0000
  H   H22       1.0  0.02093  0.34845  0.68996  1.0000
  H   H23       1.0  0.82288  0.61209  0.49901  1.0000
  H   H24       1.0  0.17712  0.38791  0.50099  1.0000
  H   H25       1.0  0.59677  0.56549  0.37376  1.0000
  H   H26       1.0  0.40323  0.43451  0.62624  1.0000
  H   H27       1.0  0.55490  0.33482  0.35572  1.0000
  H   H28       1.0  0.44510  0.66518  0.64428  1.0000
  H   H29       1.0  0.75407  0.33219  0.49868  1.0000
  H   H30       1.0  0.24593  0.66781  0.50132  1.0000
  H   H31       1.0  0.90932  0.15837  0.35118  1.0000
  H   H32       1.0  0.09068  0.84163  0.64883  1.0000
  H   H33       1.0  0.66169  0.09975  0.31658  1.0000
  H   H34       1.0  0.33830  0.90025  0.68342  1.0000
  C   C1        1.0  0.75553  0.93902  0.82659  1.0000
  C   C2        1.0  0.24448  0.06097  0.17341  1.0000
  C   C3        1.0  0.74068  0.92650  0.68535  1.0000
  C   C4        1.0  0.25932  0.07350  0.31465  1.0000
  C   C5        1.0  0.70172  0.04516  0.63024  1.0000
  C   C6        1.0  0.29827  0.95483  0.36976  1.0000
  C   C7        1.0  0.67720  0.17222  0.71593  1.0000
  C   C8        1.0  0.32279  0.82778  0.28408  1.0000
  C   C9        1.0  0.69134  0.18841  0.86153  1.0000
  C   C10       1.0  0.30866  0.81158  0.13847  1.0000
  C   C11       1.0  0.73161  0.06668  0.91854  1.0000
  C   C12       1.0  0.26840  0.93332  0.08146  1.0000
  C   C13       1.0  0.74395  0.06602  0.06494  1.0000
  C   C14       1.0  0.25605  0.93398  0.93507  1.0000
  C   C15       1.0  0.75622  0.92670  0.10437  1.0000
  C   C16       1.0  0.24379  0.07330  0.89563  1.0000
  C   C17       1.0  0.82161  0.65045  0.29361  1.0000
  C   C18       1.0  0.17839  0.34955  0.70639  1.0000
  C   C19       1.0  0.75479  0.56984  0.38839  1.0000
  C   C20       1.0  0.24521  0.43016  0.61161  1.0000
  C   C21       1.0  0.71011  0.32130  0.38554  1.0000
  C   C22       1.0  0.28989  0.67870  0.61446  1.0000
  C   C23       1.0  0.76121  0.18139  0.30600  1.0000
  C   C24       1.0  0.23879  0.81861  0.69400  1.0000
  N   N1        1.0  0.74658  0.18241  0.15908  1.0000
  N   N2        1.0  0.25343  0.81758  0.84092  1.0000
  N   N3        1.0  0.73897  0.57846  0.14672  1.0000
  N   N4        1.0  0.26103  0.42154  0.85328  1.0000
  N   N5        1.0  0.23655  0.41790  0.18099  1.0000
  N   N6        1.0  0.76345  0.58211  0.81900  1.0000
  O   O1        1.0  0.81376  0.42822  0.34692  1.0000
  O   O2        1.0  0.18624  0.57178  0.65308  1.0000
  O   O3        1.0  0.23886  0.48552  0.30338  1.0000
  O   O4        1.0  0.76115  0.51449  0.69661  1.0000
  O   O5        1.0  0.39150  0.37939  0.14576  1.0000
  O   O6        1.0  0.60850  0.62061  0.85424  1.0000
  O   O7        1.0  0.66246  0.31328  0.93187  1.0000
  O   O8        1.0  0.33754  0.68672  0.06813  1.0000
  O   O9        1.0  0.07788  0.38483  0.08987  1.0000
  O   O10       1.0  0.92212  0.61518  0.91012  1.0000
