data_image0
_chemical_formula_structural       Cu2H22C32N8O14
_chemical_formula_sum              "Cu2 H22 C32 N8 O14"
_cell_length_a       7.27891
_cell_length_b       7.60673
_cell_length_c       14.3585
_cell_angle_alpha    97.6186
_cell_angle_beta     99.5202
_cell_angle_gamma    90.1222

_space_group_name_H-M_alt    "P 1"
_space_group_IT_number       1

loop_
  _space_group_symop_operation_xyz
  'x, y, z'

loop_
  _atom_site_type_symbol
  _atom_site_label
  _atom_site_symmetry_multiplicity
  _atom_site_fract_x
  _atom_site_fract_y
  _atom_site_fract_z
  _atom_site_occupancy
  Cu  Cu1       1.0  0.50000  0.50000  0.50000  1.0000
  Cu  Cu2       1.0  1.00000  1.00000  0.50000  1.0000
  H   H1        1.0  0.32058  0.94509  0.49467  1.0000
  H   H2        1.0  0.67942  0.05491  0.50533  1.0000
  H   H3        1.0  0.27985  0.15589  0.48604  1.0000
  H   H4        1.0  0.72014  0.84411  0.51396  1.0000
  H   H5        1.0  0.46908  0.79368  0.94223  1.0000
  H   H6        1.0  0.53091  0.20633  0.05777  1.0000
  H   H7        1.0  0.40201  0.46435  0.93279  1.0000
  H   H8        1.0  0.59799  0.53566  0.06721  1.0000
  H   H9        1.0  0.26837  0.29450  0.77765  1.0000
  H   H10       1.0  0.73163  0.70550  0.22235  1.0000
  H   H11       1.0  0.09915  0.94555  0.27981  1.0000
  H   H12       1.0  0.90086  0.05445  0.72019  1.0000
  H   H13       1.0  0.00973  0.14190  0.15798  1.0000
  H   H14       1.0  0.99028  0.85811  0.84202  1.0000
  H   H15       1.0  0.05995  0.70688  0.93779  1.0000
  H   H16       1.0  0.94006  0.29312  0.06221  1.0000
  H   H17       1.0  0.16362  0.51649  0.06120  1.0000
  H   H18       1.0  0.83638  0.48351  0.93879  1.0000
  H   H19       1.0  0.37273  0.78834  0.35604  1.0000
  H   H20       1.0  0.62727  0.21166  0.64396  1.0000
  H   H21       1.0  0.22177  0.24766  0.33359  1.0000
  H   H22       1.0  0.77822  0.75234  0.66641  1.0000
  C   C1        1.0  0.37971  0.79035  0.79174  1.0000
  C   C2        1.0  0.62028  0.20965  0.20826  1.0000
  C   C3        1.0  0.41425  0.71182  0.87522  1.0000
  C   C4        1.0  0.58575  0.28818  0.12478  1.0000
  C   C5        1.0  0.37602  0.53139  0.86963  1.0000
  C   C6        1.0  0.62397  0.46861  0.13037  1.0000
  C   C7        1.0  0.30228  0.43486  0.78221  1.0000
  C   C8        1.0  0.69773  0.56513  0.21779  1.0000
  C   C9        1.0  0.27187  0.51295  0.69791  1.0000
  C   C10       1.0  0.72812  0.48705  0.30209  1.0000
  C   C11       1.0  0.31009  0.69529  0.70157  1.0000
  C   C12       1.0  0.68991  0.30471  0.29843  1.0000
  C   C13       1.0  0.26519  0.78867  0.61392  1.0000
  C   C14       1.0  0.73481  0.21132  0.38608  1.0000
  C   C15       1.0  0.20055  0.38400  0.60947  1.0000
  C   C16       1.0  0.79945  0.61599  0.39053  1.0000
  C   C17       1.0  0.14064  0.72071  0.17720  1.0000
  C   C18       1.0  0.85936  0.27929  0.82280  1.0000
  C   C19       1.0  0.09568  0.89626  0.20472  1.0000
  C   C20       1.0  0.90433  0.10374  0.79528  1.0000
  C   C21       1.0  0.04206  0.00503  0.13488  1.0000
  C   C22       1.0  0.95796  0.99497  0.86512  1.0000
  C   C23       1.0  0.02844  0.94181  0.03707  1.0000
  C   C24       1.0  0.97157  0.05820  0.96293  1.0000
  C   C25       1.0  0.07049  0.76294  0.01228  1.0000
  C   C26       1.0  0.92953  0.23706  0.98772  1.0000
  C   C27       1.0  0.12792  0.65355  0.08122  1.0000
  C   C28       1.0  0.87208  0.34645  0.91878  1.0000
  C   C29       1.0  0.31241  0.65685  0.33220  1.0000
  C   C30       1.0  0.68758  0.34315  0.66780  1.0000
  C   C31       1.0  0.23449  0.38165  0.31707  1.0000
  C   C32       1.0  0.76550  0.61834  0.68293  1.0000
  N   N1        1.0  0.42377  0.98037  0.80112  1.0000
  N   N2        1.0  0.57623  0.01963  0.19888  1.0000
  N   N3        1.0  0.20252  0.61025  0.24756  1.0000
  N   N4        1.0  0.79748  0.38975  0.75244  1.0000
  N   N5        1.0  0.33576  0.51445  0.37754  1.0000
  N   N6        1.0  0.66424  0.48555  0.62246  1.0000
  N   N7        1.0  0.15189  0.43439  0.23645  1.0000
  N   N8        1.0  0.84811  0.56561  0.76354  1.0000
  O   O1        1.0  0.44238  0.04420  0.72767  1.0000
  O   O2        1.0  0.55762  0.95580  0.27233  1.0000
  O   O3        1.0  0.44204  0.06839  0.88155  1.0000
  O   O4        1.0  0.55796  0.93161  0.11845  1.0000
  O   O5        1.0  0.38051  0.78440  0.55696  1.0000
  O   O6        1.0  0.61949  0.21560  0.44304  1.0000
  O   O7        1.0  0.10688  0.86211  0.60553  1.0000
  O   O8        1.0  0.89312  0.13789  0.39447  1.0000
  O   O9        1.0  0.06406  0.28602  0.61122  1.0000
  O   O10       1.0  0.93593  0.71398  0.38878  1.0000
  O   O11       1.0  0.29290  0.36698  0.53867  1.0000
  O   O12       1.0  0.70710  0.63301  0.46133  1.0000
  O   O13       1.0  0.24292  0.03049  0.45740  1.0000
  O   O14       1.0  0.75708  0.96951  0.54260  1.0000
