data_image0
_chemical_formula_structural       Cd2H36C36N8O12
_chemical_formula_sum              "Cd2 H36 C36 N8 O12"
_cell_length_a       8.37367
_cell_length_b       9.59529
_cell_length_c       11.7076
_cell_angle_alpha    90.0001
_cell_angle_beta     89.9999
_cell_angle_gamma    95.632

_space_group_name_H-M_alt    "P 1"
_space_group_IT_number       1

loop_
  _space_group_symop_operation_xyz
  'x, y, z'

loop_
  _atom_site_type_symbol
  _atom_site_label
  _atom_site_symmetry_multiplicity
  _atom_site_fract_x
  _atom_site_fract_y
  _atom_site_fract_z
  _atom_site_occupancy
  Cd  Cd1       1.0  0.00000  0.00000  0.00000  1.0000
  Cd  Cd2       1.0  0.50000  0.00000  0.50000  1.0000
  H   H1        1.0  0.13950  0.87441  0.73663  1.0000
  H   H2        1.0  0.36050  0.12559  0.23663  1.0000
  H   H3        1.0  0.86050  0.12559  0.26337  1.0000
  H   H4        1.0  0.63950  0.87441  0.76337  1.0000
  H   H5        1.0  0.15119  0.73309  0.47731  1.0000
  H   H6        1.0  0.34881  0.26691  0.97731  1.0000
  H   H7        1.0  0.84881  0.26691  0.52269  1.0000
  H   H8        1.0  0.65119  0.73309  0.02269  1.0000
  H   H9        1.0  0.30845  0.52962  0.69733  1.0000
  H   H10       1.0  0.19155  0.47038  0.19733  1.0000
  H   H11       1.0  0.69155  0.47038  0.30267  1.0000
  H   H12       1.0  0.80845  0.52962  0.80267  1.0000
  H   H13       1.0  0.30488  0.69840  0.63682  1.0000
  H   H14       1.0  0.19512  0.30159  0.13682  1.0000
  H   H15       1.0  0.69512  0.30160  0.36318  1.0000
  H   H16       1.0  0.80487  0.69840  0.86318  1.0000
  H   H17       1.0  0.06011  0.66045  0.04962  1.0000
  H   H18       1.0  0.43989  0.33955  0.54962  1.0000
  H   H19       1.0  0.93989  0.33955  0.95038  1.0000
  H   H20       1.0  0.56011  0.66045  0.45038  1.0000
  H   H21       1.0  0.17123  0.47795  0.88751  1.0000
  H   H22       1.0  0.32877  0.52205  0.38751  1.0000
  H   H23       1.0  0.82877  0.52205  0.11249  1.0000
  H   H24       1.0  0.67123  0.47795  0.61249  1.0000
  H   H25       1.0  0.95997  0.64455  0.32749  1.0000
  H   H26       1.0  0.54003  0.35545  0.82749  1.0000
  H   H27       1.0  0.04003  0.35545  0.67251  1.0000
  H   H28       1.0  0.45996  0.64455  0.17251  1.0000
  H   H29       1.0  0.02679  0.11728  0.77796  1.0000
  H   H30       1.0  0.47321  0.88272  0.27796  1.0000
  H   H31       1.0  0.97321  0.88272  0.22204  1.0000
  H   H32       1.0  0.52679  0.11728  0.72204  1.0000
  H   H33       1.0  0.20602  0.12109  0.82959  1.0000
  H   H34       1.0  0.29398  0.87891  0.32959  1.0000
  H   H35       1.0  0.79398  0.87891  0.17041  1.0000
  H   H36       1.0  0.70602  0.12109  0.67041  1.0000
  C   C1        1.0  0.45440  0.03320  0.92269  1.0000
  C   C2        1.0  0.04560  0.96680  0.42269  1.0000
  C   C3        1.0  0.54560  0.96680  0.07731  1.0000
  C   C4        1.0  0.95440  0.03320  0.57731  1.0000
  C   C5        1.0  0.38882  0.00766  0.03895  1.0000
  C   C6        1.0  0.11119  0.99235  0.53896  1.0000
  C   C7        1.0  0.61118  0.99235  0.96105  1.0000
  C   C8        1.0  0.88881  0.00766  0.46104  1.0000
  C   C9        1.0  0.12485  0.79202  0.80047  1.0000
  C   C10       1.0  0.37515  0.20798  0.30047  1.0000
  C   C11       1.0  0.87515  0.20798  0.19953  1.0000
  C   C12       1.0  0.62485  0.79202  0.69953  1.0000
  C   C13       1.0  0.08349  0.63117  0.48782  1.0000
  C   C14       1.0  0.41650  0.36883  0.98782  1.0000
  C   C15       1.0  0.91650  0.36883  0.51218  1.0000
  C   C16       1.0  0.58349  0.63117  0.01218  1.0000
  C   C17       1.0  0.22966  0.60991  0.67368  1.0000
  C   C18       1.0  0.27034  0.39008  0.17368  1.0000
  C   C19       1.0  0.77034  0.39008  0.32632  1.0000
  C   C20       1.0  0.72966  0.60992  0.82632  1.0000
  C   C21       1.0  0.09020  0.67648  0.96035  1.0000
  C   C22       1.0  0.40980  0.32352  0.46035  1.0000
  C   C23       1.0  0.90980  0.32352  0.03965  1.0000
  C   C24       1.0  0.59020  0.67648  0.53965  1.0000
  C   C25       1.0  0.14284  0.58537  0.88139  1.0000
  C   C26       1.0  0.35716  0.41463  0.38139  1.0000
  C   C27       1.0  0.85716  0.41463  0.11861  1.0000
  C   C28       1.0  0.64284  0.58537  0.61861  1.0000
  C   C29       1.0  0.97749  0.57970  0.40232  1.0000
  C   C30       1.0  0.52251  0.42030  0.90232  1.0000
  C   C31       1.0  0.02251  0.42030  0.59768  1.0000
  C   C32       1.0  0.47749  0.57970  0.09768  1.0000
  C   C33       1.0  0.10708  0.55289  0.58632  1.0000
  C   C34       1.0  0.39292  0.44711  0.08632  1.0000
  C   C35       1.0  0.89292  0.44711  0.41368  1.0000
  C   C36       1.0  0.60708  0.55289  0.91368  1.0000
  N   N1        1.0  0.07880  0.80457  0.90865  1.0000
  N   N2        1.0  0.42121  0.19543  0.40865  1.0000
  N   N3        1.0  0.92121  0.19543  0.09135  1.0000
  N   N4        1.0  0.57880  0.80457  0.59135  1.0000
  N   N5        1.0  0.16416  0.66006  0.78076  1.0000
  N   N6        1.0  0.33584  0.33994  0.28076  1.0000
  N   N7        1.0  0.83584  0.33994  0.21924  1.0000
  N   N8        1.0  0.66416  0.66006  0.71924  1.0000
  O   O1        1.0  0.09528  0.14654  0.84595  1.0000
  O   O2        1.0  0.40472  0.85346  0.34595  1.0000
  O   O3        1.0  0.90472  0.85346  0.15405  1.0000
  O   O4        1.0  0.59528  0.14654  0.65405  1.0000
  O   O5        1.0  0.25706  0.01878  0.08870  1.0000
  O   O6        1.0  0.24294  0.98122  0.58870  1.0000
  O   O7        1.0  0.74294  0.98122  0.91130  1.0000
  O   O8        1.0  0.75707  0.01878  0.41130  1.0000
  O   O9        1.0  0.40011  0.07534  0.82942  1.0000
  O   O10       1.0  0.09989  0.92466  0.32942  1.0000
  O   O11       1.0  0.59989  0.92466  0.17058  1.0000
  O   O12       1.0  0.90011  0.07534  0.67058  1.0000
