data_image0
_chemical_formula_structural       Mn2H18C28N2O14
_chemical_formula_sum              "Mn2 H18 C28 N2 O14"
_cell_length_a       7.40539
_cell_length_b       10.0601
_cell_length_c       10.7587
_cell_angle_alpha    64.0677
_cell_angle_beta     68.9569
_cell_angle_gamma    70.0387

_space_group_name_H-M_alt    "P 1"
_space_group_IT_number       1

loop_
  _space_group_symop_operation_xyz
  'x, y, z'

loop_
  _atom_site_type_symbol
  _atom_site_label
  _atom_site_symmetry_multiplicity
  _atom_site_fract_x
  _atom_site_fract_y
  _atom_site_fract_z
  _atom_site_occupancy
  Mn  Mn1       1.0  0.62534  0.08993  0.06680  1.0000
  Mn  Mn2       1.0  0.37466  0.91007  0.93320  1.0000
  H   H1        1.0  0.75582  0.13652  0.77580  1.0000
  H   H2        1.0  0.24417  0.86347  0.22420  1.0000
  H   H3        1.0  0.92599  0.03774  0.85681  1.0000
  H   H4        1.0  0.07401  0.96226  0.14319  1.0000
  H   H5        1.0  0.65423  0.56151  0.04566  1.0000
  H   H6        1.0  0.34577  0.43849  0.95434  1.0000
  H   H7        1.0  0.99926  0.62521  0.25535  1.0000
  H   H8        1.0  0.00075  0.37479  0.74465  1.0000
  H   H9        1.0  0.06504  0.17917  0.25761  1.0000
  H   H10       1.0  0.93497  0.82083  0.74239  1.0000
  H   H11       1.0  0.00132  0.16760  0.49977  1.0000
  H   H12       1.0  0.99868  0.83240  0.50023  1.0000
  H   H13       1.0  0.23495  0.02617  0.65982  1.0000
  H   H14       1.0  0.76505  0.97383  0.34018  1.0000
  H   H15       1.0  0.57840  0.36833  0.40164  1.0000
  H   H16       1.0  0.42159  0.63167  0.59836  1.0000
  H   H17       1.0  0.35091  0.48457  0.23513  1.0000
  H   H18       1.0  0.64908  0.51543  0.76487  1.0000
  C   C1        1.0  0.78456  0.25853  0.11287  1.0000
  C   C2        1.0  0.21544  0.74147  0.88713  1.0000
  C   C3        1.0  0.84898  0.35934  0.15012  1.0000
  C   C4        1.0  0.15102  0.64066  0.84988  1.0000
  C   C5        1.0  0.76369  0.51425  0.10837  1.0000
  C   C6        1.0  0.23632  0.48575  0.89163  1.0000
  C   C7        1.0  0.81969  0.60927  0.14480  1.0000
  C   C8        1.0  0.18032  0.39073  0.85520  1.0000
  C   C9        1.0  0.73134  0.77569  0.09321  1.0000
  C   C10       1.0  0.26866  0.22431  0.90679  1.0000
  C   C11       1.0  0.95840  0.54957  0.22684  1.0000
  C   C12       1.0  0.04160  0.45043  0.77316  1.0000
  C   C13       1.0  0.04044  0.39425  0.26892  1.0000
  C   C14       1.0  0.95956  0.60575  0.73108  1.0000
  C   C15       1.0  0.99101  0.29864  0.22945  1.0000
  C   C16       1.0  0.00899  0.70136  0.77054  1.0000
  C   C17       1.0  0.13836  0.20034  0.47857  1.0000
  C   C18       1.0  0.86164  0.79965  0.52143  1.0000
  C   C19       1.0  0.26553  0.12673  0.56683  1.0000
  C   C20       1.0  0.73447  0.87326  0.43317  1.0000
  C   C21       1.0  0.42810  0.18475  0.54072  1.0000
  C   C22       1.0  0.57190  0.81525  0.45929  1.0000
  C   C23       1.0  0.45577  0.31884  0.42334  1.0000
  C   C24       1.0  0.54423  0.68116  0.57667  1.0000
  C   C25       1.0  0.33084  0.38591  0.33259  1.0000
  C   C26       1.0  0.66916  0.61410  0.66742  1.0000
  C   C27       1.0  0.56605  0.10441  0.63844  1.0000
  C   C28       1.0  0.43395  0.89558  0.36157  1.0000
  N   N1        1.0  0.17395  0.32656  0.36122  1.0000
  N   N2        1.0  0.82605  0.67344  0.63878  1.0000
  O   O1        1.0  0.87281  0.11908  0.14309  1.0000
  O   O2        1.0  0.12719  0.88092  0.85691  1.0000
  O   O3        1.0  0.63796  0.31294  0.05642  1.0000
  O   O4        1.0  0.36204  0.68706  0.94358  1.0000
  O   O5        1.0  0.62519  0.82485  0.00573  1.0000
  O   O6        1.0  0.37481  0.17515  0.99427  1.0000
  O   O7        1.0  0.80999  0.12387  0.85474  1.0000
  O   O8        1.0  0.19001  0.87613  0.14526  1.0000
  O   O9        1.0  0.76978  0.85875  0.13759  1.0000
  O   O10       1.0  0.23022  0.14125  0.86241  1.0000
  O   O11       1.0  0.55281  0.96847  0.72283  1.0000
  O   O12       1.0  0.44718  0.03153  0.27717  1.0000
  O   O13       1.0  0.68427  0.17586  0.63006  1.0000
  O   O14       1.0  0.31574  0.82413  0.36993  1.0000
