data_image0
_chemical_formula_structural       Ca2H24C26N10Cl2O6
_chemical_formula_sum              "Ca2 H24 C26 N10 Cl2 O6"
_cell_length_a       7.95977
_cell_length_b       8.69596
_cell_length_c       11.2359
_cell_angle_alpha    95.7338
_cell_angle_beta     94.1549
_cell_angle_gamma    106.001

_space_group_name_H-M_alt    "P 1"
_space_group_IT_number       1

loop_
  _space_group_symop_operation_xyz
  'x, y, z'

loop_
  _atom_site_type_symbol
  _atom_site_label
  _atom_site_symmetry_multiplicity
  _atom_site_fract_x
  _atom_site_fract_y
  _atom_site_fract_z
  _atom_site_occupancy
  Ca  Ca1       1.0  0.47730  0.85688  0.24372  1.0000
  Ca  Ca2       1.0  0.52270  0.14312  0.75628  1.0000
  H   H1        1.0  0.58860  0.18558  0.34722  1.0000
  H   H2        1.0  0.41140  0.81442  0.65278  1.0000
  H   H3        1.0  0.66980  0.12480  0.46272  1.0000
  H   H4        1.0  0.33020  0.87521  0.53728  1.0000
  H   H5        1.0  0.83428  0.87417  0.18278  1.0000
  H   H6        1.0  0.16572  0.12581  0.81722  1.0000
  H   H7        1.0  0.72118  0.82281  0.05452  1.0000
  H   H8        1.0  0.27882  0.17719  0.94548  1.0000
  H   H9        1.0  0.26814  0.90520  0.98827  1.0000
  H   H10       1.0  0.73186  0.09480  0.01173  1.0000
  H   H11       1.0  0.07912  0.76667  0.80066  1.0000
  H   H12       1.0  0.92089  0.23333  0.19934  1.0000
  H   H13       1.0  0.99518  0.45766  0.76416  1.0000
  H   H14       1.0  0.00483  0.54234  0.23583  1.0000
  H   H15       1.0  0.11451  0.31657  0.91356  1.0000
  H   H16       1.0  0.88550  0.68343  0.08644  1.0000
  H   H17       1.0  0.71916  0.38374  0.46177  1.0000
  H   H18       1.0  0.28083  0.61626  0.53823  1.0000
  H   H19       1.0  0.92559  0.56234  0.62362  1.0000
  H   H20       1.0  0.07440  0.43765  0.37639  1.0000
  H   H21       1.0  0.96506  0.86515  0.63699  1.0000
  H   H22       1.0  0.03494  0.13485  0.36301  1.0000
  H   H23       1.0  0.79453  0.96404  0.48682  1.0000
  H   H24       1.0  0.20547  0.03597  0.51319  1.0000
  C   C1        1.0  0.23489  0.77489  0.96670  1.0000
  C   C2        1.0  0.76512  0.22511  0.03330  1.0000
  C   C3        1.0  0.12734  0.69591  0.86237  1.0000
  C   C4        1.0  0.87267  0.30409  0.13763  1.0000
  C   C5        1.0  0.08356  0.52853  0.84139  1.0000
  C   C6        1.0  0.91645  0.47148  0.15860  1.0000
  C   C7        1.0  0.15270  0.44720  0.92395  1.0000
  C   C8        1.0  0.84731  0.55280  0.07605  1.0000
  C   C9        1.0  0.26548  0.53482  0.02359  1.0000
  C   C10       1.0  0.73453  0.46519  0.97641  1.0000
  C   C11       1.0  0.34902  0.45363  0.11121  1.0000
  C   C12       1.0  0.65098  0.54637  0.88879  1.0000
  C   C13       1.0  0.40847  0.22417  0.17051  1.0000
  C   C14       1.0  0.59153  0.77583  0.82949  1.0000
  C   C15       1.0  0.52534  0.47486  0.28425  1.0000
  C   C16       1.0  0.47466  0.52514  0.71576  1.0000
  C   C17       1.0  0.64580  0.57867  0.38637  1.0000
  C   C18       1.0  0.35420  0.42132  0.61363  1.0000
  C   C19       1.0  0.73719  0.51269  0.46856  1.0000
  C   C20       1.0  0.26280  0.48731  0.53144  1.0000
  C   C21       1.0  0.85339  0.61429  0.56073  1.0000
  C   C22       1.0  0.14660  0.38570  0.43928  1.0000
  C   C23       1.0  0.87466  0.77893  0.56801  1.0000
  C   C24       1.0  0.12534  0.22107  0.43199  1.0000
  C   C25       1.0  0.77844  0.83532  0.48238  1.0000
  C   C26       1.0  0.22155  0.16467  0.51762  1.0000
  N   N1        1.0  0.30392  0.69727  0.04581  1.0000
  N   N2        1.0  0.69609  0.30273  0.95419  1.0000
  N   N3        1.0  0.44452  0.54976  0.20859  1.0000
  N   N4        1.0  0.55548  0.45024  0.79141  1.0000
  N   N5        1.0  0.32871  0.29581  0.08689  1.0000
  N   N6        1.0  0.67130  0.70419  0.91311  1.0000
  N   N7        1.0  0.50887  0.31776  0.27126  1.0000
  N   N8        1.0  0.49113  0.68225  0.72874  1.0000
  N   N9        1.0  0.66546  0.73924  0.39326  1.0000
  N   N10       1.0  0.33454  0.26077  0.60674  1.0000
  Cl  Cl1       1.0  0.18546  0.79158  0.35809  1.0000
  Cl  Cl2       1.0  0.81453  0.20841  0.64191  1.0000
  O   O1        1.0  0.39351  0.07562  0.15346  1.0000
  O   O2        1.0  0.60649  0.92438  0.84654  1.0000
  O   O3        1.0  0.62516  0.09294  0.37684  1.0000
  O   O4        1.0  0.37483  0.90706  0.62316  1.0000
  O   O5        1.0  0.73319  0.88841  0.13599  1.0000
  O   O6        1.0  0.26681  0.11159  0.86401  1.0000
