data_image0
_chemical_formula_structural       Co2H20C26O12
_chemical_formula_sum              "Co2 H20 C26 O12"
_cell_length_a       4.96201
_cell_length_b       9.21366
_cell_length_c       12.4493
_cell_angle_alpha    90.0001
_cell_angle_beta     96.0707
_cell_angle_gamma    89.9998

_space_group_name_H-M_alt    "P 1"
_space_group_IT_number       1

loop_
  _space_group_symop_operation_xyz
  'x, y, z'

loop_
  _atom_site_type_symbol
  _atom_site_label
  _atom_site_symmetry_multiplicity
  _atom_site_fract_x
  _atom_site_fract_y
  _atom_site_fract_z
  _atom_site_occupancy
  Co  Co1       1.0  0.30190  0.31368  0.04564  1.0000
  Co  Co2       1.0  0.69811  0.81368  0.95436  1.0000
  H   H1        1.0  0.09163  0.42283  0.36486  1.0000
  H   H2        1.0  0.90837  0.92284  0.63514  1.0000
  H   H3        1.0  0.07609  0.30326  0.74020  1.0000
  H   H4        1.0  0.92390  0.80326  0.25981  1.0000
  H   H5        1.0  0.67669  0.14178  0.74463  1.0000
  H   H6        1.0  0.32330  0.64178  0.25537  1.0000
  H   H7        1.0  0.40630  0.06749  0.57461  1.0000
  H   H8        1.0  0.59369  0.56749  0.42539  1.0000
  H   H9        1.0  0.33953  0.06844  0.37708  1.0000
  H   H10       1.0  0.66046  0.56844  0.62292  1.0000
  H   H11       1.0  0.21362  0.99618  0.24608  1.0000
  H   H12       1.0  0.78640  0.49618  0.75391  1.0000
  H   H13       1.0  0.42245  0.93494  0.14781  1.0000
  H   H14       1.0  0.57756  0.43495  0.85219  1.0000
  H   H15       1.0  0.70010  0.17797  0.96471  1.0000
  H   H16       1.0  0.29991  0.67797  0.03529  1.0000
  H   H17       1.0  0.42559  0.10291  0.91814  1.0000
  H   H18       1.0  0.57442  0.60291  0.08186  1.0000
  H   H19       1.0  0.19153  0.40440  0.56520  1.0000
  H   H20       1.0  0.80846  0.90440  0.43480  1.0000
  C   C1        1.0  0.84281  0.38141  0.17117  1.0000
  C   C2        1.0  0.15721  0.88142  0.82884  1.0000
  C   C3        1.0  0.77495  0.30808  0.27230  1.0000
  C   C4        1.0  0.22505  0.80809  0.72770  1.0000
  C   C5        1.0  0.92492  0.34663  0.36821  1.0000
  C   C6        1.0  0.07506  0.84663  0.63180  1.0000
  C   C7        1.0  0.86587  0.29234  0.46929  1.0000
  C   C8        1.0  0.13412  0.79234  0.53072  1.0000
  C   C9        1.0  0.95404  0.27624  0.66478  1.0000
  C   C10       1.0  0.04595  0.77625  0.33523  1.0000
  C   C11       1.0  0.72840  0.18263  0.66726  1.0000
  C   C12       1.0  0.27159  0.68263  0.33274  1.0000
  C   C13       1.0  0.57795  0.14103  0.57264  1.0000
  C   C14       1.0  0.42205  0.64103  0.42736  1.0000
  C   C15       1.0  0.64467  0.19288  0.47149  1.0000
  C   C16       1.0  0.35532  0.69288  0.52851  1.0000
  C   C17       1.0  0.50103  0.14756  0.37263  1.0000
  C   C18       1.0  0.49896  0.64756  0.62737  1.0000
  C   C19       1.0  0.56498  0.20250  0.27539  1.0000
  C   C20       1.0  0.43501  0.70251  0.72461  1.0000
  C   C21       1.0  0.28983  0.02373  0.16936  1.0000
  C   C22       1.0  0.71018  0.52373  0.83063  1.0000
  C   C23       1.0  0.04681  0.03427  0.08530  1.0000
  C   C24       1.0  0.95320  0.53428  0.91470  1.0000
  C   C25       1.0  0.01930  0.33153  0.56774  1.0000
  C   C26       1.0  0.98069  0.83153  0.43226  1.0000
  O   O1        1.0  0.08923  0.41120  0.16384  1.0000
  O   O2        1.0  0.91078  0.91121  0.83616  1.0000
  O   O3        1.0  0.44056  0.15746  0.17601  1.0000
  O   O4        1.0  0.55944  0.65746  0.82399  1.0000
  O   O5        1.0  0.00794  0.14986  0.02991  1.0000
  O   O6        1.0  0.99207  0.64986  0.97008  1.0000
  O   O7        1.0  0.89559  0.92320  0.07943  1.0000
  O   O8        1.0  0.10442  0.42320  0.92056  1.0000
  O   O9        1.0  0.50861  0.19918  0.93515  1.0000
  O   O10       1.0  0.49140  0.69918  0.06485  1.0000
  O   O11       1.0  0.64968  0.41673  0.09804  1.0000
  O   O12       1.0  0.35033  0.91672  0.90196  1.0000
