data_image0
_chemical_formula_structural       Cu3H16C28N2O14
_chemical_formula_sum              "Cu3 H16 C28 N2 O14"
_cell_length_a       7.84828
_cell_length_b       8.72025
_cell_length_c       9.35615
_cell_angle_alpha    84.9733
_cell_angle_beta     85.1835
_cell_angle_gamma    85.7988

_space_group_name_H-M_alt    "P 1"
_space_group_IT_number       1

loop_
  _space_group_symop_operation_xyz
  'x, y, z'

loop_
  _atom_site_type_symbol
  _atom_site_label
  _atom_site_symmetry_multiplicity
  _atom_site_fract_x
  _atom_site_fract_y
  _atom_site_fract_z
  _atom_site_occupancy
  Cu  Cu1       1.0  0.00000  0.50000  1.00000  1.0000
  Cu  Cu2       1.0  0.87841  0.84527  0.90000  1.0000
  Cu  Cu3       1.0  0.12158  0.15473  0.10000  1.0000
  H   H1        1.0  0.74638  0.66230  0.06428  1.0000
  H   H2        1.0  0.25362  0.33770  0.93572  1.0000
  H   H3        1.0  0.04753  0.83541  0.47109  1.0000
  H   H4        1.0  0.95247  0.16458  0.52891  1.0000
  H   H5        1.0  0.28681  0.54182  0.15621  1.0000
  H   H6        1.0  0.71319  0.45819  0.84379  1.0000
  H   H7        1.0  0.27801  0.38884  0.60965  1.0000
  H   H8        1.0  0.72199  0.61116  0.39034  1.0000
  H   H9        1.0  0.55923  0.44799  0.19742  1.0000
  H   H10       1.0  0.44077  0.55201  0.80258  1.0000
  H   H11       1.0  0.70774  0.21577  0.08802  1.0000
  H   H12       1.0  0.29226  0.78423  0.91198  1.0000
  H   H13       1.0  0.38438  0.93131  0.37936  1.0000
  H   H14       1.0  0.61562  0.06869  0.62064  1.0000
  H   H15       1.0  0.24220  0.17408  0.47418  1.0000
  H   H16       1.0  0.75780  0.82592  0.52582  1.0000
  C   C1        1.0  0.08265  0.63757  0.70536  1.0000
  C   C2        1.0  0.91736  0.36243  0.29464  1.0000
  C   C3        1.0  0.15389  0.61383  0.55431  1.0000
  C   C4        1.0  0.84611  0.38617  0.44569  1.0000
  C   C5        1.0  0.11735  0.72790  0.44423  1.0000
  C   C6        1.0  0.88265  0.27210  0.55577  1.0000
  C   C7        1.0  0.16471  0.70308  0.30060  1.0000
  C   C8        1.0  0.83529  0.29692  0.69940  1.0000
  C   C9        1.0  0.11077  0.81803  0.17992  1.0000
  C   C10       1.0  0.88923  0.18197  0.82008  1.0000
  C   C11       1.0  0.25726  0.56634  0.26801  1.0000
  C   C12       1.0  0.74275  0.43366  0.73199  1.0000
  C   C13       1.0  0.30003  0.45651  0.37904  1.0000
  C   C14       1.0  0.69997  0.54349  0.62095  1.0000
  C   C15       1.0  0.24791  0.47628  0.52285  1.0000
  C   C16       1.0  0.75209  0.52372  0.47715  1.0000
  C   C17       1.0  0.52437  0.33124  0.23117  1.0000
  C   C18       1.0  0.47563  0.66876  0.76883  1.0000
  C   C19       1.0  0.60520  0.20270  0.17349  1.0000
  C   C20       1.0  0.39480  0.79730  0.82651  1.0000
  C   C21       1.0  0.55547  0.05567  0.22439  1.0000
  C   C22       1.0  0.44454  0.94433  0.77561  1.0000
  C   C23       1.0  0.42751  0.04343  0.33754  1.0000
  C   C24       1.0  0.57249  0.95657  0.66245  1.0000
  C   C25       1.0  0.34797  0.17556  0.39164  1.0000
  C   C26       1.0  0.65203  0.82444  0.60836  1.0000
  C   C27       1.0  0.63899  0.91627  0.15266  1.0000
  C   C28       1.0  0.36101  0.08373  0.84734  1.0000
  N   N1        1.0  0.39532  0.31723  0.33716  1.0000
  N   N2        1.0  0.60468  0.68277  0.66284  1.0000
  O   O1        1.0  0.11241  0.52860  0.80128  1.0000
  O   O2        1.0  0.88760  0.47140  0.19872  1.0000
  O   O3        1.0  0.99736  0.76485  0.72273  1.0000
  O   O4        1.0  0.00264  0.23515  0.27727  1.0000
  O   O5        1.0  0.08083  0.95656  0.21474  1.0000
  O   O6        1.0  0.91917  0.04344  0.78526  1.0000
  O   O7        1.0  0.09827  0.76871  0.05881  1.0000
  O   O8        1.0  0.90173  0.23129  0.94119  1.0000
  O   O9        1.0  0.71144  0.95504  0.02797  1.0000
  O   O10       1.0  0.28856  0.04496  0.97203  1.0000
  O   O11       1.0  0.63033  0.78393  0.21591  1.0000
  O   O12       1.0  0.36967  0.21607  0.78409  1.0000
  O   O13       1.0  0.80092  0.64335  0.96760  1.0000
  O   O14       1.0  0.19908  0.35665  0.03240  1.0000
