data_image0
_chemical_formula_structural       Cd2H18C28N2O14
_chemical_formula_sum              "Cd2 H18 C28 N2 O14"
_cell_length_a       7.47749
_cell_length_b       10.225
_cell_length_c       10.7829
_cell_angle_alpha    118.277
_cell_angle_beta     91.72
_cell_angle_gamma    107.471

_space_group_name_H-M_alt    "P 1"
_space_group_IT_number       1

loop_
  _space_group_symop_operation_xyz
  'x, y, z'

loop_
  _atom_site_type_symbol
  _atom_site_label
  _atom_site_symmetry_multiplicity
  _atom_site_fract_x
  _atom_site_fract_y
  _atom_site_fract_z
  _atom_site_occupancy
  Cd  Cd1       1.0  0.85359  0.14036  0.04599  1.0000
  Cd  Cd2       1.0  0.14641  0.85964  0.95401  1.0000
  H   H1        1.0  0.84620  0.63156  0.04615  1.0000
  H   H2        1.0  0.15380  0.36844  0.95385  1.0000
  H   H3        1.0  0.44410  0.43415  0.24497  1.0000
  H   H4        1.0  0.55590  0.56584  0.75503  1.0000
  H   H5        1.0  0.47511  0.87579  0.27197  1.0000
  H   H6        1.0  0.52490  0.12421  0.72804  1.0000
  H   H7        1.0  0.47219  0.64555  0.49804  1.0000
  H   H8        1.0  0.52781  0.35444  0.50196  1.0000
  H   H9        1.0  0.23760  0.66797  0.66215  1.0000
  H   H10       1.0  0.76240  0.33204  0.33785  1.0000
  H   H11       1.0  0.90043  0.74810  0.39180  1.0000
  H   H12       1.0  0.09957  0.25190  0.60819  1.0000
  H   H13       1.0  0.13855  0.70438  0.22586  1.0000
  H   H14       1.0  0.86146  0.29562  0.77414  1.0000
  H   H15       1.0  0.70428  0.89980  0.74354  1.0000
  H   H16       1.0  0.29572  0.10020  0.25646  1.0000
  H   H17       1.0  0.54629  0.97723  0.81583  1.0000
  H   H18       1.0  0.45371  0.02277  0.18418  1.0000
  C   C1        1.0  0.72533  0.38571  0.09945  1.0000
  C   C2        1.0  0.27468  0.61429  0.90055  1.0000
  C   C3        1.0  0.65481  0.52147  0.14304  1.0000
  C   C4        1.0  0.34518  0.47852  0.85696  1.0000
  C   C5        1.0  0.73397  0.63991  0.10877  1.0000
  C   C6        1.0  0.26604  0.36009  0.89124  1.0000
  C   C7        1.0  0.66869  0.76733  0.15442  1.0000
  C   C8        1.0  0.33131  0.23267  0.84559  1.0000
  C   C9        1.0  0.74545  0.89412  0.11662  1.0000
  C   C10       1.0  0.25456  0.10589  0.88338  1.0000
  C   C11       1.0  0.50995  0.52944  0.22277  1.0000
  C   C12       1.0  0.49005  0.47055  0.77723  1.0000
  C   C13       1.0  0.44948  0.65809  0.26890  1.0000
  C   C14       1.0  0.55052  0.34191  0.73110  1.0000
  C   C15       1.0  0.52581  0.77679  0.23581  1.0000
  C   C16       1.0  0.47419  0.22320  0.76419  1.0000
  C   C17       1.0  0.33830  0.66030  0.47674  1.0000
  C   C18       1.0  0.66170  0.33970  0.52327  1.0000
  C   C19       1.0  0.20910  0.67586  0.56663  1.0000
  C   C20       1.0  0.79090  0.32414  0.43337  1.0000
  C   C21       1.0  0.04881  0.70789  0.53718  1.0000
  C   C22       1.0  0.95119  0.29211  0.46282  1.0000
  C   C23       1.0  0.02367  0.72247  0.41589  1.0000
  C   C24       1.0  0.97633  0.27753  0.58410  1.0000
  C   C25       1.0  0.15305  0.70169  0.32550  1.0000
  C   C26       1.0  0.84694  0.29830  0.67450  1.0000
  C   C27       1.0  0.90427  0.72615  0.63510  1.0000
  C   C28       1.0  0.09573  0.27386  0.36490  1.0000
  N   N1        1.0  0.30843  0.67251  0.35825  1.0000
  N   N2        1.0  0.69157  0.32748  0.64175  1.0000
  O   O1        1.0  0.64290  0.28309  0.13495  1.0000
  O   O2        1.0  0.35710  0.71691  0.86505  1.0000
  O   O3        1.0  0.86341  0.37981  0.03384  1.0000
  O   O4        1.0  0.13659  0.62018  0.96616  1.0000
  O   O5        1.0  0.87435  0.88986  0.04232  1.0000
  O   O6        1.0  0.12565  0.11015  0.95768  1.0000
  O   O7        1.0  0.67734  0.00537  0.16001  1.0000
  O   O8        1.0  0.32266  0.99463  0.83999  1.0000
  O   O9        1.0  0.77043  0.76503  0.60540  1.0000
  O   O10       1.0  0.22957  0.23498  0.39459  1.0000
  O   O11       1.0  0.92707  0.69751  0.73568  1.0000
  O   O12       1.0  0.07292  0.30250  0.26432  1.0000
  O   O13       1.0  0.68437  0.99951  0.81391  1.0000
  O   O14       1.0  0.31563  0.00049  0.18609  1.0000
