data_image0
_chemical_formula_structural       Zn2H18C28N2O14
_chemical_formula_sum              "Zn2 H18 C28 N2 O14"
_cell_length_a       6.71783
_cell_length_b       9.68205
_cell_length_c       12.2966
_cell_angle_alpha    103.769
_cell_angle_beta     93.8164
_cell_angle_gamma    103.792

_space_group_name_H-M_alt    "P 1"
_space_group_IT_number       1

loop_
  _space_group_symop_operation_xyz
  'x, y, z'

loop_
  _atom_site_type_symbol
  _atom_site_label
  _atom_site_symmetry_multiplicity
  _atom_site_fract_x
  _atom_site_fract_y
  _atom_site_fract_z
  _atom_site_occupancy
  Zn  Zn1       1.0  0.13093  0.47504  0.80650  1.0000
  Zn  Zn2       1.0  0.86906  0.52496  0.19350  1.0000
  H   H1        1.0  0.26731  0.33349  0.09308  1.0000
  H   H2        1.0  0.73269  0.66651  0.90691  1.0000
  H   H3        1.0  0.30434  0.92539  0.17146  1.0000
  H   H4        1.0  0.69566  0.07462  0.82855  1.0000
  H   H5        1.0  0.19909  0.94265  0.82641  1.0000
  H   H6        1.0  0.80092  0.05734  0.17360  1.0000
  H   H7        1.0  0.56560  0.13903  0.30274  1.0000
  H   H8        1.0  0.43440  0.86098  0.69726  1.0000
  H   H9        1.0  0.58271  0.25342  0.51251  1.0000
  H   H10       1.0  0.41728  0.74658  0.48749  1.0000
  H   H11       1.0  0.04516  0.40066  0.43471  1.0000
  H   H12       1.0  0.95483  0.59934  0.56529  1.0000
  H   H13       1.0  0.04515  0.28121  0.23094  1.0000
  H   H14       1.0  0.95484  0.71879  0.76905  1.0000
  H   H15       1.0  0.70311  0.42428  0.75612  1.0000
  H   H16       1.0  0.29688  0.57572  0.24388  1.0000
  H   H17       1.0  0.77342  0.39445  0.87412  1.0000
  H   H18       1.0  0.22658  0.60555  0.12588  1.0000
  C   C1        1.0  0.18751  0.22336  0.86293  1.0000
  C   C2        1.0  0.81249  0.77663  0.13706  1.0000
  C   C3        1.0  0.23136  0.14518  0.95089  1.0000
  C   C4        1.0  0.76864  0.85481  0.04911  1.0000
  C   C5        1.0  0.26469  0.21721  0.06593  1.0000
  C   C6        1.0  0.73531  0.78279  0.93407  1.0000
  C   C7        1.0  0.29092  0.13661  0.14347  1.0000
  C   C8        1.0  0.70909  0.86339  0.85653  1.0000
  C   C9        1.0  0.28989  0.98866  0.11036  1.0000
  C   C10       1.0  0.71012  0.01134  0.88965  1.0000
  C   C11       1.0  0.25807  0.91787  0.99500  1.0000
  C   C12       1.0  0.74195  0.08213  0.00500  1.0000
  C   C13       1.0  0.22772  0.99638  0.91650  1.0000
  C   C14       1.0  0.77229  0.00362  0.08350  1.0000
  C   C15       1.0  0.25064  0.75717  0.95921  1.0000
  C   C16       1.0  0.74938  0.24283  0.04079  1.0000
  C   C17       1.0  0.45475  0.19684  0.33807  1.0000
  C   C18       1.0  0.54525  0.80317  0.66193  1.0000
  C   C19       1.0  0.46154  0.26011  0.45206  1.0000
  C   C20       1.0  0.53845  0.73989  0.54794  1.0000
  C   C21       1.0  0.31266  0.33367  0.48962  1.0000
  C   C22       1.0  0.68733  0.66633  0.51038  1.0000
  C   C23       1.0  0.16255  0.34340  0.40965  1.0000
  C   C24       1.0  0.83744  0.65660  0.59035  1.0000
  C   C25       1.0  0.16165  0.27962  0.29658  1.0000
  C   C26       1.0  0.83835  0.72038  0.70341  1.0000
  C   C27       1.0  0.31509  0.40186  0.61381  1.0000
  C   C28       1.0  0.68489  0.59814  0.38618  1.0000
  N   N1        1.0  0.30518  0.20675  0.26244  1.0000
  N   N2        1.0  0.69482  0.79325  0.73756  1.0000
  O   O1        1.0  0.12815  0.15135  0.76282  1.0000
  O   O2        1.0  0.87185  0.84864  0.23718  1.0000
  O   O3        1.0  0.21214  0.36379  0.90378  1.0000
  O   O4        1.0  0.78786  0.63620  0.09622  1.0000
  O   O5        1.0  0.47592  0.42488  0.68005  1.0000
  O   O6        1.0  0.52407  0.57512  0.31995  1.0000
  O   O7        1.0  0.14536  0.43215  0.64035  1.0000
  O   O8        1.0  0.85464  0.56785  0.35965  1.0000
  O   O9        1.0  0.28372  0.69264  0.03215  1.0000
  O   O10       1.0  0.71630  0.30737  0.96786  1.0000
  O   O11       1.0  0.20934  0.69523  0.85123  1.0000
  O   O12       1.0  0.79066  0.30477  0.14878  1.0000
  O   O13       1.0  0.82141  0.44519  0.81499  1.0000
  O   O14       1.0  0.17859  0.55481  0.18501  1.0000
