data_image0
_chemical_formula_structural       Mn2H30C46N2O8F12
_chemical_formula_sum              "Mn2 H30 C46 N2 O8 F12"
_cell_length_a       7.37341
_cell_length_b       12.2809
_cell_length_c       14.4535
_cell_angle_alpha    105.683
_cell_angle_beta     104.849
_cell_angle_gamma    89.9943

_space_group_name_H-M_alt    "P 1"
_space_group_IT_number       1

loop_
  _space_group_symop_operation_xyz
  'x, y, z'

loop_
  _atom_site_type_symbol
  _atom_site_label
  _atom_site_symmetry_multiplicity
  _atom_site_fract_x
  _atom_site_fract_y
  _atom_site_fract_z
  _atom_site_occupancy
  Mn  Mn1       1.0  0.16550  0.00007  0.00010  1.0000
  Mn  Mn2       1.0  0.68049  0.00027  0.99994  1.0000
  H   H1        1.0  0.49810  0.67772  0.75425  1.0000
  H   H2        1.0  0.74443  0.32257  0.24644  1.0000
  H   H3        1.0  0.33052  0.49829  0.64133  1.0000
  H   H4        1.0  0.68919  0.50186  0.35907  1.0000
  H   H5        1.0  0.92979  0.52843  0.81737  1.0000
  H   H6        1.0  0.11231  0.47130  0.18204  1.0000
  H   H7        1.0  0.09347  0.71207  0.92583  1.0000
  H   H8        1.0  0.16810  0.28773  0.07383  1.0000
  H   H9        1.0  0.23048  0.34234  0.81601  1.0000
  H   H10       1.0  0.41395  0.65742  0.18389  1.0000
  H   H11       1.0  0.16064  0.22663  0.92025  1.0000
  H   H12       1.0  0.23981  0.77309  0.07952  1.0000
  H   H13       1.0  0.58314  0.17183  0.74746  1.0000
  H   H14       1.0  0.83541  0.82824  0.25202  1.0000
  H   H15       1.0  0.65227  0.28100  0.63858  1.0000
  H   H16       1.0  0.01349  0.71900  0.36101  1.0000
  H   H17       1.0  0.83848  0.85390  0.83296  1.0000
  H   H18       1.0  0.00587  0.14603  0.16694  1.0000
  H   H19       1.0  0.73713  0.78154  0.64728  1.0000
  H   H20       1.0  0.09023  0.21844  0.35257  1.0000
  H   H21       1.0  0.93993  0.83412  0.54808  1.0000
  H   H22       1.0  0.39242  0.16589  0.45213  1.0000
  H   H23       1.0  0.31579  0.02737  0.82567  1.0000
  H   H24       1.0  0.49102  0.97292  0.17481  1.0000
  H   H25       1.0  0.41936  0.95486  0.65564  1.0000
  H   H26       1.0  0.76455  0.04534  0.34518  1.0000
  H   H27       1.0  0.26907  0.06189  0.63090  1.0000
  H   H28       1.0  0.63887  0.93826  0.36971  1.0000
  H   H29       1.0  0.23077  0.92481  0.54459  1.0000
  H   H30       1.0  0.68689  0.07536  0.45603  1.0000
  C   C1        1.0  0.41182  0.81425  0.91474  1.0000
  C   C2        1.0  0.49798  0.18588  0.08557  1.0000
  C   C3        1.0  0.30986  0.70482  0.84866  1.0000
  C   C4        1.0  0.46174  0.29519  0.15156  1.0000
  C   C5        1.0  0.37358  0.64390  0.76762  1.0000
  C   C6        1.0  0.60636  0.35621  0.23281  1.0000
  C   C7        1.0  0.27851  0.54232  0.70432  1.0000
  C   C8        1.0  0.57425  0.45775  0.29593  1.0000
  C   C9        1.0  0.11903  0.49893  0.72215  1.0000
  C   C10       1.0  0.39678  0.50097  0.27774  1.0000
  C   C11       1.0  0.05421  0.56077  0.80286  1.0000
  C   C12       1.0  0.25136  0.43905  0.19682  1.0000
  C   C13       1.0  0.14747  0.66305  0.86501  1.0000
  C   C14       1.0  0.28282  0.33681  0.13483  1.0000
  C   C15       1.0  0.00409  0.38828  0.65516  1.0000
  C   C16       1.0  0.34887  0.61158  0.34464  1.0000
  C   C17       1.0  0.11636  0.30858  0.59003  1.0000
  C   C18       1.0  0.52643  0.69137  0.40989  1.0000
  C   C19       1.0  0.83264  0.42424  0.58361  1.0000
  C   C20       1.0  0.24908  0.57551  0.41607  1.0000
  C   C21       1.0  0.94711  0.32000  0.71940  1.0000
  C   C22       1.0  0.22736  0.67985  0.28034  1.0000
  C   C23       1.0  0.08837  0.30424  0.79979  1.0000
  C   C24       1.0  0.28806  0.69555  0.20001  1.0000
  C   C25       1.0  0.04897  0.24114  0.85984  1.0000
  C   C26       1.0  0.18854  0.75863  0.13985  1.0000
  C   C27       1.0  0.86583  0.19405  0.84162  1.0000
  C   C28       1.0  0.02373  0.80587  0.15799  1.0000
  C   C29       1.0  0.72482  0.20939  0.76145  1.0000
  C   C30       1.0  0.96311  0.79066  0.23816  1.0000
  C   C31       1.0  0.76504  0.27102  0.70030  1.0000
  C   C32       1.0  0.06447  0.72894  0.29934  1.0000
  C   C33       1.0  0.81946  0.12629  0.90476  1.0000
  C   C34       1.0  0.91400  0.87384  0.09495  1.0000
  C   C35       1.0  0.92159  0.87587  0.78722  1.0000
  C   C36       1.0  0.13483  0.12412  0.21280  1.0000
  C   C37       1.0  0.86630  0.83582  0.68391  1.0000
  C   C38       1.0  0.18288  0.16419  0.31610  1.0000
  C   C39       1.0  0.97949  0.86548  0.62928  1.0000
  C   C40       1.0  0.35075  0.13453  0.37092  1.0000
  C   C41       1.0  0.14491  0.93548  0.67857  1.0000
  C   C42       1.0  0.46700  0.06464  0.32179  1.0000
  C   C43       1.0  0.18856  0.97263  0.78279  1.0000
  C   C44       1.0  0.40650  0.02754  0.21756  1.0000
  C   C45       1.0  0.27271  0.97061  0.62419  1.0000
  C   C46       1.0  0.64927  0.02954  0.37645  1.0000
  N   N1        1.0  0.08051  0.94339  0.83576  1.0000
  N   N2        1.0  0.24534  0.05667  0.16443  1.0000
  O   O1        1.0  0.35604  0.86819  0.99042  1.0000
  O   O2        1.0  0.36645  0.13174  0.00980  1.0000
  O   O3        1.0  0.55172  0.85108  0.89224  1.0000
  O   O4        1.0  0.66066  0.14930  0.10811  1.0000
  O   O5        1.0  0.94428  0.11762  0.98286  1.0000
  O   O6        1.0  0.96062  0.88278  0.01700  1.0000
  O   O7        1.0  0.65547  0.07703  0.87964  1.0000
  O   O8        1.0  0.77524  0.92307  0.12009  1.0000
  F   F1        1.0  0.02506  0.20373  0.54521  1.0000
  F   F2        1.0  0.47977  0.79617  0.45467  1.0000
  F   F3        1.0  0.28862  0.29245  0.64590  1.0000
  F   F4        1.0  0.64275  0.70765  0.35418  1.0000
  F   F5        1.0  0.14778  0.34866  0.51585  1.0000
  F   F6        1.0  0.63228  0.65137  0.48414  1.0000
  F   F7        1.0  0.73183  0.33508  0.50880  1.0000
  F   F8        1.0  0.22290  0.66460  0.49078  1.0000
  F   F9        1.0  0.88913  0.49754  0.53914  1.0000
  F   F10       1.0  0.35019  0.50232  0.46069  1.0000
  F   F11       1.0  0.71057  0.47811  0.63411  1.0000
  F   F12       1.0  0.07646  0.52148  0.36534  1.0000
