data_image0
_chemical_formula_structural       Ag8H12C24S4Cl4O16
_chemical_formula_sum              "Ag8 H12 C24 S4 Cl4 O16"
_cell_length_a       6.09094
_cell_length_b       11.8234
_cell_length_c       11.756
_cell_angle_alpha    90.0007
_cell_angle_beta     89.9988
_cell_angle_gamma    91.4633

_space_group_name_H-M_alt    "P 1"
_space_group_IT_number       1

loop_
  _space_group_symop_operation_xyz
  'x, y, z'

loop_
  _atom_site_type_symbol
  _atom_site_label
  _atom_site_symmetry_multiplicity
  _atom_site_fract_x
  _atom_site_fract_y
  _atom_site_fract_z
  _atom_site_occupancy
  Ag  Ag1       1.0  0.78682  0.52822  0.85961  1.0000
  Ag  Ag2       1.0  0.71319  0.47178  0.35961  1.0000
  Ag  Ag3       1.0  0.21322  0.47178  0.14038  1.0000
  Ag  Ag4       1.0  0.28682  0.52822  0.64038  1.0000
  Ag  Ag5       1.0  0.88785  0.35438  0.65006  1.0000
  Ag  Ag6       1.0  0.61217  0.64563  0.15005  1.0000
  Ag  Ag7       1.0  0.11216  0.64563  0.34995  1.0000
  Ag  Ag8       1.0  0.38782  0.35438  0.84994  1.0000
  H   H1        1.0  0.41950  0.81302  0.27065  1.0000
  H   H2        1.0  0.08050  0.18697  0.77064  1.0000
  H   H3        1.0  0.58049  0.18699  0.72935  1.0000
  H   H4        1.0  0.91951  0.81302  0.22935  1.0000
  H   H5        1.0  0.20019  0.93781  0.39495  1.0000
  H   H6        1.0  0.29978  0.06219  0.89495  1.0000
  H   H7        1.0  0.79979  0.06218  0.60505  1.0000
  H   H8        1.0  0.70022  0.93782  0.10505  1.0000
  H   H9        1.0  0.52754  0.80544  0.68905  1.0000
  H   H10       1.0  0.97245  0.19456  0.18905  1.0000
  H   H11       1.0  0.47247  0.19456  0.31096  1.0000
  H   H12       1.0  0.02755  0.80544  0.81096  1.0000
  C   C1        1.0  0.62181  0.73553  0.52795  1.0000
  C   C2        1.0  0.87818  0.26447  0.02795  1.0000
  C   C3        1.0  0.37820  0.26447  0.47205  1.0000
  C   C4        1.0  0.12182  0.73552  0.97205  1.0000
  C   C5        1.0  0.59257  0.73299  0.40783  1.0000
  C   C6        1.0  0.90744  0.26702  0.90784  1.0000
  C   C7        1.0  0.40742  0.26701  0.59217  1.0000
  C   C8        1.0  0.09256  0.73299  0.09216  1.0000
  C   C9        1.0  0.43658  0.80837  0.36305  1.0000
  C   C10       1.0  0.06339  0.19162  0.86304  1.0000
  C   C11       1.0  0.56341  0.19163  0.63695  1.0000
  C   C12       1.0  0.93661  0.80837  0.13696  1.0000
  C   C13       1.0  0.31696  0.88028  0.43228  1.0000
  C   C14       1.0  0.18301  0.11973  0.93227  1.0000
  C   C15       1.0  0.68302  0.11972  0.56772  1.0000
  C   C16       1.0  0.81698  0.88028  0.06773  1.0000
  C   C17       1.0  0.34910  0.87833  0.54979  1.0000
  C   C18       1.0  0.15087  0.12166  0.04978  1.0000
  C   C19       1.0  0.65088  0.12167  0.45021  1.0000
  C   C20       1.0  0.84913  0.87833  0.95022  1.0000
  C   C21       1.0  0.50311  0.80787  0.59762  1.0000
  C   C22       1.0  0.99688  0.19213  0.09761  1.0000
  C   C23       1.0  0.49688  0.19213  0.40239  1.0000
  C   C24       1.0  0.00313  0.80786  0.90239  1.0000
  S   S1        1.0  0.79731  0.63996  0.59664  1.0000
  S   S2        1.0  0.70270  0.36005  0.09664  1.0000
  S   S3        1.0  0.20270  0.36005  0.40335  1.0000
  S   S4        1.0  0.29731  0.63995  0.90336  1.0000
  Cl  Cl1       1.0  0.19127  0.96106  0.63839  1.0000
  Cl  Cl2       1.0  0.30873  0.03894  0.13838  1.0000
  Cl  Cl3       1.0  0.80871  0.03894  0.36162  1.0000
  Cl  Cl4       1.0  0.69127  0.96105  0.86161  1.0000
  O   O1        1.0  0.79588  0.66853  0.71790  1.0000
  O   O2        1.0  0.70411  0.33147  0.21790  1.0000
  O   O3        1.0  0.20411  0.33147  0.28209  1.0000
  O   O4        1.0  0.29589  0.66853  0.78209  1.0000
  O   O5        1.0  0.69849  0.52474  0.57560  1.0000
  O   O6        1.0  0.80153  0.47526  0.07560  1.0000
  O   O7        1.0  0.30155  0.47526  0.42439  1.0000
  O   O8        1.0  0.19847  0.52474  0.92440  1.0000
  O   O9        1.0  0.01955  0.65231  0.54579  1.0000
  O   O10       1.0  0.48046  0.34769  0.04579  1.0000
  O   O11       1.0  0.98045  0.34770  0.45421  1.0000
  O   O12       1.0  0.51955  0.65230  0.95421  1.0000
  O   O13       1.0  0.70496  0.66636  0.33924  1.0000
  O   O14       1.0  0.79503  0.33365  0.83924  1.0000
  O   O15       1.0  0.29504  0.33365  0.66076  1.0000
  O   O16       1.0  0.20495  0.66635  0.16077  1.0000
