data_image0
_chemical_formula_structural       Ag8H20C24S4Br4O20
_chemical_formula_sum              "Ag8 H20 C24 S4 Br4 O20"
_cell_length_a       9.40492
_cell_length_b       9.57485
_cell_length_c       11.0334
_cell_angle_alpha    89.9999
_cell_angle_beta     90
_cell_angle_gamma    102.019

_space_group_name_H-M_alt    "P 1"
_space_group_IT_number       1

loop_
  _space_group_symop_operation_xyz
  'x, y, z'

loop_
  _atom_site_type_symbol
  _atom_site_label
  _atom_site_symmetry_multiplicity
  _atom_site_fract_x
  _atom_site_fract_y
  _atom_site_fract_z
  _atom_site_occupancy
  Ag  Ag1       1.0  0.05060  0.42923  0.36743  1.0000
  Ag  Ag2       1.0  0.44940  0.57078  0.86743  1.0000
  Ag  Ag3       1.0  0.94940  0.57078  0.63257  1.0000
  Ag  Ag4       1.0  0.55060  0.42922  0.13257  1.0000
  Ag  Ag5       1.0  0.11242  0.24711  0.62341  1.0000
  Ag  Ag6       1.0  0.38757  0.75289  0.12341  1.0000
  Ag  Ag7       1.0  0.88758  0.75289  0.37659  1.0000
  Ag  Ag8       1.0  0.61243  0.24711  0.87659  1.0000
  H   H1        1.0  0.12000  0.96268  0.65748  1.0000
  H   H2        1.0  0.38000  0.03732  0.15748  1.0000
  H   H3        1.0  0.88000  0.03732  0.34252  1.0000
  H   H4        1.0  0.62000  0.96268  0.84252  1.0000
  H   H5        1.0  0.12548  0.04375  0.78671  1.0000
  H   H6        1.0  0.37453  0.95625  0.28671  1.0000
  H   H7        1.0  0.87453  0.95625  0.21329  1.0000
  H   H8        1.0  0.62547  0.04375  0.71329  1.0000
  H   H9        1.0  0.62608  0.63277  0.33375  1.0000
  H   H10       1.0  0.87392  0.36724  0.83374  1.0000
  H   H11       1.0  0.37392  0.36723  0.66625  1.0000
  H   H12       1.0  0.12608  0.63277  0.16625  1.0000
  H   H13       1.0  0.36859  0.50744  0.30640  1.0000
  H   H14       1.0  0.13141  0.49256  0.80640  1.0000
  H   H15       1.0  0.63141  0.49256  0.69360  1.0000
  H   H16       1.0  0.86859  0.50744  0.19360  1.0000
  H   H17       1.0  0.46849  0.12916  0.46931  1.0000
  H   H18       1.0  0.03151  0.87084  0.96932  1.0000
  H   H19       1.0  0.53151  0.87084  0.53069  1.0000
  H   H20       1.0  0.96849  0.12916  0.03068  1.0000
  C   C1        1.0  0.64671  0.31028  0.45389  1.0000
  C   C2        1.0  0.85329  0.68972  0.95389  1.0000
  C   C3        1.0  0.35329  0.68972  0.54611  1.0000
  C   C4        1.0  0.14671  0.31028  0.04611  1.0000
  C   C5        1.0  0.69721  0.45356  0.41457  1.0000
  C   C6        1.0  0.80279  0.54644  0.91457  1.0000
  C   C7        1.0  0.30279  0.54644  0.58543  1.0000
  C   C8        1.0  0.19721  0.45356  0.08543  1.0000
  C   C9        1.0  0.59256  0.52025  0.35901  1.0000
  C   C10       1.0  0.90744  0.47975  0.85901  1.0000
  C   C11       1.0  0.40744  0.47975  0.64099  1.0000
  C   C12       1.0  0.09256  0.52025  0.14099  1.0000
  C   C13       1.0  0.44797  0.44918  0.34145  1.0000
  C   C14       1.0  0.05203  0.55082  0.84145  1.0000
  C   C15       1.0  0.55202  0.55082  0.65855  1.0000
  C   C16       1.0  0.94797  0.44918  0.15855  1.0000
  C   C17       1.0  0.40465  0.30759  0.38100  1.0000
  C   C18       1.0  0.09535  0.69241  0.88100  1.0000
  C   C19       1.0  0.59534  0.69241  0.61900  1.0000
  C   C20       1.0  0.90465  0.30759  0.11900  1.0000
  C   C21       1.0  0.50236  0.23855  0.43752  1.0000
  C   C22       1.0  0.99764  0.76145  0.93752  1.0000
  C   C23       1.0  0.49764  0.76145  0.56248  1.0000
  C   C24       1.0  0.00236  0.23855  0.06248  1.0000
  S   S1        1.0  0.76606  0.21359  0.52382  1.0000
  S   S2        1.0  0.73394  0.78641  0.02383  1.0000
  S   S3        1.0  0.23393  0.78641  0.47617  1.0000
  S   S4        1.0  0.26607  0.21359  0.97617  1.0000
  Br  Br1       1.0  0.20802  0.20866  0.35751  1.0000
  Br  Br2       1.0  0.29198  0.79134  0.85752  1.0000
  Br  Br3       1.0  0.79198  0.79134  0.64249  1.0000
  Br  Br4       1.0  0.70802  0.20866  0.14249  1.0000
  O   O1        1.0  0.83882  0.30175  0.62489  1.0000
  O   O2        1.0  0.66117  0.69825  0.12489  1.0000
  O   O3        1.0  0.16117  0.69825  0.37511  1.0000
  O   O4        1.0  0.33883  0.30175  0.87511  1.0000
  O   O5        1.0  0.08216  0.03562  0.70405  1.0000
  O   O6        1.0  0.41784  0.96438  0.20405  1.0000
  O   O7        1.0  0.91784  0.96438  0.29595  1.0000
  O   O8        1.0  0.58216  0.03562  0.79595  1.0000
  O   O9        1.0  0.87177  0.19191  0.42928  1.0000
  O   O10       1.0  0.62823  0.80809  0.92928  1.0000
  O   O11       1.0  0.12823  0.80809  0.57072  1.0000
  O   O12       1.0  0.37177  0.19191  0.07072  1.0000
  O   O13       1.0  0.67573  0.07832  0.56503  1.0000
  O   O14       1.0  0.82427  0.92167  0.06503  1.0000
  O   O15       1.0  0.32427  0.92168  0.43497  1.0000
  O   O16       1.0  0.17573  0.07833  0.93497  1.0000
  O   O17       1.0  0.83356  0.52444  0.42884  1.0000
  O   O18       1.0  0.66644  0.47556  0.92884  1.0000
  O   O19       1.0  0.16644  0.47556  0.57116  1.0000
  O   O20       1.0  0.33356  0.52444  0.07116  1.0000
