data_image0
_chemical_formula_structural       Ag8H20C24S4Cl4O20
_chemical_formula_sum              "Ag8 H20 C24 S4 Cl4 O20"
_cell_length_a       9.23628
_cell_length_b       9.52669
_cell_length_c       10.9969
_cell_angle_alpha    90
_cell_angle_beta     90
_cell_angle_gamma    101.002

_space_group_name_H-M_alt    "P 1"
_space_group_IT_number       1

loop_
  _space_group_symop_operation_xyz
  'x, y, z'

loop_
  _atom_site_type_symbol
  _atom_site_label
  _atom_site_symmetry_multiplicity
  _atom_site_fract_x
  _atom_site_fract_y
  _atom_site_fract_z
  _atom_site_occupancy
  Ag  Ag1       1.0  0.54917  0.43130  0.63629  1.0000
  Ag  Ag2       1.0  0.95083  0.56870  0.13629  1.0000
  Ag  Ag3       1.0  0.45083  0.56870  0.36371  1.0000
  Ag  Ag4       1.0  0.04917  0.43130  0.86371  1.0000
  Ag  Ag5       1.0  0.61944  0.24511  0.37897  1.0000
  Ag  Ag6       1.0  0.88055  0.75489  0.87897  1.0000
  Ag  Ag7       1.0  0.38056  0.75489  0.62103  1.0000
  Ag  Ag8       1.0  0.11944  0.24511  0.12103  1.0000
  H   H1        1.0  0.61511  0.95675  0.34577  1.0000
  H   H2        1.0  0.88489  0.04325  0.84577  1.0000
  H   H3        1.0  0.38489  0.04325  0.65423  1.0000
  H   H4        1.0  0.11511  0.95675  0.15423  1.0000
  H   H5        1.0  0.63087  0.03980  0.21648  1.0000
  H   H6        1.0  0.86913  0.96020  0.71648  1.0000
  H   H7        1.0  0.36913  0.96020  0.78352  1.0000
  H   H8        1.0  0.13087  0.03980  0.28352  1.0000
  H   H9        1.0  0.11765  0.63480  0.66277  1.0000
  H   H10       1.0  0.38235  0.36520  0.16278  1.0000
  H   H11       1.0  0.88235  0.36520  0.33723  1.0000
  H   H12       1.0  0.61765  0.63480  0.83723  1.0000
  H   H13       1.0  0.86044  0.50609  0.69750  1.0000
  H   H14       1.0  0.63956  0.49391  0.19750  1.0000
  H   H15       1.0  0.13956  0.49391  0.30250  1.0000
  H   H16       1.0  0.36044  0.50609  0.80250  1.0000
  H   H17       1.0  0.97019  0.12687  0.53684  1.0000
  H   H18       1.0  0.52981  0.87313  0.03684  1.0000
  H   H19       1.0  0.02981  0.87313  0.46316  1.0000
  H   H20       1.0  0.47019  0.12687  0.96316  1.0000
  C   C1        1.0  0.14640  0.31100  0.54561  1.0000
  C   C2        1.0  0.35360  0.68900  0.04561  1.0000
  C   C3        1.0  0.85360  0.68900  0.45439  1.0000
  C   C4        1.0  0.64640  0.31100  0.95439  1.0000
  C   C5        1.0  0.19374  0.45588  0.58153  1.0000
  C   C6        1.0  0.30626  0.54412  0.08153  1.0000
  C   C7        1.0  0.80626  0.54412  0.41847  1.0000
  C   C8        1.0  0.69374  0.45588  0.91847  1.0000
  C   C9        1.0  0.08711  0.52126  0.64020  1.0000
  C   C10       1.0  0.41289  0.47874  0.14020  1.0000
  C   C11       1.0  0.91288  0.47874  0.35980  1.0000
  C   C12       1.0  0.58711  0.52126  0.85980  1.0000
  C   C13       1.0  0.94300  0.44798  0.66305  1.0000
  C   C14       1.0  0.55700  0.55202  0.16305  1.0000
  C   C15       1.0  0.05700  0.55202  0.33696  1.0000
  C   C16       1.0  0.44300  0.44797  0.83696  1.0000
  C   C17       1.0  0.90167  0.30512  0.62523  1.0000
  C   C18       1.0  0.59833  0.69488  0.12523  1.0000
  C   C19       1.0  0.09833  0.69488  0.37477  1.0000
  C   C20       1.0  0.40167  0.30512  0.87477  1.0000
  C   C21       1.0  0.00246  0.23727  0.56676  1.0000
  C   C22       1.0  0.49754  0.76273  0.06676  1.0000
  C   C23       1.0  0.99754  0.76273  0.43324  1.0000
  C   C24       1.0  0.50246  0.23727  0.93324  1.0000
  S   S1        1.0  0.26886  0.21509  0.47305  1.0000
  S   S2        1.0  0.23114  0.78491  0.97305  1.0000
  S   S3        1.0  0.73114  0.78491  0.52695  1.0000
  S   S4        1.0  0.76886  0.21509  0.02695  1.0000
  Cl  Cl1       1.0  0.72224  0.21430  0.64994  1.0000
  Cl  Cl2       1.0  0.77777  0.78570  0.14994  1.0000
  Cl  Cl3       1.0  0.27776  0.78570  0.35006  1.0000
  Cl  Cl4       1.0  0.22223  0.21430  0.85006  1.0000
  O   O1        1.0  0.58416  0.03424  0.29805  1.0000
  O   O2        1.0  0.91584  0.96576  0.79805  1.0000
  O   O3        1.0  0.41584  0.96576  0.70195  1.0000
  O   O4        1.0  0.08416  0.03424  0.20196  1.0000
  O   O5        1.0  0.38272  0.19883  0.56513  1.0000
  O   O6        1.0  0.11729  0.80117  0.06513  1.0000
  O   O7        1.0  0.61728  0.80117  0.43487  1.0000
  O   O8        1.0  0.88272  0.19883  0.93487  1.0000
  O   O9        1.0  0.18114  0.07707  0.43631  1.0000
  O   O10       1.0  0.31886  0.92293  0.93631  1.0000
  O   O11       1.0  0.81886  0.92293  0.56369  1.0000
  O   O12       1.0  0.68114  0.07707  0.06369  1.0000
  O   O13       1.0  0.33469  0.30194  0.36874  1.0000
  O   O14       1.0  0.16532  0.69806  0.86874  1.0000
  O   O15       1.0  0.66531  0.69806  0.63126  1.0000
  O   O16       1.0  0.83469  0.30194  0.13126  1.0000
  O   O17       1.0  0.32926  0.52977  0.56188  1.0000
  O   O18       1.0  0.17074  0.47023  0.06188  1.0000
  O   O19       1.0  0.67074  0.47023  0.43813  1.0000
  O   O20       1.0  0.82926  0.52977  0.93812  1.0000
