data_image0
_chemical_formula_structural       Cd2H38C58N8O8
_chemical_formula_sum              "Cd2 H38 C58 N8 O8"
_cell_length_a       8.63712
_cell_length_b       10.2374
_cell_length_c       14.4288
_cell_angle_alpha    84.9631
_cell_angle_beta     77.1521
_cell_angle_gamma    71.3397

_space_group_name_H-M_alt    "P 1"
_space_group_IT_number       1

loop_
  _space_group_symop_operation_xyz
  'x, y, z'

loop_
  _atom_site_type_symbol
  _atom_site_label
  _atom_site_symmetry_multiplicity
  _atom_site_fract_x
  _atom_site_fract_y
  _atom_site_fract_z
  _atom_site_occupancy
  Cd  Cd1       1.0  0.15553  0.83379  0.44558  1.0000
  Cd  Cd2       1.0  0.84446  0.16621  0.55442  1.0000
  H   H1        1.0  0.16157  0.30376  0.44246  1.0000
  H   H2        1.0  0.83843  0.69624  0.55754  1.0000
  H   H3        1.0  0.08587  0.61084  0.22073  1.0000
  H   H4        1.0  0.91412  0.38916  0.77927  1.0000
  H   H5        1.0  0.40841  0.89154  0.23082  1.0000
  H   H6        1.0  0.59159  0.10846  0.76918  1.0000
  H   H7        1.0  0.15720  0.61550  0.07033  1.0000
  H   H8        1.0  0.84280  0.38450  0.92967  1.0000
  H   H9        1.0  0.84031  0.68440  0.34344  1.0000
  H   H10       1.0  0.15969  0.31561  0.65656  1.0000
  H   H11       1.0  0.26200  0.63026  0.64801  1.0000
  H   H12       1.0  0.73800  0.36974  0.35199  1.0000
  H   H13       1.0  0.06768  0.20306  0.18157  1.0000
  H   H14       1.0  0.93232  0.79694  0.81843  1.0000
  H   H15       1.0  0.56267  0.63788  0.46123  1.0000
  H   H16       1.0  0.43733  0.36213  0.53877  1.0000
  H   H17       1.0  0.92367  0.86753  0.27218  1.0000
  H   H18       1.0  0.07633  0.13247  0.72782  1.0000
  H   H19       1.0  0.08847  0.96799  0.14777  1.0000
  H   H20       1.0  0.91153  0.03201  0.85223  1.0000
  H   H21       1.0  0.77893  0.94939  0.95342  1.0000
  H   H22       1.0  0.22107  0.05061  0.04658  1.0000
  H   H23       1.0  0.51805  0.35298  0.87712  1.0000
  H   H24       1.0  0.48196  0.64702  0.12287  1.0000
  H   H25       1.0  0.61517  0.84450  0.08007  1.0000
  H   H26       1.0  0.38483  0.15550  0.91993  1.0000
  H   H27       1.0  0.90148  0.31221  0.08697  1.0000
  H   H28       1.0  0.09852  0.68779  0.91303  1.0000
  H   H29       1.0  0.40596  0.85896  0.85240  1.0000
  H   H30       1.0  0.59404  0.14104  0.14760  1.0000
  H   H31       1.0  0.35022  0.00259  0.54101  1.0000
  H   H32       1.0  0.64978  0.99741  0.45899  1.0000
  H   H33       1.0  0.45618  0.73986  0.00181  1.0000
  H   H34       1.0  0.54381  0.26014  0.99819  1.0000
  H   H35       1.0  0.47666  0.47206  0.72647  1.0000
  H   H36       1.0  0.52334  0.52794  0.27352  1.0000
  H   H37       1.0  0.50883  0.90942  0.69365  1.0000
  H   H38       1.0  0.49117  0.09058  0.30635  1.0000
  C   C1        1.0  0.13802  0.33370  0.37138  1.0000
  C   C2        1.0  0.86198  0.66630  0.62861  1.0000
  C   C3        1.0  0.09576  0.50534  0.24528  1.0000
  C   C4        1.0  0.90423  0.49466  0.75472  1.0000
  C   C5        1.0  0.12780  0.46706  0.33631  1.0000
  C   C6        1.0  0.87220  0.53294  0.66369  1.0000
  C   C7        1.0  0.48728  0.82429  0.27570  1.0000
  C   C8        1.0  0.51272  0.17571  0.72430  1.0000
  C   C9        1.0  0.08629  0.56494  0.04064  1.0000
  C   C10       1.0  0.91371  0.43506  0.95936  1.0000
  C   C11       1.0  0.71078  0.71608  0.33677  1.0000
  C   C12       1.0  0.28922  0.28392  0.66323  1.0000
  C   C13       1.0  0.30667  0.71916  0.63848  1.0000
  C   C14       1.0  0.69332  0.28084  0.36152  1.0000
  C   C15       1.0  0.08409  0.27929  0.22350  1.0000
  C   C16       1.0  0.91591  0.72071  0.77650  1.0000
  C   C17       1.0  0.07296  0.41298  0.18705  1.0000
  C   C18       1.0  0.92704  0.58702  0.81295  1.0000
  C   C19       1.0  0.57076  0.69676  0.39504  1.0000
  C   C20       1.0  0.42924  0.30324  0.60496  1.0000
  C   C21       1.0  0.03572  0.45703  0.09182  1.0000
  C   C22       1.0  0.96428  0.54297  0.90818  1.0000
  C   C23       1.0  0.11508  0.23987  0.31481  1.0000
  C   C24       1.0  0.88492  0.76013  0.68519  1.0000
  C   C25       1.0  0.89190  0.88458  0.20223  1.0000
  C   C26       1.0  0.10810  0.11542  0.79777  1.0000
  C   C27       1.0  0.98648  0.94184  0.12947  1.0000
  C   C28       1.0  0.01352  0.05816  0.87053  1.0000
  C   C29       1.0  0.81230  0.93326  0.02297  1.0000
  C   C30       1.0  0.18770  0.06674  0.97703  1.0000
  C   C31       1.0  0.75633  0.85076  0.18519  1.0000
  C   C32       1.0  0.24367  0.14924  0.81481  1.0000
  C   C33       1.0  0.49378  0.46419  0.87371  1.0000
  C   C34       1.0  0.50622  0.53581  0.12629  1.0000
  C   C35       1.0  0.71741  0.87452  0.09488  1.0000
  C   C36       1.0  0.28259  0.12547  0.90512  1.0000
  C   C37       1.0  0.94788  0.39345  0.04894  1.0000
  C   C38       1.0  0.05212  0.60656  0.95106  1.0000
  C   C39       1.0  0.94939  0.96876  0.03819  1.0000
  C   C40       1.0  0.05061  0.03124  0.96181  1.0000
  C   C41       1.0  0.43415  0.74736  0.85753  1.0000
  C   C42       1.0  0.56585  0.25264  0.14247  1.0000
  C   C43       1.0  0.14608  0.57206  0.39625  1.0000
  C   C44       1.0  0.85392  0.42794  0.60375  1.0000
  C   C45       1.0  0.12219  0.09708  0.35117  1.0000
  C   C46       1.0  0.87781  0.90292  0.64883  1.0000
  C   C47       1.0  0.35592  0.91155  0.58628  1.0000
  C   C48       1.0  0.64407  0.08845  0.41373  1.0000
  C   C49       1.0  0.48908  0.53564  0.95390  1.0000
  C   C50       1.0  0.51091  0.46436  0.04610  1.0000
  C   C51       1.0  0.46110  0.67867  0.94262  1.0000
  C   C52       1.0  0.53890  0.32133  0.05738  1.0000
  C   C53       1.0  0.46876  0.53095  0.78764  1.0000
  C   C54       1.0  0.53124  0.46905  0.21236  1.0000
  C   C55       1.0  0.43655  0.67369  0.77992  1.0000
  C   C56       1.0  0.56345  0.32631  0.22008  1.0000
  C   C57       1.0  0.43232  0.86823  0.66201  1.0000
  C   C58       1.0  0.56768  0.13177  0.33799  1.0000
  N   N1        1.0  0.27783  0.81799  0.57291  1.0000
  N   N2        1.0  0.72217  0.18201  0.42709  1.0000
  N   N3        1.0  0.65690  0.79642  0.26041  1.0000
  N   N4        1.0  0.34310  0.20358  0.73959  1.0000
  N   N5        1.0  0.43250  0.76580  0.35663  1.0000
  N   N6        1.0  0.56750  0.23420  0.64337  1.0000
  N   N7        1.0  0.39989  0.74626  0.69514  1.0000
  N   N8        1.0  0.60011  0.25375  0.30486  1.0000
  O   O1        1.0  0.13570  0.00514  0.29453  1.0000
  O   O2        1.0  0.86431  0.99486  0.70547  1.0000
  O   O3        1.0  0.06343  0.69855  0.37755  1.0000
  O   O4        1.0  0.93657  0.30145  0.62245  1.0000
  O   O5        1.0  0.23501  0.53685  0.45741  1.0000
  O   O6        1.0  0.76499  0.46315  0.54260  1.0000
  O   O7        1.0  0.11603  0.07248  0.44146  1.0000
  O   O8        1.0  0.88397  0.92752  0.55854  1.0000
