data_image0
_chemical_formula_structural       Ni2H24C32N20O8
_chemical_formula_sum              "Ni2 H24 C32 N20 O8"
_cell_length_a       8.70508
_cell_length_b       9.75011
_cell_length_c       11.9302
_cell_angle_alpha    112.52
_cell_angle_beta     111.558
_cell_angle_gamma    89.525

_space_group_name_H-M_alt    "P 1"
_space_group_IT_number       1

loop_
  _space_group_symop_operation_xyz
  'x, y, z'

loop_
  _atom_site_type_symbol
  _atom_site_label
  _atom_site_symmetry_multiplicity
  _atom_site_fract_x
  _atom_site_fract_y
  _atom_site_fract_z
  _atom_site_occupancy
  Ni  Ni1       1.0  0.54845  0.24947  0.99966  1.0000
  Ni  Ni2       1.0  0.45156  0.75054  0.00035  1.0000
  H   H1        1.0  0.29049  0.26828  0.16258  1.0000
  H   H2        1.0  0.12872  0.22932  0.83690  1.0000
  H   H3        1.0  0.70951  0.73172  0.83742  1.0000
  H   H4        1.0  0.87126  0.77069  0.16309  1.0000
  H   H5        1.0  0.09276  0.15440  0.04908  1.0000
  H   H6        1.0  0.04478  0.34505  0.95075  1.0000
  H   H7        1.0  0.90727  0.84556  0.95092  1.0000
  H   H8        1.0  0.95516  0.65492  0.04923  1.0000
  H   H9        1.0  0.55568  0.25798  0.58052  1.0000
  H   H10       1.0  0.97684  0.24099  0.41990  1.0000
  H   H11       1.0  0.44436  0.74202  0.41950  1.0000
  H   H12       1.0  0.02315  0.75900  0.58008  1.0000
  H   H13       1.0  0.65979  0.31334  0.82041  1.0000
  H   H14       1.0  0.84229  0.18603  0.18018  1.0000
  H   H15       1.0  0.34026  0.68665  0.17961  1.0000
  H   H16       1.0  0.15770  0.81396  0.81980  1.0000
  H   H17       1.0  0.25429  0.03950  0.76371  1.0000
  H   H18       1.0  0.48896  0.46061  0.23535  1.0000
  H   H19       1.0  0.74572  0.96053  0.23631  1.0000
  H   H20       1.0  0.51102  0.53938  0.76463  1.0000
  H   H21       1.0  0.13276  0.96989  0.52021  1.0000
  H   H22       1.0  0.61054  0.53083  0.47895  1.0000
  H   H23       1.0  0.86725  0.03014  0.47981  1.0000
  H   H24       1.0  0.38944  0.46915  0.52103  1.0000
  C   C1        1.0  0.30021  0.03870  0.03586  1.0000
  C   C2        1.0  0.26374  0.45889  0.96299  1.0000
  C   C3        1.0  0.69984  0.96128  0.96416  1.0000
  C   C4        1.0  0.73621  0.54113  0.03701  1.0000
  C   C5        1.0  0.21926  0.15559  0.11684  1.0000
  C   C6        1.0  0.10293  0.34257  0.88259  1.0000
  C   C7        1.0  0.78077  0.84440  0.88316  1.0000
  C   C8        1.0  0.89702  0.65744  0.11740  1.0000
  C   C9        1.0  0.25606  0.09201  0.39318  1.0000
  C   C10       1.0  0.86205  0.40737  0.60650  1.0000
  C   C11       1.0  0.74397  0.90800  0.60684  1.0000
  C   C12       1.0  0.13792  0.59261  0.39348  1.0000
  C   C13       1.0  0.33146  0.11349  0.53095  1.0000
  C   C14       1.0  0.80020  0.38622  0.46882  1.0000
  C   C15       1.0  0.66857  0.88653  0.46907  1.0000
  C   C16       1.0  0.19978  0.61377  0.53116  1.0000
  C   C17       1.0  0.48457  0.20730  0.61700  1.0000
  C   C18       1.0  0.86860  0.29208  0.38312  1.0000
  C   C19       1.0  0.51546  0.79270  0.38302  1.0000
  C   C20       1.0  0.13138  0.70790  0.61686  1.0000
  C   C21       1.0  0.54266  0.23970  0.75067  1.0000
  C   C22       1.0  0.79362  0.25992  0.24946  1.0000
  C   C23       1.0  0.45737  0.76031  0.24935  1.0000
  C   C24       1.0  0.20637  0.74008  0.75053  1.0000
  C   C25       1.0  0.31519  0.08664  0.71870  1.0000
  C   C26       1.0  0.59584  0.41346  0.28063  1.0000
  C   C27       1.0  0.68483  0.91338  0.28132  1.0000
  C   C28       1.0  0.40415  0.58653  0.71935  1.0000
  C   C29       1.0  0.24907  0.04799  0.58355  1.0000
  C   C30       1.0  0.66443  0.45230  0.41586  1.0000
  C   C31       1.0  0.75096  0.95204  0.41647  1.0000
  C   C32       1.0  0.33555  0.54768  0.58412  1.0000
  N   N1        1.0  0.32166  0.16186  0.33944  1.0000
  N   N2        1.0  0.98226  0.33688  0.66022  1.0000
  N   N3        1.0  0.67837  0.83814  0.66058  1.0000
  N   N4        1.0  0.01769  0.66311  0.33976  1.0000
  N   N5        1.0  0.20315  0.11916  0.21911  1.0000
  N   N6        1.0  0.98370  0.37955  0.78040  1.0000
  N   N7        1.0  0.79688  0.88083  0.78090  1.0000
  N   N8        1.0  0.01625  0.62045  0.21958  1.0000
  N   N9        1.0  0.07180  0.02692  0.19598  1.0000
  N   N10       1.0  0.87440  0.47233  0.80348  1.0000
  N   N11       1.0  0.92824  0.97307  0.80403  1.0000
  N   N12       1.0  0.12556  0.52768  0.19650  1.0000
  N   N13       1.0  0.10316  0.00929  0.30597  1.0000
  N   N14       1.0  0.79544  0.49037  0.69355  1.0000
  N   N15       1.0  0.89687  0.99071  0.69405  1.0000
  N   N16       1.0  0.20452  0.50963  0.30643  1.0000
  N   N17       1.0  0.45677  0.18503  0.80239  1.0000
  N   N18       1.0  0.65510  0.31478  0.19722  1.0000
  N   N19       1.0  0.54325  0.81498  0.19763  1.0000
  N   N20       1.0  0.34490  0.68521  0.80277  1.0000
  O   O1        1.0  0.35571  0.07595  0.96629  1.0000
  O   O2        1.0  0.39096  0.42101  0.03174  1.0000
  O   O3        1.0  0.64436  0.92406  0.03372  1.0000
  O   O4        1.0  0.60898  0.57899  0.96826  1.0000
  O   O5        1.0  0.29333  0.91134  0.04100  1.0000
  O   O6        1.0  0.24960  0.58668  0.95952  1.0000
  O   O7        1.0  0.70672  0.08867  0.95901  1.0000
  O   O8        1.0  0.75035  0.41334  0.04049  1.0000
