data_image0
_chemical_formula_structural       Cu4P12H48C52S6Br4
_chemical_formula_sum              "Cu4 P12 H48 C52 S6 Br4"
_cell_length_a       9.57585
_cell_length_b       13.0642
_cell_length_c       13.8199
_cell_angle_alpha    65.6718
_cell_angle_beta     82.5694
_cell_angle_gamma    88.775

_space_group_name_H-M_alt    "P 1"
_space_group_IT_number       1

loop_
  _space_group_symop_operation_xyz
  'x, y, z'

loop_
  _atom_site_type_symbol
  _atom_site_label
  _atom_site_symmetry_multiplicity
  _atom_site_fract_x
  _atom_site_fract_y
  _atom_site_fract_z
  _atom_site_occupancy
  Cu  Cu1       1.0  0.87243  0.22245  0.09395  1.0000
  Cu  Cu2       1.0  0.12757  0.77754  0.90604  1.0000
  Cu  Cu3       1.0  0.61805  0.08483  0.23313  1.0000
  Cu  Cu4       1.0  0.38193  0.91518  0.76687  1.0000
  P   P1        1.0  0.58498  0.92839  0.38380  1.0000
  P   P2        1.0  0.41502  0.07162  0.61620  1.0000
  P   P3        1.0  0.87106  0.38850  0.95478  1.0000
  P   P4        1.0  0.12895  0.61150  0.04521  1.0000
  P   P5        1.0  0.08255  0.14904  0.11932  1.0000
  P   P6        1.0  0.91744  0.85095  0.88067  1.0000
  P   P7        1.0  0.40618  0.11341  0.17332  1.0000
  P   P8        1.0  0.59380  0.88659  0.82668  1.0000
  P   P9        1.0  0.32587  0.96102  0.15607  1.0000
  P   P10       1.0  0.67412  0.03898  0.84393  1.0000
  P   P11       1.0  0.39700  0.11817  0.00905  1.0000
  P   P12       1.0  0.60299  0.88182  0.99096  1.0000
  H   H1        1.0  0.44986  0.87512  0.56203  1.0000
  H   H2        1.0  0.55015  0.12489  0.43797  1.0000
  H   H3        1.0  0.36759  0.97807  0.45791  1.0000
  H   H4        1.0  0.63241  0.02193  0.54209  1.0000
  H   H5        1.0  0.64744  0.69599  0.53061  1.0000
  H   H6        1.0  0.35255  0.30402  0.46939  1.0000
  H   H7        1.0  0.86447  0.61423  0.61010  1.0000
  H   H8        1.0  0.13551  0.38578  0.38991  1.0000
  H   H9        1.0  0.07608  0.73661  0.57622  1.0000
  H   H10       1.0  0.92391  0.26339  0.42379  1.0000
  H   H11       1.0  0.07673  0.93974  0.45230  1.0000
  H   H12       1.0  0.92328  0.06026  0.54769  1.0000
  H   H13       1.0  0.86279  0.02086  0.36904  1.0000
  H   H14       1.0  0.13723  0.97915  0.63094  1.0000
  H   H15       1.0  0.30176  0.80713  0.47203  1.0000
  H   H16       1.0  0.69824  0.19288  0.52797  1.0000
  H   H17       1.0  0.18600  0.66387  0.43265  1.0000
  H   H18       1.0  0.81400  0.33615  0.56735  1.0000
  H   H19       1.0  0.31573  0.58500  0.31184  1.0000
  H   H20       1.0  0.68425  0.41501  0.68818  1.0000
  H   H21       1.0  0.56187  0.65090  0.23042  1.0000
  H   H22       1.0  0.43812  0.34909  0.76960  1.0000
  H   H23       1.0  0.67600  0.80012  0.26343  1.0000
  H   H24       1.0  0.32399  0.19988  0.73658  1.0000
  H   H25       1.0  0.92864  0.58651  0.90658  1.0000
  H   H26       1.0  0.07137  0.41349  0.09342  1.0000
  H   H27       1.0  0.84558  0.51530  0.03886  1.0000
  H   H28       1.0  0.15444  0.48469  0.96115  1.0000
  H   H29       1.0  0.58709  0.29869  0.04717  1.0000
  H   H30       1.0  0.41292  0.70129  0.95282  1.0000
  H   H31       1.0  0.35149  0.36529  0.99537  1.0000
  H   H32       1.0  0.64852  0.63468  0.00461  1.0000
  H   H33       1.0  0.33349  0.53898  0.82900  1.0000
  H   H34       1.0  0.66651  0.46101  0.17100  1.0000
  H   H35       1.0  0.54858  0.64728  0.71923  1.0000
  H   H36       1.0  0.45142  0.35272  0.28078  1.0000
  H   H37       1.0  0.78414  0.58122  0.77147  1.0000
  H   H38       1.0  0.21586  0.41879  0.22855  1.0000
  H   H39       1.0  0.89436  0.24355  0.84477  1.0000
  H   H40       1.0  0.10565  0.75645  0.15523  1.0000
  H   H41       1.0  0.03485  0.25348  0.67653  1.0000
  H   H42       1.0  0.96518  0.74651  0.32348  1.0000
  H   H43       1.0  0.20435  0.41457  0.57035  1.0000
  H   H44       1.0  0.79568  0.58541  0.42966  1.0000
  H   H45       1.0  0.23030  0.56697  0.63152  1.0000
  H   H46       1.0  0.76972  0.43302  0.36848  1.0000
  H   H47       1.0  0.08547  0.56195  0.79380  1.0000
  H   H48       1.0  0.91454  0.43806  0.20619  1.0000
  C   C1        1.0  0.46924  0.95321  0.48871  1.0000
  C   C2        1.0  0.53076  0.04679  0.51130  1.0000
  C   C3        1.0  0.73998  0.86456  0.44662  1.0000
  C   C4        1.0  0.26002  0.13544  0.55338  1.0000
  C   C5        1.0  0.74105  0.74970  0.51465  1.0000
  C   C6        1.0  0.25895  0.25031  0.48535  1.0000
  C   C7        1.0  0.86246  0.70387  0.55953  1.0000
  C   C8        1.0  0.13754  0.29613  0.44047  1.0000
  C   C9        1.0  0.98267  0.77229  0.53883  1.0000
  C   C10       1.0  0.01732  0.22772  0.46117  1.0000
  C   C11       1.0  0.98261  0.88612  0.47058  1.0000
  C   C12       1.0  0.01740  0.11388  0.52941  1.0000
  C   C13       1.0  0.86221  0.93218  0.42393  1.0000
  C   C14       1.0  0.13780  0.06783  0.57606  1.0000
  C   C15       1.0  0.49750  0.81334  0.37085  1.0000
  C   C16       1.0  0.50250  0.18667  0.62915  1.0000
  C   C17       1.0  0.35945  0.77399  0.41850  1.0000
  C   C18       1.0  0.64054  0.22603  0.58151  1.0000
  C   C19       1.0  0.29427  0.69234  0.39693  1.0000
  C   C20       1.0  0.70571  0.30768  0.60307  1.0000
  C   C21       1.0  0.36678  0.64793  0.32947  1.0000
  C   C22       1.0  0.63320  0.35208  0.67054  1.0000
  C   C23       1.0  0.50511  0.68559  0.28302  1.0000
  C   C24       1.0  0.49488  0.31442  0.71698  1.0000
  C   C25       1.0  0.56948  0.76865  0.30239  1.0000
  C   C26       1.0  0.43051  0.23136  0.69761  1.0000
  C   C27       1.0  0.92869  0.50820  0.97946  1.0000
  C   C28       1.0  0.07132  0.49179  0.02054  1.0000
  C   C29       1.0  0.70015  0.43434  0.91163  1.0000
  C   C30       1.0  0.29986  0.56566  0.08837  1.0000
  C   C31       1.0  0.57809  0.37405  0.97445  1.0000
  C   C32       1.0  0.42192  0.62594  0.02554  1.0000
  C   C33       1.0  0.44616  0.41162  0.94508  1.0000
  C   C34       1.0  0.55384  0.58836  0.05491  1.0000
  C   C35       1.0  0.43595  0.50864  0.85254  1.0000
  C   C36       1.0  0.56406  0.49136  0.14746  1.0000
  C   C37       1.0  0.55749  0.56983  0.78992  1.0000
  C   C38       1.0  0.44251  0.43017  0.21009  1.0000
  C   C39       1.0  0.68933  0.53286  0.81948  1.0000
  C   C40       1.0  0.31067  0.46714  0.18052  1.0000
  C   C41       1.0  0.97894  0.40205  0.83095  1.0000
  C   C42       1.0  0.02108  0.59795  0.16905  1.0000
  C   C43       1.0  0.96601  0.31561  0.79662  1.0000
  C   C44       1.0  0.03402  0.68438  0.20338  1.0000
  C   C45       1.0  0.04541  0.32096  0.70253  1.0000
  C   C46       1.0  0.95461  0.67903  0.29748  1.0000
  C   C47       1.0  0.14052  0.41147  0.64280  1.0000
  C   C48       1.0  0.85951  0.58852  0.35721  1.0000
  C   C49       1.0  0.15492  0.49693  0.67698  1.0000
  C   C50       1.0  0.84510  0.50306  0.32302  1.0000
  C   C51       1.0  0.07350  0.49305  0.76996  1.0000
  C   C52       1.0  0.92651  0.50694  0.23003  1.0000
  S   S1        1.0  0.22100  0.18989  0.20728  1.0000
  S   S2        1.0  0.77897  0.81011  0.79271  1.0000
  S   S3        1.0  0.10680  0.97301  0.18015  1.0000
  S   S4        1.0  0.89320  0.02698  0.81985  1.0000
  S   S5        1.0  0.20783  0.19871  0.96905  1.0000
  S   S6        1.0  0.79216  0.80128  0.03095  1.0000
  Br  Br1       1.0  0.75237  0.06424  0.07838  1.0000
  Br  Br2       1.0  0.24757  0.93578  0.92160  1.0000
  Br  Br3       1.0  0.74924  0.23280  0.25978  1.0000
  Br  Br4       1.0  0.25073  0.76723  0.74018  1.0000
