data_image0
_chemical_formula_structural       Zn2H16C24N4O8
_chemical_formula_sum              "Zn2 H16 C24 N4 O8"
_cell_length_a       7.85981
_cell_length_b       7.85977
_cell_length_c       10.8945
_cell_angle_alpha    103.83
_cell_angle_beta     103.829
_cell_angle_gamma    109.717

_space_group_name_H-M_alt    "P 1"
_space_group_IT_number       1

loop_
  _space_group_symop_operation_xyz
  'x, y, z'

loop_
  _atom_site_type_symbol
  _atom_site_label
  _atom_site_symmetry_multiplicity
  _atom_site_fract_x
  _atom_site_fract_y
  _atom_site_fract_z
  _atom_site_occupancy
  Zn  Zn1       1.0  0.55495  0.55501  0.99997  1.0000
  Zn  Zn2       1.0  0.80501  0.30496  0.49998  1.0000
  H   H1        1.0  0.54964  0.93604  0.03695  1.0000
  H   H2        1.0  0.89908  0.51285  0.96305  1.0000
  H   H3        1.0  0.76285  0.64908  0.46306  1.0000
  H   H4        1.0  0.18604  0.29962  0.53695  1.0000
  H   H5        1.0  0.47142  0.03160  0.65833  1.0000
  H   H6        1.0  0.37309  0.81296  0.34176  1.0000
  H   H7        1.0  0.06299  0.12311  0.84176  1.0000
  H   H8        1.0  0.28160  0.22143  0.15833  1.0000
  H   H9        1.0  0.45857  0.70058  0.55572  1.0000
  H   H10       1.0  0.14472  0.90298  0.44425  1.0000
  H   H11       1.0  0.15300  0.89474  0.94425  1.0000
  H   H12       1.0  0.95058  0.20856  0.05573  1.0000
  H   H13       1.0  0.50469  0.50863  0.70499  1.0000
  H   H14       1.0  0.80353  0.79979  0.29498  1.0000
  H   H15       1.0  0.04980  0.55353  0.79498  1.0000
  H   H16       1.0  0.75863  0.25468  0.20500  1.0000
  C   C1        1.0  0.53357  0.88973  0.93058  1.0000
  C   C2        1.0  0.95904  0.60311  0.06942  1.0000
  C   C3        1.0  0.85311  0.70905  0.56943  1.0000
  C   C4        1.0  0.13973  0.28356  0.43058  1.0000
  C   C5        1.0  0.51118  0.00665  0.85541  1.0000
  C   C6        1.0  0.15110  0.65581  0.14465  1.0000
  C   C7        1.0  0.90583  0.90111  0.64466  1.0000
  C   C8        1.0  0.25664  0.26118  0.35541  1.0000
  C   C9        1.0  0.48582  0.94055  0.71829  1.0000
  C   C10       1.0  0.22215  0.76757  0.28177  1.0000
  C   C11       1.0  0.01759  0.97216  0.78177  1.0000
  C   C12       1.0  0.19055  0.23583  0.21829  1.0000
  C   C13       1.0  0.47980  0.75826  0.66234  1.0000
  C   C14       1.0  0.09579  0.81760  0.33764  1.0000
  C   C15       1.0  0.06763  0.84580  0.83765  1.0000
  C   C16       1.0  0.00826  0.22980  0.16235  1.0000
  C   C17       1.0  0.50568  0.65069  0.74436  1.0000
  C   C18       1.0  0.90619  0.76142  0.25563  1.0000
  C   C19       1.0  0.01143  0.65621  0.75564  1.0000
  C   C20       1.0  0.90069  0.25568  0.24436  1.0000
  C   C21       1.0  0.51122  0.19578  0.92526  1.0000
  C   C22       1.0  0.27017  0.58583  0.07469  1.0000
  C   C23       1.0  0.83584  0.02017  0.57470  1.0000
  C   C24       1.0  0.44578  0.26122  0.42527  1.0000
  N   N1        1.0  0.53357  0.71703  0.87713  1.0000
  N   N2        1.0  0.83979  0.65654  0.12285  1.0000
  N   N3        1.0  0.90655  0.58980  0.62286  1.0000
  N   N4        1.0  0.96703  0.28357  0.37713  1.0000
  O   O1        1.0  0.52660  0.31655  0.86209  1.0000
  O   O2        1.0  0.45419  0.66464  0.13761  1.0000
  O   O3        1.0  0.91463  0.20420  0.63762  1.0000
  O   O4        1.0  0.56655  0.27660  0.36210  1.0000
  O   O5        1.0  0.49911  0.22947  0.04092  1.0000
  O   O6        1.0  0.18789  0.45762  0.95924  1.0000
  O   O7        1.0  0.70763  0.93789  0.45924  1.0000
  O   O8        1.0  0.47946  0.24911  0.54092  1.0000
