data_image0
_chemical_formula_structural       Pr4H28C24O32
_chemical_formula_sum              "Pr4 H28 C24 O32"
_cell_length_a       8.57847
_cell_length_b       9.26453
_cell_length_c       14.7884
_cell_angle_alpha    90.0021
_cell_angle_beta     90.0004
_cell_angle_gamma    114.563

_space_group_name_H-M_alt    "P 1"
_space_group_IT_number       1

loop_
  _space_group_symop_operation_xyz
  'x, y, z'

loop_
  _atom_site_type_symbol
  _atom_site_label
  _atom_site_symmetry_multiplicity
  _atom_site_fract_x
  _atom_site_fract_y
  _atom_site_fract_z
  _atom_site_occupancy
  Pr  Pr1       1.0  0.20555  0.19770  0.26327  1.0000
  Pr  Pr2       1.0  0.29444  0.80228  0.76327  1.0000
  Pr  Pr3       1.0  0.79445  0.80230  0.73674  1.0000
  Pr  Pr4       1.0  0.70554  0.19771  0.23673  1.0000
  H   H1        1.0  0.15641  0.10414  0.07287  1.0000
  H   H2        1.0  0.34356  0.89585  0.57288  1.0000
  H   H3        1.0  0.84360  0.89590  0.92715  1.0000
  H   H4        1.0  0.65645  0.10412  0.42714  1.0000
  H   H5        1.0  0.96517  0.06478  0.09743  1.0000
  H   H6        1.0  0.53481  0.93521  0.59743  1.0000
  H   H7        1.0  0.03482  0.93521  0.90257  1.0000
  H   H8        1.0  0.46520  0.06477  0.40258  1.0000
  H   H9        1.0  0.16593  0.99555  0.41216  1.0000
  H   H10       1.0  0.33408  0.00446  0.91217  1.0000
  H   H11       1.0  0.83408  0.00447  0.58784  1.0000
  H   H12       1.0  0.66591  0.99552  0.08782  1.0000
  H   H13       1.0  0.24768  0.16079  0.46144  1.0000
  H   H14       1.0  0.25236  0.83920  0.96145  1.0000
  H   H15       1.0  0.75230  0.83919  0.53858  1.0000
  H   H16       1.0  0.74768  0.16080  0.03858  1.0000
  H   H17       1.0  0.66324  0.48282  0.96869  1.0000
  H   H18       1.0  0.83671  0.51710  0.46869  1.0000
  H   H19       1.0  0.33677  0.51714  0.03131  1.0000
  H   H20       1.0  0.16325  0.48294  0.53131  1.0000
  H   H21       1.0  0.81798  0.60183  0.31996  1.0000
  H   H22       1.0  0.68204  0.39819  0.81997  1.0000
  H   H23       1.0  0.18205  0.39820  0.68005  1.0000
  H   H24       1.0  0.31795  0.60181  0.18002  1.0000
  H   H25       1.0  0.58733  0.78358  0.30629  1.0000
  H   H26       1.0  0.91272  0.21647  0.80630  1.0000
  H   H27       1.0  0.41271  0.21646  0.69370  1.0000
  H   H28       1.0  0.08727  0.78353  0.19369  1.0000
  C   C1        1.0  0.70459  0.76590  0.31309  1.0000
  C   C2        1.0  0.79543  0.23412  0.81309  1.0000
  C   C3        1.0  0.29542  0.23410  0.68692  1.0000
  C   C4        1.0  0.20456  0.76589  0.18691  1.0000
  C   C5        1.0  0.50317  0.33833  0.08057  1.0000
  C   C6        1.0  0.99679  0.66163  0.58058  1.0000
  C   C7        1.0  0.49684  0.66165  0.91942  1.0000
  C   C8        1.0  0.00319  0.33838  0.41940  1.0000
  C   C9        1.0  0.86803  0.90893  0.30613  1.0000
  C   C10       1.0  0.63199  0.09109  0.80612  1.0000
  C   C11       1.0  0.13198  0.09107  0.69388  1.0000
  C   C12       1.0  0.36800  0.90892  0.19388  1.0000
  C   C13       1.0  0.53669  0.47582  0.30912  1.0000
  C   C14       1.0  0.96332  0.52419  0.80914  1.0000
  C   C15       1.0  0.46332  0.52418  0.69088  1.0000
  C   C16       1.0  0.03667  0.47580  0.19085  1.0000
  C   C17       1.0  0.70024  0.61957  0.31736  1.0000
  C   C18       1.0  0.79977  0.38044  0.81738  1.0000
  C   C19       1.0  0.29977  0.38043  0.68264  1.0000
  C   C20       1.0  0.20022  0.61956  0.18262  1.0000
  C   C21       1.0  0.54775  0.45948  0.00795  1.0000
  C   C22       1.0  0.95223  0.54051  0.50795  1.0000
  C   C23       1.0  0.45227  0.54052  0.99205  1.0000
  C   C24       1.0  0.04775  0.45952  0.49203  1.0000
  O   O1        1.0  0.60224  0.26830  0.09239  1.0000
  O   O2        1.0  0.89772  0.73166  0.59241  1.0000
  O   O3        1.0  0.39778  0.73168  0.90759  1.0000
  O   O4        1.0  0.10226  0.26836  0.40757  1.0000
  O   O5        1.0  0.36904  0.31255  0.12675  1.0000
  O   O6        1.0  0.13092  0.68740  0.62676  1.0000
  O   O7        1.0  0.63098  0.68741  0.87325  1.0000
  O   O8        1.0  0.86905  0.31260  0.37323  1.0000
  O   O9        1.0  0.01018  0.90719  0.32921  1.0000
  O   O10       1.0  0.48984  0.09284  0.82920  1.0000
  O   O11       1.0  0.98983  0.09282  0.67079  1.0000
  O   O12       1.0  0.51015  0.90717  0.17080  1.0000
  O   O13       1.0  0.39399  0.48551  0.30768  1.0000
  O   O14       1.0  0.10603  0.51451  0.80773  1.0000
  O   O15       1.0  0.60603  0.51451  0.69231  1.0000
  O   O16       1.0  0.89396  0.48547  0.19228  1.0000
  O   O17       1.0  0.86413  0.03441  0.27127  1.0000
  O   O18       1.0  0.63589  0.96560  0.77127  1.0000
  O   O19       1.0  0.13586  0.96559  0.72874  1.0000
  O   O20       1.0  0.36410  0.03440  0.22874  1.0000
  O   O21       1.0  0.54337  0.33937  0.30083  1.0000
  O   O22       1.0  0.95665  0.66064  0.80083  1.0000
  O   O23       1.0  0.45662  0.66062  0.69916  1.0000
  O   O24       1.0  0.04337  0.33936  0.19915  1.0000
  O   O25       1.0  0.06709  0.04784  0.11693  1.0000
  O   O26       1.0  0.43288  0.95210  0.61694  1.0000
  O   O27       1.0  0.93290  0.95214  0.88307  1.0000
  O   O28       1.0  0.56714  0.04789  0.38306  1.0000
  O   O29       1.0  0.27670  0.08460  0.42736  1.0000
  O   O30       1.0  0.22332  0.91541  0.92739  1.0000
  O   O31       1.0  0.72330  0.91544  0.57262  1.0000
  O   O32       1.0  0.77668  0.08456  0.07262  1.0000
