data_image0
_chemical_formula_structural       Zn4H28C42N12O10F12
_chemical_formula_sum              "Zn4 H28 C42 N12 O10 F12"
_cell_length_a       7.09864
_cell_length_b       10.0921
_cell_length_c       17.6415
_cell_angle_alpha    73.3708
_cell_angle_beta     88.3737
_cell_angle_gamma    84.311

_space_group_name_H-M_alt    "P 1"
_space_group_IT_number       1

loop_
  _space_group_symop_operation_xyz
  'x, y, z'

loop_
  _atom_site_type_symbol
  _atom_site_label
  _atom_site_symmetry_multiplicity
  _atom_site_fract_x
  _atom_site_fract_y
  _atom_site_fract_z
  _atom_site_occupancy
  Zn  Zn1       1.0  0.17099  0.33540  0.95961  1.0000
  Zn  Zn2       1.0  0.67108  0.29527  0.04029  1.0000
  Zn  Zn3       1.0  0.28467  0.74303  0.16977  1.0000
  Zn  Zn4       1.0  0.78454  0.91272  0.83027  1.0000
  H   H1        1.0  0.08906  0.01023  0.03954  1.0000
  H   H2        1.0  0.58863  0.04997  0.96035  1.0000
  H   H3        1.0  0.42600  0.67591  0.41400  1.0000
  H   H4        1.0  0.92598  0.08978  0.58600  1.0000
  H   H5        1.0  0.56223  0.22532  0.71026  1.0000
  H   H6        1.0  0.06235  0.93606  0.28943  1.0000
  H   H7        1.0  0.12057  0.55387  0.43720  1.0000
  H   H8        1.0  0.62055  0.99107  0.56291  1.0000
  H   H9        1.0  0.61073  0.96663  0.15536  1.0000
  H   H10       1.0  0.11040  0.12198  0.84458  1.0000
  H   H11       1.0  0.77851  0.33398  0.60416  1.0000
  H   H12       1.0  0.27828  0.93821  0.39572  1.0000
  H   H13       1.0  0.81479  0.66722  0.71030  1.0000
  H   H14       1.0  0.31492  0.37771  0.28986  1.0000
  H   H15       1.0  0.58771  0.56171  0.81209  1.0000
  H   H16       1.0  0.08796  0.37439  0.18797  1.0000
  H   H17       1.0  0.58164  0.63044  0.54378  1.0000
  H   H18       1.0  0.08155  0.17379  0.45620  1.0000
  H   H19       1.0  0.89126  0.73522  0.19218  1.0000
  H   H20       1.0  0.39114  0.92707  0.80783  1.0000
  H   H21       1.0  0.96212  0.88894  0.17361  1.0000
  H   H22       1.0  0.46191  0.06229  0.82632  1.0000
  H   H23       1.0  0.10897  0.66083  0.85519  1.0000
  H   H24       1.0  0.60906  0.51614  0.14474  1.0000
  H   H25       1.0  0.96438  0.59789  0.30938  1.0000
  H   H26       1.0  0.46433  0.90729  0.69072  1.0000
  H   H27       1.0  0.55526  0.65597  0.94658  1.0000
  H   H28       1.0  0.05503  0.60241  0.05366  1.0000
  C   C1        1.0  0.22354  0.03131  0.05869  1.0000
  C   C2        1.0  0.72316  0.09009  0.94123  1.0000
  C   C3        1.0  0.86190  0.58720  0.50056  1.0000
  C   C4        1.0  0.36185  0.08751  0.49948  1.0000
  C   C5        1.0  0.42304  0.32598  0.83128  1.0000
  C   C6        1.0  0.92345  0.15772  0.16852  1.0000
  C   C7        1.0  0.81515  0.50795  0.64932  1.0000
  C   C8        1.0  0.31513  0.15737  0.35073  1.0000
  C   C9        1.0  0.13549  0.46443  0.59705  1.0000
  C   C10       1.0  0.63540  0.06104  0.40298  1.0000
  C   C11       1.0  0.57807  0.64827  0.41977  1.0000
  C   C12       1.0  0.07807  0.06790  0.58028  1.0000
  C   C13       1.0  0.56252  0.38630  0.76897  1.0000
  C   C14       1.0  0.06283  0.15578  0.23087  1.0000
  C   C15       1.0  0.00962  0.71215  0.58215  1.0000
  C   C16       1.0  0.50992  0.29398  0.41793  1.0000
  C   C17       1.0  0.61902  0.32167  0.71045  1.0000
  C   C18       1.0  0.11915  0.03253  0.28936  1.0000
  C   C19       1.0  0.96820  0.57972  0.43349  1.0000
  C   C20       1.0  0.46815  0.01317  0.56661  1.0000
  C   C21       1.0  0.48714  0.00862  0.11861  1.0000
  C   C22       1.0  0.98681  0.12723  0.88132  1.0000
  C   C23       1.0  0.95245  0.56761  0.58180  1.0000
  C   C24       1.0  0.45249  0.14916  0.41826  1.0000
  C   C25       1.0  0.74178  0.38287  0.65083  1.0000
  C   C26       1.0  0.24170  0.03389  0.34910  1.0000
  C   C27       1.0  0.76135  0.57077  0.70880  1.0000
  C   C28       1.0  0.26147  0.27982  0.29128  1.0000
  C   C29       1.0  0.63412  0.51116  0.76712  1.0000
  C   C30       1.0  0.13429  0.27875  0.23289  1.0000
  C   C31       1.0  0.66615  0.62227  0.49264  1.0000
  C   C32       1.0  0.16606  0.11458  0.50738  1.0000
  C   C33       1.0  0.68376  0.64102  0.35270  1.0000
  C   C34       1.0  0.18371  0.99369  0.64738  1.0000
  C   C35       1.0  0.98127  0.62627  0.88689  1.0000
  C   C36       1.0  0.48127  0.51330  0.11310  1.0000
  C   C37       1.0  0.87966  0.60581  0.36054  1.0000
  C   C38       1.0  0.37961  0.96631  0.63955  1.0000
  C   C39       1.0  0.70022  0.62380  0.93397  1.0000
  C   C40       1.0  0.20008  0.55773  0.06617  1.0000
  C   C41       1.0  0.58779  0.66981  0.27445  1.0000
  C   C42       1.0  0.08767  0.94418  0.72561  1.0000
  N   N1        1.0  0.29263  0.15442  0.03565  1.0000
  N   N2        1.0  0.79238  0.19012  0.96428  1.0000
  N   N3        1.0  0.34056  0.93664  0.11083  1.0000
  N   N4        1.0  0.84015  0.04754  0.88910  1.0000
  N   N5        1.0  0.96302  0.49800  0.93208  1.0000
  N   N6        1.0  0.46299  0.43023  0.06791  1.0000
  N   N7        1.0  0.78316  0.49528  0.96234  1.0000
  N   N8        1.0  0.28304  0.45768  0.03773  1.0000
  N   N9        1.0  0.81888  0.70969  0.88636  1.0000
  N   N10       1.0  0.31883  0.59608  0.11371  1.0000
  N   N11       1.0  0.46332  0.13968  0.07386  1.0000
  N   N12       1.0  0.96310  0.21349  0.92608  1.0000
  O   O1        1.0  0.37502  0.20545  0.83961  1.0000
  O   O2        1.0  0.87543  0.04546  0.16026  1.0000
  O   O3        1.0  0.35751  0.40382  0.87436  1.0000
  O   O4        1.0  0.85790  0.27861  0.12540  1.0000
  O   O5        1.0  0.00378  0.79008  0.17388  1.0000
  O   O6        1.0  0.50366  0.96368  0.82609  1.0000
  O   O7        1.0  0.40459  0.68340  0.27515  1.0000
  O   O8        1.0  0.90448  0.95855  0.72490  1.0000
  O   O9        1.0  0.68313  0.68021  0.21154  1.0000
  O   O10       1.0  0.18302  0.89158  0.78850  1.0000
  F   F1        1.0  0.11553  0.77046  0.51790  1.0000
  F   F2        1.0  0.61621  0.28784  0.48210  1.0000
  F   F3        1.0  0.28986  0.51903  0.55678  1.0000
  F   F4        1.0  0.79000  0.07543  0.44310  1.0000
  F   F5        1.0  0.85378  0.80295  0.58054  1.0000
  F   F6        1.0  0.35424  0.38321  0.41973  1.0000
  F   F7        1.0  0.11125  0.34860  0.57545  1.0000
  F   F8        1.0  0.61095  0.92363  0.42478  1.0000
  F   F9        1.0  0.18259  0.42257  0.67503  1.0000
  F   F10       1.0  0.68226  0.09687  0.32497  1.0000
  F   F11       1.0  0.11289  0.70523  0.64743  1.0000
  F   F12       1.0  0.61295  0.35245  0.35257  1.0000
