data_image0
_chemical_formula_structural       Zn4H52C68N4Cl4O16
_chemical_formula_sum              "Zn4 H52 C68 N4 Cl4 O16"
_cell_length_a       11.5673
_cell_length_b       11.5673
_cell_length_c       14.5728
_cell_angle_alpha    68.875
_cell_angle_beta     68.8751
_cell_angle_gamma    68.0694

_space_group_name_H-M_alt    "P 1"
_space_group_IT_number       1

loop_
  _space_group_symop_operation_xyz
  'x, y, z'

loop_
  _atom_site_type_symbol
  _atom_site_label
  _atom_site_symmetry_multiplicity
  _atom_site_fract_x
  _atom_site_fract_y
  _atom_site_fract_z
  _atom_site_occupancy
  Zn  Zn1       1.0  0.26606  0.62977  0.82013  1.0000
  Zn  Zn2       1.0  0.62977  0.26606  0.32013  1.0000
  Zn  Zn3       1.0  0.99532  0.63353  0.90014  1.0000
  Zn  Zn4       1.0  0.63353  0.99533  0.40014  1.0000
  H   H1        1.0  0.52154  0.43382  0.82043  1.0000
  H   H2        1.0  0.43382  0.52155  0.32042  1.0000
  H   H3        1.0  0.75344  0.42990  0.75113  1.0000
  H   H4        1.0  0.42990  0.75344  0.25113  1.0000
  H   H5        1.0  0.62930  0.84636  0.65248  1.0000
  H   H6        1.0  0.84636  0.62930  0.15248  1.0000
  H   H7        1.0  0.40225  0.83352  0.72767  1.0000
  H   H8        1.0  0.83352  0.40225  0.22766  1.0000
  H   H9        1.0  0.83955  0.44270  0.99813  1.0000
  H   H10       1.0  0.44270  0.83955  0.49813  1.0000
  H   H11       1.0  0.60765  0.44797  0.05592  1.0000
  H   H12       1.0  0.44797  0.60765  0.55592  1.0000
  H   H13       1.0  0.75466  0.83855  0.87589  1.0000
  H   H14       1.0  0.83855  0.75466  0.37589  1.0000
  H   H15       1.0  0.51781  0.86129  0.92798  1.0000
  H   H16       1.0  0.86129  0.51780  0.42798  1.0000
  H   H17       1.0  0.37663  0.60319  0.00699  1.0000
  H   H18       1.0  0.60319  0.37663  0.50699  1.0000
  H   H19       1.0  0.34159  0.76541  0.00923  1.0000
  H   H20       1.0  0.76541  0.34159  0.50923  1.0000
  H   H21       1.0  0.37112  0.63575  0.11815  1.0000
  H   H22       1.0  0.63575  0.37112  0.61815  1.0000
  H   H23       1.0  0.85898  0.72499  0.58377  1.0000
  H   H24       1.0  0.72499  0.85898  0.08377  1.0000
  H   H25       1.0  0.91086  0.55306  0.62522  1.0000
  H   H26       1.0  0.55306  0.91086  0.12522  1.0000
  H   H27       1.0  0.88938  0.64699  0.70572  1.0000
  H   H28       1.0  0.64699  0.88938  0.20572  1.0000
  H   H29       1.0  0.89625  0.87500  0.11468  1.0000
  H   H30       1.0  0.87500  0.89625  0.61468  1.0000
  H   H31       1.0  0.18673  0.01074  0.85638  1.0000
  H   H32       1.0  0.01074  0.18673  0.35638  1.0000
  H   H33       1.0  0.12159  0.21440  0.90922  1.0000
  H   H34       1.0  0.21440  0.12159  0.40922  1.0000
  H   H35       1.0  0.93764  0.24861  0.06201  1.0000
  H   H36       1.0  0.24861  0.93764  0.56201  1.0000
  H   H37       1.0  0.34327  0.40390  0.13456  1.0000
  H   H38       1.0  0.40390  0.34327  0.63456  1.0000
  H   H39       1.0  0.36903  0.00186  0.27313  1.0000
  H   H40       1.0  0.00186  0.36903  0.77313  1.0000
  H   H41       1.0  0.20566  0.01881  0.18918  1.0000
  H   H42       1.0  0.01881  0.20566  0.68918  1.0000
  H   H43       1.0  0.11108  0.23155  0.08066  1.0000
  H   H44       1.0  0.23155  0.11108  0.58066  1.0000
  H   H45       1.0  0.10073  0.84535  0.22517  1.0000
  H   H46       1.0  0.84536  0.10073  0.72517  1.0000
  H   H47       1.0  0.18701  0.46896  0.51964  1.0000
  H   H48       1.0  0.46896  0.18701  0.01964  1.0000
  H   H49       1.0  0.20476  0.68068  0.51179  1.0000
  H   H50       1.0  0.68068  0.20476  0.01179  1.0000
  H   H51       1.0  0.15929  0.87033  0.36499  1.0000
  H   H52       1.0  0.87033  0.15929  0.86499  1.0000
  C   C1        1.0  0.55008  0.52302  0.78312  1.0000
  C   C2        1.0  0.52302  0.55008  0.28312  1.0000
  C   C3        1.0  0.67897  0.52213  0.74427  1.0000
  C   C4        1.0  0.52213  0.67897  0.24427  1.0000
  C   C5        1.0  0.71221  0.63861  0.69506  1.0000
  C   C6        1.0  0.63861  0.71221  0.19506  1.0000
  C   C7        1.0  0.61025  0.75267  0.69031  1.0000
  C   C8        1.0  0.75266  0.61025  0.19031  1.0000
  C   C9        1.0  0.48347  0.74652  0.73127  1.0000
  C   C10       1.0  0.74652  0.48347  0.23126  1.0000
  C   C11       1.0  0.76467  0.53334  0.98402  1.0000
  C   C12       1.0  0.53334  0.76467  0.48402  1.0000
  C   C13       1.0  0.63513  0.53741  0.01549  1.0000
  C   C14       1.0  0.53741  0.63513  0.51549  1.0000
  C   C15       1.0  0.54136  0.65661  0.99769  1.0000
  C   C16       1.0  0.65661  0.54136  0.49769  1.0000
  C   C17       1.0  0.71714  0.75495  0.91621  1.0000
  C   C18       1.0  0.75495  0.71714  0.41621  1.0000
  C   C19       1.0  0.45589  0.18876  0.26631  1.0000
  C   C20       1.0  0.18876  0.45589  0.76631  1.0000
  C   C21       1.0  0.07506  0.81771  0.94143  1.0000
  C   C22       1.0  0.81771  0.07506  0.44143  1.0000
  C   C23       1.0  0.80519  0.08505  0.19375  1.0000
  C   C24       1.0  0.08505  0.80519  0.69375  1.0000
  C   C25       1.0  0.90880  0.06285  0.09895  1.0000
  C   C26       1.0  0.06285  0.90880  0.59895  1.0000
  C   C27       1.0  0.17577  0.44939  0.02153  1.0000
  C   C28       1.0  0.44939  0.17577  0.52152  1.0000
  C   C29       1.0  0.22232  0.32975  0.09927  1.0000
  C   C30       1.0  0.32975  0.22232  0.59927  1.0000
  C   C31       1.0  0.58587  0.76633  0.94541  1.0000
  C   C32       1.0  0.76633  0.58587  0.44541  1.0000
  C   C33       1.0  0.40030  0.66644  0.03434  1.0000
  C   C34       1.0  0.66644  0.40031  0.53434  1.0000
  C   C35       1.0  0.85002  0.64112  0.64955  1.0000
  C   C36       1.0  0.64112  0.85002  0.14955  1.0000
  C   C37       1.0  0.04298  0.93250  0.98035  1.0000
  C   C38       1.0  0.93250  0.04298  0.48035  1.0000
  C   C39       1.0  0.94498  0.94952  0.06923  1.0000
  C   C40       1.0  0.94952  0.94498  0.56923  1.0000
  C   C41       1.0  0.10898  0.02659  0.92421  1.0000
  C   C42       1.0  0.02659  0.10898  0.42421  1.0000
  C   C43       1.0  0.07198  0.14021  0.95342  1.0000
  C   C44       1.0  0.14021  0.07198  0.45342  1.0000
  C   C45       1.0  0.97014  0.15957  0.03888  1.0000
  C   C46       1.0  0.15956  0.97014  0.53888  1.0000
  C   C47       1.0  0.36222  0.20234  0.21138  1.0000
  C   C48       1.0  0.20234  0.36222  0.71138  1.0000
  C   C49       1.0  0.31204  0.32026  0.14713  1.0000
  C   C50       1.0  0.32026  0.31204  0.64713  1.0000
  C   C51       1.0  0.32589  0.09305  0.22466  1.0000
  C   C52       1.0  0.09305  0.32589  0.72466  1.0000
  C   C53       1.0  0.23513  0.10306  0.17836  1.0000
  C   C54       1.0  0.10306  0.23513  0.67836  1.0000
  C   C55       1.0  0.18183  0.22187  0.11748  1.0000
  C   C56       1.0  0.22187  0.18183  0.61748  1.0000
  C   C57       1.0  0.11289  0.64422  0.29384  1.0000
  C   C58       1.0  0.64422  0.11289  0.79384  1.0000
  C   C59       1.0  0.13534  0.53857  0.37785  1.0000
  C   C60       1.0  0.53857  0.13534  0.87785  1.0000
  C   C61       1.0  0.12174  0.76358  0.28964  1.0000
  C   C62       1.0  0.76358  0.12174  0.78964  1.0000
  C   C63       1.0  0.16911  0.55214  0.45556  1.0000
  C   C64       1.0  0.55214  0.16911  0.95556  1.0000
  C   C65       1.0  0.17915  0.67082  0.45047  1.0000
  C   C66       1.0  0.67082  0.17915  0.95047  1.0000
  C   C67       1.0  0.15453  0.77670  0.36788  1.0000
  C   C68       1.0  0.77670  0.15453  0.86788  1.0000
  N   N1        1.0  0.45327  0.63353  0.77606  1.0000
  N   N2        1.0  0.63353  0.45327  0.27606  1.0000
  N   N3        1.0  0.80569  0.64026  0.93604  1.0000
  N   N4        1.0  0.64026  0.80569  0.43604  1.0000
  Cl  Cl1       1.0  0.07352  0.62901  0.19618  1.0000
  Cl  Cl2       1.0  0.62901  0.07352  0.69618  1.0000
  Cl  Cl3       1.0  0.11935  0.39180  0.38793  1.0000
  Cl  Cl4       1.0  0.39180  0.11934  0.88793  1.0000
  O   O1        1.0  0.06152  0.47576  0.01474  1.0000
  O   O2        1.0  0.47576  0.06152  0.51474  1.0000
  O   O3        1.0  0.25764  0.51253  0.96534  1.0000
  O   O4        1.0  0.51253  0.25764  0.46534  1.0000
  O   O5        1.0  0.51040  0.07300  0.30879  1.0000
  O   O6        1.0  0.07300  0.51040  0.80879  1.0000
  O   O7        1.0  0.47388  0.29030  0.26727  1.0000
  O   O8        1.0  0.29030  0.47388  0.76727  1.0000
  O   O9        1.0  0.98993  0.75668  0.97427  1.0000
  O   O10       1.0  0.75668  0.98993  0.47427  1.0000
  O   O11       1.0  0.18321  0.79212  0.87676  1.0000
  O   O12       1.0  0.79212  0.18321  0.37676  1.0000
  O   O13       1.0  0.78673  0.98681  0.26679  1.0000
  O   O14       1.0  0.98681  0.78673  0.76679  1.0000
  O   O15       1.0  0.74495  0.20295  0.19282  1.0000
  O   O16       1.0  0.20294  0.74495  0.69282  1.0000
