data_image0
_chemical_formula_structural       Zn4H44C56N4O20
_chemical_formula_sum              "Zn4 H44 C56 N4 O20"
_cell_length_a       11.7677
_cell_length_b       11.7677
_cell_length_c       14.1194
_cell_angle_alpha    69.2892
_cell_angle_beta     69.2892
_cell_angle_gamma    69.9069

_space_group_name_H-M_alt    "P 1"
_space_group_IT_number       1

loop_
  _space_group_symop_operation_xyz
  'x, y, z'

loop_
  _atom_site_type_symbol
  _atom_site_label
  _atom_site_symmetry_multiplicity
  _atom_site_fract_x
  _atom_site_fract_y
  _atom_site_fract_z
  _atom_site_occupancy
  Zn  Zn1       1.0  0.00298  0.63179  0.96008  1.0000
  Zn  Zn2       1.0  0.63179  0.00298  0.46008  1.0000
  Zn  Zn3       1.0  0.99703  0.36821  0.03992  1.0000
  Zn  Zn4       1.0  0.36821  0.99702  0.53992  1.0000
  H   H1        1.0  0.20666  0.76253  0.87136  1.0000
  H   H2        1.0  0.76252  0.20666  0.37136  1.0000
  H   H3        1.0  0.79334  0.23748  0.12864  1.0000
  H   H4        1.0  0.23747  0.79334  0.62864  1.0000
  H   H5        1.0  0.23010  0.98258  0.80004  1.0000
  H   H6        1.0  0.98258  0.23010  0.30005  1.0000
  H   H7        1.0  0.76990  0.01742  0.19995  1.0000
  H   H8        1.0  0.01742  0.76990  0.69995  1.0000
  H   H9        1.0  0.82444  0.10661  0.90090  1.0000
  H   H10       1.0  0.10661  0.82444  0.40090  1.0000
  H   H11       1.0  0.17556  0.89339  0.09909  1.0000
  H   H12       1.0  0.89338  0.17556  0.59909  1.0000
  H   H13       1.0  0.81931  0.88189  0.96465  1.0000
  H   H14       1.0  0.88189  0.81931  0.46465  1.0000
  H   H15       1.0  0.18069  0.11811  0.03535  1.0000
  H   H16       1.0  0.11811  0.18069  0.53535  1.0000
  H   H17       1.0  0.55209  0.51759  0.60827  1.0000
  H   H18       1.0  0.51759  0.55209  0.10827  1.0000
  H   H19       1.0  0.44791  0.48241  0.39173  1.0000
  H   H20       1.0  0.48241  0.44790  0.89173  1.0000
  H   H21       1.0  0.23655  0.26657  0.73139  1.0000
  H   H22       1.0  0.26658  0.23654  0.23139  1.0000
  H   H23       1.0  0.76346  0.73342  0.26861  1.0000
  H   H24       1.0  0.73342  0.76345  0.76861  1.0000
  H   H25       1.0  0.34082  0.58326  0.72834  1.0000
  H   H26       1.0  0.58326  0.34082  0.22834  1.0000
  H   H27       1.0  0.65918  0.41674  0.27166  1.0000
  H   H28       1.0  0.41674  0.65918  0.77166  1.0000
  H   H29       1.0  0.59750  0.33078  0.54231  1.0000
  H   H30       1.0  0.33078  0.59749  0.04231  1.0000
  H   H31       1.0  0.40251  0.66922  0.45769  1.0000
  H   H32       1.0  0.66922  0.40250  0.95769  1.0000
  H   H33       1.0  0.87736  0.28078  0.76109  1.0000
  H   H34       1.0  0.28078  0.87736  0.26109  1.0000
  H   H35       1.0  0.12264  0.71922  0.23890  1.0000
  H   H36       1.0  0.71922  0.12264  0.73890  1.0000
  H   H37       1.0  0.97277  0.36753  0.76784  1.0000
  H   H38       1.0  0.36753  0.97277  0.26784  1.0000
  H   H39       1.0  0.02723  0.63247  0.23216  1.0000
  H   H40       1.0  0.63247  0.02723  0.73216  1.0000
  H   H41       1.0  0.88353  0.28440  0.88622  1.0000
  H   H42       1.0  0.28440  0.88353  0.38622  1.0000
  H   H43       1.0  0.11647  0.71560  0.11378  1.0000
  H   H44       1.0  0.71559  0.11647  0.61378  1.0000
  C   C1        1.0  0.12487  0.84208  0.87609  1.0000
  C   C2        1.0  0.84207  0.12487  0.37609  1.0000
  C   C3        1.0  0.87513  0.15793  0.12391  1.0000
  C   C4        1.0  0.15793  0.87513  0.62391  1.0000
  C   C5        1.0  0.13783  0.96361  0.83773  1.0000
  C   C6        1.0  0.96361  0.13783  0.33773  1.0000
  C   C7        1.0  0.86217  0.03639  0.16227  1.0000
  C   C8        1.0  0.03639  0.86217  0.66227  1.0000
  C   C9        1.0  0.02895  0.06280  0.84392  1.0000
  C   C10       1.0  0.06280  0.02895  0.34392  1.0000
  C   C11       1.0  0.97105  0.93720  0.15608  1.0000
  C   C12       1.0  0.93720  0.97105  0.65608  1.0000
  C   C13       1.0  0.91166  0.03393  0.89201  1.0000
  C   C14       1.0  0.03393  0.91167  0.39201  1.0000
  C   C15       1.0  0.08834  0.96607  0.10798  1.0000
  C   C16       1.0  0.96607  0.08834  0.60798  1.0000
  C   C17       1.0  0.90825  0.90862  0.92815  1.0000
  C   C18       1.0  0.90862  0.90825  0.42815  1.0000
  C   C19       1.0  0.09175  0.09138  0.07185  1.0000
  C   C20       1.0  0.09138  0.09175  0.57185  1.0000
  C   C21       1.0  0.48298  0.46305  0.63440  1.0000
  C   C22       1.0  0.46305  0.48298  0.13440  1.0000
  C   C23       1.0  0.51702  0.53695  0.36560  1.0000
  C   C24       1.0  0.53695  0.51701  0.86560  1.0000
  C   C25       1.0  0.16405  0.46124  0.82527  1.0000
  C   C26       1.0  0.46124  0.16405  0.32527  1.0000
  C   C27       1.0  0.83595  0.53876  0.17473  1.0000
  C   C28       1.0  0.53876  0.83595  0.67473  1.0000
  C   C29       1.0  0.27891  0.42718  0.74018  1.0000
  C   C30       1.0  0.42719  0.27891  0.24018  1.0000
  C   C31       1.0  0.72109  0.57281  0.25982  1.0000
  C   C32       1.0  0.57282  0.72109  0.75982  1.0000
  C   C33       1.0  0.44255  0.18803  0.58006  1.0000
  C   C34       1.0  0.18803  0.44255  0.08007  1.0000
  C   C35       1.0  0.55744  0.81197  0.41994  1.0000
  C   C36       1.0  0.81197  0.55744  0.91994  1.0000
  C   C37       1.0  0.41787  0.29126  0.62920  1.0000
  C   C38       1.0  0.29126  0.41786  0.12920  1.0000
  C   C39       1.0  0.58213  0.70874  0.37080  1.0000
  C   C40       1.0  0.70874  0.58213  0.87080  1.0000
  C   C41       1.0  0.30438  0.32285  0.70340  1.0000
  C   C42       1.0  0.32285  0.30438  0.20340  1.0000
  C   C43       1.0  0.69562  0.67714  0.29660  1.0000
  C   C44       1.0  0.67715  0.69562  0.79660  1.0000
  C   C45       1.0  0.36642  0.49945  0.70194  1.0000
  C   C46       1.0  0.49945  0.36642  0.20194  1.0000
  C   C47       1.0  0.63358  0.50055  0.29806  1.0000
  C   C48       1.0  0.50055  0.63357  0.79806  1.0000
  C   C49       1.0  0.50874  0.35866  0.59821  1.0000
  C   C50       1.0  0.35866  0.50874  0.09821  1.0000
  C   C51       1.0  0.49126  0.64134  0.40179  1.0000
  C   C52       1.0  0.64134  0.49125  0.90179  1.0000
  C   C53       1.0  0.93692  0.28347  0.80499  1.0000
  C   C54       1.0  0.28347  0.93693  0.30499  1.0000
  C   C55       1.0  0.06307  0.71653  0.19501  1.0000
  C   C56       1.0  0.71653  0.06308  0.69501  1.0000
  N   N1        1.0  0.01215  0.81369  0.91984  1.0000
  N   N2        1.0  0.81369  0.01215  0.41984  1.0000
  N   N3        1.0  0.98785  0.18631  0.08016  1.0000
  N   N4        1.0  0.18631  0.98785  0.58016  1.0000
  O   O1        1.0  0.12576  0.57598  0.82716  1.0000
  O   O2        1.0  0.57598  0.12576  0.32716  1.0000
  O   O3        1.0  0.87424  0.42402  0.17284  1.0000
  O   O4        1.0  0.42402  0.87424  0.67284  1.0000
  O   O5        1.0  0.11732  0.37175  0.89122  1.0000
  O   O6        1.0  0.37175  0.11732  0.39122  1.0000
  O   O7        1.0  0.88268  0.62825  0.10878  1.0000
  O   O8        1.0  0.62825  0.88268  0.60878  1.0000
  O   O9        1.0  0.55353  0.15519  0.52354  1.0000
  O   O10       1.0  0.15519  0.55353  0.02354  1.0000
  O   O11       1.0  0.44647  0.84481  0.47646  1.0000
  O   O12       1.0  0.84481  0.44646  0.97646  1.0000
  O   O13       1.0  0.35123  0.14265  0.59675  1.0000
  O   O14       1.0  0.14265  0.35122  0.09675  1.0000
  O   O15       1.0  0.64877  0.85735  0.40325  1.0000
  O   O16       1.0  0.85735  0.64877  0.90325  1.0000
  O   O17       1.0  0.04605  0.17952  0.80181  1.0000
  O   O18       1.0  0.17951  0.04605  0.30181  1.0000
  O   O19       1.0  0.95395  0.82049  0.19819  1.0000
  O   O20       1.0  0.82049  0.95395  0.69819  1.0000
