data_image0
_chemical_formula_structural       Zn4H52C60N4O16
_chemical_formula_sum              "Zn4 H52 C60 N4 O16"
_cell_length_a       11.5712
_cell_length_b       11.5712
_cell_length_c       14.5085
_cell_angle_alpha    73.8603
_cell_angle_beta     73.8603
_cell_angle_gamma    68.7283

_space_group_name_H-M_alt    "P 1"
_space_group_IT_number       1

loop_
  _space_group_symop_operation_xyz
  'x, y, z'

loop_
  _atom_site_type_symbol
  _atom_site_label
  _atom_site_symmetry_multiplicity
  _atom_site_fract_x
  _atom_site_fract_y
  _atom_site_fract_z
  _atom_site_occupancy
  Zn  Zn1       1.0  0.13333  0.49604  0.47497  1.0000
  Zn  Zn2       1.0  0.49604  0.13333  0.97496  1.0000
  Zn  Zn3       1.0  0.86667  0.50397  0.52503  1.0000
  Zn  Zn4       1.0  0.50396  0.86667  0.02503  1.0000
  H   H1        1.0  0.25326  0.24430  0.75830  1.0000
  H   H2        1.0  0.24430  0.25326  0.25830  1.0000
  H   H3        1.0  0.74674  0.75570  0.24170  1.0000
  H   H4        1.0  0.75570  0.74674  0.74170  1.0000
  H   H5        1.0  0.80815  0.09030  0.75138  1.0000
  H   H6        1.0  0.09030  0.80815  0.25138  1.0000
  H   H7        1.0  0.19185  0.90970  0.24862  1.0000
  H   H8        1.0  0.90970  0.19185  0.74862  1.0000
  H   H9        1.0  0.00147  0.05311  0.61737  1.0000
  H   H10       1.0  0.05311  0.00147  0.11737  1.0000
  H   H11       1.0  0.99853  0.94689  0.38263  1.0000
  H   H12       1.0  0.94689  0.99853  0.88263  1.0000
  H   H13       1.0  0.06900  0.85887  0.54686  1.0000
  H   H14       1.0  0.85887  0.06900  0.04686  1.0000
  H   H15       1.0  0.93100  0.14113  0.45314  1.0000
  H   H16       1.0  0.14113  0.93100  0.95314  1.0000
  H   H17       1.0  0.61110  0.69585  0.55544  1.0000
  H   H18       1.0  0.69585  0.61110  0.05544  1.0000
  H   H19       1.0  0.38890  0.30415  0.44456  1.0000
  H   H20       1.0  0.30415  0.38890  0.94456  1.0000
  H   H21       1.0  0.33943  0.49010  0.65692  1.0000
  H   H22       1.0  0.49010  0.33943  0.15692  1.0000
  H   H23       1.0  0.66057  0.50990  0.34308  1.0000
  H   H24       1.0  0.50990  0.66057  0.84308  1.0000
  H   H25       1.0  0.74238  0.30464  0.60500  1.0000
  H   H26       1.0  0.30464  0.74238  0.10500  1.0000
  H   H27       1.0  0.25762  0.69536  0.39500  1.0000
  H   H28       1.0  0.69536  0.25762  0.89500  1.0000
  H   H29       1.0  0.47933  0.23137  0.74696  1.0000
  H   H30       1.0  0.23137  0.47933  0.24696  1.0000
  H   H31       1.0  0.52067  0.76863  0.25304  1.0000
  H   H32       1.0  0.76863  0.52067  0.75304  1.0000
  H   H33       1.0  0.60192  0.17720  0.64994  1.0000
  H   H34       1.0  0.17720  0.60192  0.14994  1.0000
  H   H35       1.0  0.39808  0.82280  0.35006  1.0000
  H   H36       1.0  0.82279  0.39808  0.85006  1.0000
  H   H37       1.0  0.44283  0.25374  0.63124  1.0000
  H   H38       1.0  0.25374  0.44283  0.13124  1.0000
  H   H39       1.0  0.55717  0.74626  0.36876  1.0000
  H   H40       1.0  0.74626  0.55717  0.86876  1.0000
  H   H41       1.0  0.26400  0.71834  0.60835  1.0000
  H   H42       1.0  0.71834  0.26400  0.10835  1.0000
  H   H43       1.0  0.73600  0.28167  0.39165  1.0000
  H   H44       1.0  0.28167  0.73600  0.89165  1.0000
  H   H45       1.0  0.37278  0.80260  0.54014  1.0000
  H   H46       1.0  0.80259  0.37278  0.04014  1.0000
  H   H47       1.0  0.62722  0.19740  0.45986  1.0000
  H   H48       1.0  0.19740  0.62722  0.95986  1.0000
  H   H49       1.0  0.34096  0.77368  0.66953  1.0000
  H   H50       1.0  0.77368  0.34096  0.16952  1.0000
  H   H51       1.0  0.65904  0.22632  0.33048  1.0000
  H   H52       1.0  0.22632  0.65904  0.83048  1.0000
  C   C1        1.0  0.06026  0.33052  0.65531  1.0000
  C   C2        1.0  0.33052  0.06026  0.15531  1.0000
  C   C3        1.0  0.93975  0.66948  0.34469  1.0000
  C   C4        1.0  0.66948  0.93975  0.84469  1.0000
  C   C5        1.0  0.31622  0.04939  0.91064  1.0000
  C   C6        1.0  0.04939  0.31622  0.41064  1.0000
  C   C7        1.0  0.68378  0.95062  0.08935  1.0000
  C   C8        1.0  0.95062  0.68378  0.58935  1.0000
  C   C9        1.0  0.20643  0.08553  0.86192  1.0000
  C   C10       1.0  0.08553  0.20643  0.36192  1.0000
  C   C11       1.0  0.79357  0.91446  0.13808  1.0000
  C   C12       1.0  0.91447  0.79357  0.63808  1.0000
  C   C13       1.0  0.18644  0.19056  0.78524  1.0000
  C   C14       1.0  0.19057  0.18643  0.28524  1.0000
  C   C15       1.0  0.81357  0.80944  0.21476  1.0000
  C   C16       1.0  0.80944  0.81357  0.71476  1.0000
  C   C17       1.0  0.08084  0.22570  0.74307  1.0000
  C   C18       1.0  0.22570  0.08084  0.24307  1.0000
  C   C19       1.0  0.91915  0.77430  0.25693  1.0000
  C   C20       1.0  0.77430  0.91915  0.75694  1.0000
  C   C21       1.0  0.84127  0.00699  0.71897  1.0000
  C   C22       1.0  0.00699  0.84127  0.21897  1.0000
  C   C23       1.0  0.15874  0.99301  0.28103  1.0000
  C   C24       1.0  0.99301  0.15873  0.78103  1.0000
  C   C25       1.0  0.94775  0.98600  0.64433  1.0000
  C   C26       1.0  0.98600  0.94775  0.14433  1.0000
  C   C27       1.0  0.05225  0.01400  0.35567  1.0000
  C   C28       1.0  0.01400  0.05225  0.85567  1.0000
  C   C29       1.0  0.98571  0.87787  0.60502  1.0000
  C   C30       1.0  0.87787  0.98571  0.10502  1.0000
  C   C31       1.0  0.01429  0.12213  0.39498  1.0000
  C   C32       1.0  0.12213  0.01429  0.89498  1.0000
  C   C33       1.0  0.58600  0.60835  0.57955  1.0000
  C   C34       1.0  0.60835  0.58600  0.07955  1.0000
  C   C35       1.0  0.41400  0.39164  0.42045  1.0000
  C   C36       1.0  0.39164  0.41400  0.92045  1.0000
  C   C37       1.0  0.45964  0.60982  0.60786  1.0000
  C   C38       1.0  0.60982  0.45964  0.10786  1.0000
  C   C39       1.0  0.54036  0.39018  0.39214  1.0000
  C   C40       1.0  0.39018  0.54036  0.89214  1.0000
  C   C41       1.0  0.43684  0.49307  0.63660  1.0000
  C   C42       1.0  0.49307  0.43684  0.13661  1.0000
  C   C43       1.0  0.56316  0.50693  0.36339  1.0000
  C   C44       1.0  0.50693  0.56316  0.86339  1.0000
  C   C45       1.0  0.53716  0.37966  0.63753  1.0000
  C   C46       1.0  0.37966  0.53716  0.13753  1.0000
  C   C47       1.0  0.46284  0.62034  0.36247  1.0000
  C   C48       1.0  0.62034  0.46284  0.86247  1.0000
  C   C49       1.0  0.65966  0.38884  0.60776  1.0000
  C   C50       1.0  0.38884  0.65966  0.10776  1.0000
  C   C51       1.0  0.34034  0.61116  0.39224  1.0000
  C   C52       1.0  0.61116  0.34034  0.89224  1.0000
  C   C53       1.0  0.51453  0.25366  0.66758  1.0000
  C   C54       1.0  0.25366  0.51453  0.16758  1.0000
  C   C55       1.0  0.48547  0.74634  0.33242  1.0000
  C   C56       1.0  0.74634  0.48547  0.83242  1.0000
  C   C57       1.0  0.35357  0.73247  0.60621  1.0000
  C   C58       1.0  0.73247  0.35357  0.10621  1.0000
  C   C59       1.0  0.64643  0.26753  0.39379  1.0000
  C   C60       1.0  0.26753  0.64643  0.89379  1.0000
  N   N1        1.0  0.68332  0.50052  0.57899  1.0000
  N   N2        1.0  0.50052  0.68332  0.07899  1.0000
  N   N3        1.0  0.31668  0.49947  0.42101  1.0000
  N   N4        1.0  0.49947  0.31668  0.92101  1.0000
  O   O1        1.0  0.15442  0.36781  0.60554  1.0000
  O   O2        1.0  0.36781  0.15442  0.10554  1.0000
  O   O3        1.0  0.84557  0.63219  0.39446  1.0000
  O   O4        1.0  0.63219  0.84557  0.89446  1.0000
  O   O5        1.0  0.35906  0.93305  0.94918  1.0000
  O   O6        1.0  0.93305  0.35906  0.44918  1.0000
  O   O7        1.0  0.64094  0.06694  0.05082  1.0000
  O   O8        1.0  0.06694  0.64094  0.55082  1.0000
  O   O9        1.0  0.35592  0.13876  0.91058  1.0000
  O   O10       1.0  0.13876  0.35592  0.41058  1.0000
  O   O11       1.0  0.64407  0.86124  0.08942  1.0000
  O   O12       1.0  0.86124  0.64408  0.58942  1.0000
  O   O13       1.0  0.94969  0.37133  0.63635  1.0000
  O   O14       1.0  0.37133  0.94969  0.13635  1.0000
  O   O15       1.0  0.05030  0.62867  0.36365  1.0000
  O   O16       1.0  0.62867  0.05030  0.86365  1.0000
