data_image0
_chemical_formula_structural       Zn2H32C42N4O10
_chemical_formula_sum              "Zn2 H32 C42 N4 O10"
_cell_length_a       8.84065
_cell_length_b       9.63067
_cell_length_c       13.5788
_cell_angle_alpha    102.558
_cell_angle_beta     97.0963
_cell_angle_gamma    112.097

_space_group_name_H-M_alt    "P 1"
_space_group_IT_number       1

loop_
  _space_group_symop_operation_xyz
  'x, y, z'

loop_
  _atom_site_type_symbol
  _atom_site_label
  _atom_site_symmetry_multiplicity
  _atom_site_fract_x
  _atom_site_fract_y
  _atom_site_fract_z
  _atom_site_occupancy
  Zn  Zn1       1.0  0.84411  0.56065  0.74185  1.0000
  Zn  Zn2       1.0  0.15590  0.43935  0.25815  1.0000
  H   H1        1.0  0.37393  0.07622  0.78102  1.0000
  H   H2        1.0  0.62607  0.92378  0.21898  1.0000
  H   H3        1.0  0.00725  0.77605  0.49959  1.0000
  H   H4        1.0  0.99275  0.22396  0.50041  1.0000
  H   H5        1.0  0.43841  0.18148  0.49379  1.0000
  H   H6        1.0  0.56159  0.81852  0.50621  1.0000
  H   H7        1.0  0.24078  0.14479  0.34865  1.0000
  H   H8        1.0  0.75922  0.85522  0.65135  1.0000
  H   H9        1.0  0.16156  0.97192  0.24078  1.0000
  H   H10       1.0  0.83844  0.02809  0.75922  1.0000
  H   H11       1.0  0.36228  0.03185  0.32438  1.0000
  H   H12       1.0  0.63772  0.96816  0.67562  1.0000
  H   H13       1.0  0.06975  0.68746  0.95863  1.0000
  H   H14       1.0  0.93026  0.31254  0.04137  1.0000
  H   H15       1.0  0.30547  0.65037  0.04781  1.0000
  H   H16       1.0  0.69453  0.34963  0.95219  1.0000
  H   H17       1.0  0.22811  0.28727  0.76909  1.0000
  H   H18       1.0  0.77189  0.71273  0.23091  1.0000
  H   H19       1.0  0.98725  0.33409  0.69361  1.0000
  H   H20       1.0  0.01275  0.66591  0.30639  1.0000
  H   H21       1.0  0.46677  0.35941  0.90651  1.0000
  H   H22       1.0  0.53323  0.64059  0.09349  1.0000
  H   H23       1.0  0.92793  0.81137  0.94723  1.0000
  H   H24       1.0  0.07207  0.18863  0.05277  1.0000
  H   H25       1.0  0.78922  0.96619  0.03636  1.0000
  H   H26       1.0  0.21077  0.03381  0.96364  1.0000
  H   H27       1.0  0.37448  0.73576  0.76672  1.0000
  H   H28       1.0  0.62551  0.26424  0.23328  1.0000
  H   H29       1.0  0.52484  0.57690  0.69423  1.0000
  H   H30       1.0  0.47516  0.42310  0.30576  1.0000
  H   H31       1.0  0.35911  0.92965  0.89968  1.0000
  H   H32       1.0  0.64089  0.07036  0.10032  1.0000
  C   C1        1.0  0.42069  0.14090  0.64200  1.0000
  C   C2        1.0  0.57931  0.85910  0.35800  1.0000
  C   C3        1.0  0.32880  0.04670  0.69770  1.0000
  C   C4        1.0  0.67121  0.95331  0.30230  1.0000
  C   C5        1.0  0.17957  0.91524  0.64640  1.0000
  C   C6        1.0  0.82043  0.08476  0.35360  1.0000
  C   C7        1.0  0.12324  0.87844  0.53945  1.0000
  C   C8        1.0  0.87676  0.12157  0.46055  1.0000
  C   C9        1.0  0.21470  0.97376  0.48371  1.0000
  C   C10       1.0  0.78530  0.02624  0.51629  1.0000
  C   C11       1.0  0.36387  0.10529  0.53460  1.0000
  C   C12       1.0  0.63613  0.89471  0.46540  1.0000
  C   C13       1.0  0.57871  0.28245  0.69907  1.0000
  C   C14       1.0  0.42129  0.71755  0.30093  1.0000
  C   C15       1.0  0.07978  0.81513  0.70654  1.0000
  C   C16       1.0  0.92022  0.18487  0.29346  1.0000
  C   C17       1.0  0.23503  0.02638  0.32078  1.0000
  C   C18       1.0  0.76497  0.97363  0.67922  1.0000
  C   C19       1.0  0.10842  0.59969  0.91921  1.0000
  C   C20       1.0  0.89158  0.40030  0.08078  1.0000
  C   C21       1.0  0.24248  0.58016  0.96822  1.0000
  C   C22       1.0  0.75752  0.41984  0.03178  1.0000
  C   C23       1.0  0.29415  0.46980  0.91410  1.0000
  C   C24       1.0  0.70585  0.53020  0.08590  1.0000
  C   C25       1.0  0.19731  0.37744  0.81410  1.0000
  C   C26       1.0  0.80269  0.62256  0.18591  1.0000
  C   C27       1.0  0.06373  0.40400  0.77083  1.0000
  C   C28       1.0  0.93627  0.59600  0.22917  1.0000
  C   C29       1.0  0.44387  0.45255  0.95525  1.0000
  C   C30       1.0  0.55613  0.54744  0.04475  1.0000
  C   C31       1.0  0.80316  0.79535  0.91136  1.0000
  C   C32       1.0  0.19683  0.20465  0.08864  1.0000
  C   C33       1.0  0.72647  0.88395  0.95944  1.0000
  C   C34       1.0  0.27352  0.11604  0.04056  1.0000
  C   C35       1.0  0.56812  0.86497  0.90809  1.0000
  C   C36       1.0  0.43188  0.13503  0.09190  1.0000
  C   C37       1.0  0.49624  0.75431  0.80986  1.0000
  C   C38       1.0  0.50376  0.24569  0.19014  1.0000
  C   C39       1.0  0.57898  0.66646  0.76894  1.0000
  C   C40       1.0  0.42102  0.33354  0.23106  1.0000
  C   C41       1.0  0.47584  0.95096  0.95142  1.0000
  C   C42       1.0  0.52415  0.04904  0.04858  1.0000
  N   N1        1.0  0.02115  0.51565  0.82150  1.0000
  N   N2        1.0  0.97885  0.48435  0.17850  1.0000
  N   N3        1.0  0.73108  0.68680  0.81833  1.0000
  N   N4        1.0  0.26892  0.31320  0.18167  1.0000
  O   O1        1.0  0.65435  0.37249  0.64533  1.0000
  O   O2        1.0  0.34565  0.62751  0.35467  1.0000
  O   O3        1.0  0.62976  0.31028  0.79475  1.0000
  O   O4        1.0  0.37024  0.68973  0.20525  1.0000
  O   O5        1.0  0.11770  0.85978  0.80415  1.0000
  O   O6        1.0  0.88230  0.14022  0.19585  1.0000
  O   O7        1.0  0.95710  0.68452  0.65195  1.0000
  O   O8        1.0  0.04290  0.31548  0.34805  1.0000
  O   O9        1.0  0.14801  0.92890  0.37958  1.0000
  O   O10       1.0  0.85199  0.07111  0.62042  1.0000
