data_image0
_chemical_formula_structural       Zn2H32C32S4N20
_chemical_formula_sum              "Zn2 H32 C32 S4 N20"
_cell_length_a       9.11134
_cell_length_b       9.03336
_cell_length_c       13.8257
_cell_angle_alpha    89.9999
_cell_angle_beta     89.9999
_cell_angle_gamma    120.286

_space_group_name_H-M_alt    "P 1"
_space_group_IT_number       1

loop_
  _space_group_symop_operation_xyz
  'x, y, z'

loop_
  _atom_site_type_symbol
  _atom_site_label
  _atom_site_symmetry_multiplicity
  _atom_site_fract_x
  _atom_site_fract_y
  _atom_site_fract_z
  _atom_site_occupancy
  Zn  Zn1       1.0  0.00000  0.00000  0.00000  1.0000
  Zn  Zn2       1.0  0.50000  1.00000  0.50000  1.0000
  H   H1        1.0  0.35337  0.70674  0.27217  1.0000
  H   H2        1.0  0.14663  0.29326  0.77217  1.0000
  H   H3        1.0  0.85337  0.70674  0.22783  1.0000
  H   H4        1.0  0.64663  0.29326  0.72783  1.0000
  H   H5        1.0  0.46653  0.93306  0.25113  1.0000
  H   H6        1.0  0.03347  0.06694  0.75113  1.0000
  H   H7        1.0  0.96653  0.93306  0.24887  1.0000
  H   H8        1.0  0.53347  0.06694  0.74887  1.0000
  H   H9        1.0  0.72079  0.05283  0.13555  1.0000
  H   H10       1.0  0.77921  0.94717  0.63555  1.0000
  H   H11       1.0  0.83204  0.05283  0.36445  1.0000
  H   H12       1.0  0.66796  0.94717  0.86445  1.0000
  H   H13       1.0  0.27921  0.94717  0.86446  1.0000
  H   H14       1.0  0.22079  0.05283  0.36445  1.0000
  H   H15       1.0  0.16796  0.94717  0.63555  1.0000
  H   H16       1.0  0.33204  0.05283  0.13554  1.0000
  H   H17       1.0  0.67925  0.59326  0.03221  1.0000
  H   H18       1.0  0.82075  0.40675  0.53221  1.0000
  H   H19       1.0  0.41401  0.59325  0.46779  1.0000
  H   H20       1.0  0.08600  0.40675  0.96779  1.0000
  H   H21       1.0  0.32075  0.40675  0.96778  1.0000
  H   H22       1.0  0.17925  0.59325  0.46778  1.0000
  H   H23       1.0  0.58600  0.40674  0.53221  1.0000
  H   H24       1.0  0.91400  0.59325  0.03221  1.0000
  H   H25       1.0  0.40087  0.51253  0.14928  1.0000
  H   H26       1.0  0.09912  0.48747  0.64928  1.0000
  H   H27       1.0  0.61166  0.51253  0.35072  1.0000
  H   H28       1.0  0.88835  0.48748  0.85072  1.0000
  H   H29       1.0  0.59913  0.48748  0.85072  1.0000
  H   H30       1.0  0.90087  0.51253  0.35072  1.0000
  H   H31       1.0  0.38835  0.48747  0.64928  1.0000
  H   H32       1.0  0.11165  0.51253  0.14928  1.0000
  C   C1        1.0  0.40345  0.80690  0.21652  1.0000
  C   C2        1.0  0.09655  0.19310  0.71652  1.0000
  C   C3        1.0  0.90345  0.80690  0.28348  1.0000
  C   C4        1.0  0.59655  0.19311  0.78348  1.0000
  C   C5        1.0  0.67553  0.91793  0.12211  1.0000
  C   C6        1.0  0.82447  0.08207  0.62211  1.0000
  C   C7        1.0  0.74241  0.91793  0.37789  1.0000
  C   C8        1.0  0.75759  0.08207  0.87789  1.0000
  C   C9        1.0  0.32448  0.08207  0.87789  1.0000
  C   C10       1.0  0.17553  0.91793  0.37789  1.0000
  C   C11       1.0  0.25759  0.08206  0.62211  1.0000
  C   C12       1.0  0.24241  0.91793  0.12211  1.0000
  C   C13       1.0  0.64779  0.67723  0.07127  1.0000
  C   C14       1.0  0.85221  0.32277  0.57127  1.0000
  C   C15       1.0  0.52944  0.67723  0.42873  1.0000
  C   C16       1.0  0.97056  0.32277  0.92873  1.0000
  C   C17       1.0  0.35221  0.32277  0.92873  1.0000
  C   C18       1.0  0.14779  0.67723  0.42873  1.0000
  C   C19       1.0  0.47056  0.32276  0.57127  1.0000
  C   C20       1.0  0.02944  0.67723  0.07127  1.0000
  C   C21       1.0  0.50739  0.63467  0.12697  1.0000
  C   C22       1.0  0.99262  0.36534  0.62697  1.0000
  C   C23       1.0  0.62728  0.63466  0.37303  1.0000
  C   C24       1.0  0.87272  0.36534  0.87303  1.0000
  C   C25       1.0  0.49262  0.36534  0.87303  1.0000
  C   C26       1.0  0.00738  0.63466  0.37303  1.0000
  C   C27       1.0  0.37272  0.36533  0.62697  1.0000
  C   C28       1.0  0.12728  0.63466  0.12697  1.0000
  C   C29       1.0  0.11876  0.23751  0.19762  1.0000
  C   C30       1.0  0.38123  0.76248  0.69762  1.0000
  C   C31       1.0  0.61876  0.23752  0.30238  1.0000
  C   C32       1.0  0.88124  0.76248  0.80238  1.0000
  S   S1        1.0  0.15772  0.31545  0.30649  1.0000
  S   S2        1.0  0.34227  0.68455  0.80649  1.0000
  S   S3        1.0  0.65773  0.31545  0.19351  1.0000
  S   S4        1.0  0.84228  0.68455  0.69352  1.0000
  N   N1        1.0  0.52635  0.78876  0.15847  1.0000
  N   N2        1.0  0.97365  0.21124  0.65848  1.0000
  N   N3        1.0  0.76241  0.78876  0.34152  1.0000
  N   N4        1.0  0.73759  0.21124  0.84153  1.0000
  N   N5        1.0  0.47365  0.21124  0.84153  1.0000
  N   N6        1.0  0.02635  0.78876  0.34152  1.0000
  N   N7        1.0  0.23759  0.21124  0.65847  1.0000
  N   N8        1.0  0.26241  0.78876  0.15848  1.0000
  N   N9        1.0  0.75203  0.85329  0.06953  1.0000
  N   N10       1.0  0.74797  0.14671  0.56953  1.0000
  N   N11       1.0  0.60126  0.85329  0.43047  1.0000
  N   N12       1.0  0.89874  0.14671  0.93047  1.0000
  N   N13       1.0  0.24797  0.14671  0.93047  1.0000
  N   N14       1.0  0.25203  0.85329  0.43047  1.0000
  N   N15       1.0  0.39874  0.14671  0.56953  1.0000
  N   N16       1.0  0.10126  0.85329  0.06953  1.0000
  N   N17       1.0  0.09099  0.18198  0.11749  1.0000
  N   N18       1.0  0.40901  0.81802  0.61749  1.0000
  N   N19       1.0  0.59099  0.18198  0.38250  1.0000
  N   N20       1.0  0.90901  0.81802  0.88251  1.0000
