data_image0
_chemical_formula_structural       Cu2H32C28N20O12
_chemical_formula_sum              "Cu2 H32 C28 N20 O12"
_cell_length_a       8.57625
_cell_length_b       8.57625
_cell_length_c       14.0552
_cell_angle_alpha    90.0001
_cell_angle_beta     89.9998
_cell_angle_gamma    117.473

_space_group_name_H-M_alt    "P 1"
_space_group_IT_number       1

loop_
  _space_group_symop_operation_xyz
  'x, y, z'

loop_
  _atom_site_type_symbol
  _atom_site_label
  _atom_site_symmetry_multiplicity
  _atom_site_fract_x
  _atom_site_fract_y
  _atom_site_fract_z
  _atom_site_occupancy
  Cu  Cu1       1.0  0.00000  1.00000  1.00000  1.0000
  Cu  Cu2       1.0  0.50000  0.50000  0.50000  1.0000
  H   H1        1.0  0.61089  0.79867  0.08508  1.0000
  H   H2        1.0  0.88911  0.70132  0.58508  1.0000
  H   H3        1.0  0.79867  0.61089  0.91492  1.0000
  H   H4        1.0  0.70132  0.88911  0.41492  1.0000
  H   H5        1.0  0.38911  0.20132  0.91492  1.0000
  H   H6        1.0  0.11089  0.29867  0.41492  1.0000
  H   H7        1.0  0.20133  0.38911  0.08508  1.0000
  H   H8        1.0  0.29867  0.11089  0.58508  1.0000
  H   H9        1.0  0.41542  0.85816  0.81756  1.0000
  H   H10       1.0  0.08459  0.64184  0.31756  1.0000
  H   H11       1.0  0.85816  0.41541  0.18244  1.0000
  H   H12       1.0  0.64184  0.08458  0.68244  1.0000
  H   H13       1.0  0.58458  0.14184  0.18244  1.0000
  H   H14       1.0  0.91542  0.35816  0.68244  1.0000
  H   H15       1.0  0.14184  0.58459  0.81756  1.0000
  H   H16       1.0  0.35816  0.91542  0.31756  1.0000
  H   H17       1.0  0.78064  0.98899  0.80691  1.0000
  H   H18       1.0  0.71937  0.51101  0.30692  1.0000
  H   H19       1.0  0.98899  0.78064  0.19309  1.0000
  H   H20       1.0  0.51101  0.71936  0.69308  1.0000
  H   H21       1.0  0.21936  0.01101  0.19308  1.0000
  H   H22       1.0  0.28064  0.48899  0.69308  1.0000
  H   H23       1.0  0.01101  0.21937  0.80691  1.0000
  H   H24       1.0  0.48899  0.28064  0.30692  1.0000
  H   H25       1.0  0.21476  0.78525  0.97195  1.0000
  H   H26       1.0  0.28525  0.71475  0.47195  1.0000
  H   H27       1.0  0.78525  0.21475  0.02805  1.0000
  H   H28       1.0  0.71475  0.28525  0.52805  1.0000
  H   H29       1.0  0.28896  0.71104  0.07514  1.0000
  H   H30       1.0  0.21103  0.78897  0.57514  1.0000
  H   H31       1.0  0.71104  0.28896  0.92486  1.0000
  H   H32       1.0  0.78896  0.21104  0.42486  1.0000
  C   C1        1.0  0.61187  0.83647  0.01131  1.0000
  C   C2        1.0  0.88813  0.66353  0.51131  1.0000
  C   C3        1.0  0.83647  0.61187  0.98869  1.0000
  C   C4        1.0  0.66353  0.88813  0.48869  1.0000
  C   C5        1.0  0.38813  0.16353  0.98869  1.0000
  C   C6        1.0  0.11187  0.33647  0.48868  1.0000
  C   C7        1.0  0.16353  0.38813  0.01131  1.0000
  C   C8        1.0  0.33647  0.11187  0.51131  1.0000
  C   C9        1.0  0.51277  0.86726  0.86985  1.0000
  C   C10       1.0  0.98723  0.63274  0.36985  1.0000
  C   C11       1.0  0.86726  0.51277  0.13015  1.0000
  C   C12       1.0  0.63274  0.98723  0.63015  1.0000
  C   C13       1.0  0.48723  0.13274  0.13015  1.0000
  C   C14       1.0  0.01277  0.36726  0.63015  1.0000
  C   C15       1.0  0.13274  0.48723  0.86984  1.0000
  C   C16       1.0  0.36726  0.01277  0.36985  1.0000
  C   C17       1.0  0.69216  0.93525  0.86662  1.0000
  C   C18       1.0  0.80784  0.56475  0.36662  1.0000
  C   C19       1.0  0.93525  0.69216  0.13338  1.0000
  C   C20       1.0  0.56475  0.80784  0.63338  1.0000
  C   C21       1.0  0.30784  0.06475  0.13338  1.0000
  C   C22       1.0  0.19216  0.43525  0.63338  1.0000
  C   C23       1.0  0.06475  0.30784  0.86661  1.0000
  C   C24       1.0  0.43525  0.19216  0.36662  1.0000
  C   C25       1.0  0.28543  0.71457  0.99709  1.0000
  C   C26       1.0  0.21457  0.78543  0.49709  1.0000
  C   C27       1.0  0.71457  0.28543  0.00291  1.0000
  C   C28       1.0  0.78543  0.21457  0.50291  1.0000
  N   N1        1.0  0.75196  0.91756  0.95526  1.0000
  N   N2        1.0  0.74804  0.58244  0.45526  1.0000
  N   N3        1.0  0.91756  0.75196  0.04474  1.0000
  N   N4        1.0  0.58244  0.74804  0.54474  1.0000
  N   N5        1.0  0.24804  0.08243  0.04474  1.0000
  N   N6        1.0  0.25196  0.41756  0.54474  1.0000
  N   N7        1.0  0.08244  0.24804  0.95526  1.0000
  N   N8        1.0  0.41756  0.25196  0.45526  1.0000
  N   N9        1.0  0.46460  0.80492  0.96161  1.0000
  N   N10       1.0  0.03540  0.69508  0.46161  1.0000
  N   N11       1.0  0.80491  0.46460  0.03839  1.0000
  N   N12       1.0  0.69508  0.03540  0.53839  1.0000
  N   N13       1.0  0.53540  0.19508  0.03839  1.0000
  N   N14       1.0  0.96460  0.30492  0.53839  1.0000
  N   N15       1.0  0.19509  0.53540  0.96161  1.0000
  N   N16       1.0  0.30491  0.96460  0.46161  1.0000
  N   N17       1.0  0.10476  0.89524  0.76101  1.0000
  N   N18       1.0  0.39524  0.60476  0.26101  1.0000
  N   N19       1.0  0.89524  0.10476  0.23899  1.0000
  N   N20       1.0  0.60476  0.39524  0.73899  1.0000
  O   O1        1.0  0.09957  0.90043  0.85148  1.0000
  O   O2        1.0  0.40043  0.59957  0.35147  1.0000
  O   O3        1.0  0.90043  0.09956  0.14853  1.0000
  O   O4        1.0  0.59957  0.40044  0.64852  1.0000
  O   O5        1.0  0.18371  0.81629  0.72244  1.0000
  O   O6        1.0  0.31629  0.68371  0.22244  1.0000
  O   O7        1.0  0.81629  0.18371  0.27756  1.0000
  O   O8        1.0  0.68371  0.31629  0.77756  1.0000
  O   O9        1.0  0.03385  0.96616  0.71019  1.0000
  O   O10       1.0  0.46615  0.53385  0.21019  1.0000
  O   O11       1.0  0.96615  0.03385  0.28981  1.0000
  O   O12       1.0  0.53385  0.46615  0.78981  1.0000
