data_image0
_chemical_formula_structural       Cd2H32C32S4N20
_chemical_formula_sum              "Cd2 H32 C32 S4 N20"
_cell_length_a       9.1447
_cell_length_b       9.14468
_cell_length_c       13.8267
_cell_angle_alpha    89.9999
_cell_angle_beta     90
_cell_angle_gamma    117.975

_space_group_name_H-M_alt    "P 1"
_space_group_IT_number       1

loop_
  _space_group_symop_operation_xyz
  'x, y, z'

loop_
  _atom_site_type_symbol
  _atom_site_label
  _atom_site_symmetry_multiplicity
  _atom_site_fract_x
  _atom_site_fract_y
  _atom_site_fract_z
  _atom_site_occupancy
  Cd  Cd1       1.0  1.00000  1.00000  1.00000  1.0000
  Cd  Cd2       1.0  0.50000  0.50000  0.50000  1.0000
  H   H1        1.0  0.29674  0.33522  0.86147  1.0000
  H   H2        1.0  0.20326  0.16478  0.36147  1.0000
  H   H3        1.0  0.16478  0.20327  0.63853  1.0000
  H   H4        1.0  0.33522  0.29673  0.13853  1.0000
  H   H5        1.0  0.70326  0.66477  0.13852  1.0000
  H   H6        1.0  0.79674  0.83522  0.63853  1.0000
  H   H7        1.0  0.83522  0.79674  0.36147  1.0000
  H   H8        1.0  0.66478  0.70326  0.86147  1.0000
  H   H9        1.0  0.33120  0.91598  0.96177  1.0000
  H   H10       1.0  0.16880  0.58402  0.46177  1.0000
  H   H11       1.0  0.58402  0.16880  0.53823  1.0000
  H   H12       1.0  0.91598  0.33120  0.03823  1.0000
  H   H13       1.0  0.66880  0.08402  0.03823  1.0000
  H   H14       1.0  0.83120  0.41598  0.53823  1.0000
  H   H15       1.0  0.41598  0.83121  0.46177  1.0000
  H   H16       1.0  0.08402  0.66879  0.96177  1.0000
  H   H17       1.0  0.60588  0.10509  0.84780  1.0000
  H   H18       1.0  0.89412  0.39491  0.34780  1.0000
  H   H19       1.0  0.39491  0.89412  0.65220  1.0000
  H   H20       1.0  0.10509  0.60588  0.15220  1.0000
  H   H21       1.0  0.39412  0.89491  0.15220  1.0000
  H   H22       1.0  0.10588  0.60509  0.65220  1.0000
  H   H23       1.0  0.60509  0.10588  0.34780  1.0000
  H   H24       1.0  0.89491  0.39412  0.84780  1.0000
  H   H25       1.0  0.65555  0.34445  0.72561  1.0000
  H   H26       1.0  0.84445  0.15555  0.22561  1.0000
  H   H27       1.0  0.15556  0.84445  0.77439  1.0000
  H   H28       1.0  0.34444  0.65555  0.27439  1.0000
  H   H29       1.0  0.54282  0.45718  0.74416  1.0000
  H   H30       1.0  0.95718  0.04282  0.24416  1.0000
  H   H31       1.0  0.04282  0.95718  0.75584  1.0000
  H   H32       1.0  0.45718  0.54282  0.25584  1.0000
  C   C1        1.0  0.33958  0.24418  0.87439  1.0000
  C   C2        1.0  0.16042  0.25582  0.37439  1.0000
  C   C3        1.0  0.25582  0.16042  0.62561  1.0000
  C   C4        1.0  0.24418  0.33958  0.12561  1.0000
  C   C5        1.0  0.66042  0.75582  0.12561  1.0000
  C   C6        1.0  0.83958  0.74418  0.62561  1.0000
  C   C7        1.0  0.74417  0.83958  0.37439  1.0000
  C   C8        1.0  0.75582  0.66042  0.87439  1.0000
  C   C9        1.0  0.36386  0.03068  0.92390  1.0000
  C   C10       1.0  0.13613  0.46932  0.42390  1.0000
  C   C11       1.0  0.46933  0.13614  0.57610  1.0000
  C   C12       1.0  0.03068  0.36386  0.07610  1.0000
  C   C13       1.0  0.63614  0.96933  0.07610  1.0000
  C   C14       1.0  0.86386  0.53068  0.57610  1.0000
  C   C15       1.0  0.53067  0.86386  0.42390  1.0000
  C   C16       1.0  0.96933  0.63614  0.92390  1.0000
  C   C17       1.0  0.50175  0.12372  0.86907  1.0000
  C   C18       1.0  0.99824  0.37629  0.36907  1.0000
  C   C19       1.0  0.37628  0.99824  0.63093  1.0000
  C   C20       1.0  0.12371  0.50176  0.13093  1.0000
  C   C21       1.0  0.49825  0.87629  0.13093  1.0000
  C   C22       1.0  0.00176  0.62372  0.63093  1.0000
  C   C23       1.0  0.62371  0.00176  0.36907  1.0000
  C   C24       1.0  0.87629  0.49824  0.86906  1.0000
  C   C25       1.0  0.60494  0.39506  0.78037  1.0000
  C   C26       1.0  0.89506  0.10494  0.28037  1.0000
  C   C27       1.0  0.10494  0.89506  0.71963  1.0000
  C   C28       1.0  0.39506  0.60494  0.21963  1.0000
  C   C29       1.0  0.88044  0.11956  0.78880  1.0000
  C   C30       1.0  0.61957  0.38044  0.28880  1.0000
  C   C31       1.0  0.38044  0.61956  0.71120  1.0000
  C   C32       1.0  0.11956  0.88044  0.21120  1.0000
  S   S1        1.0  0.84945  0.15055  0.67688  1.0000
  S   S2        1.0  0.65056  0.34944  0.17687  1.0000
  S   S3        1.0  0.34944  0.65055  0.82312  1.0000
  S   S4        1.0  0.15055  0.84944  0.32312  1.0000
  N   N1        1.0  0.48488  0.25904  0.83822  1.0000
  N   N2        1.0  0.01512  0.24096  0.33822  1.0000
  N   N3        1.0  0.24096  0.01512  0.66178  1.0000
  N   N4        1.0  0.25905  0.48488  0.16178  1.0000
  N   N5        1.0  0.51512  0.74096  0.16178  1.0000
  N   N6        1.0  0.98488  0.75904  0.66178  1.0000
  N   N7        1.0  0.75904  0.98488  0.33822  1.0000
  N   N8        1.0  0.74096  0.51512  0.83822  1.0000
  N   N9        1.0  0.26367  0.10606  0.92603  1.0000
  N   N10       1.0  0.23633  0.39393  0.42604  1.0000
  N   N11       1.0  0.39393  0.23633  0.57397  1.0000
  N   N12       1.0  0.10607  0.26367  0.07397  1.0000
  N   N13       1.0  0.73633  0.89393  0.07396  1.0000
  N   N14       1.0  0.76367  0.60607  0.57397  1.0000
  N   N15       1.0  0.60606  0.76367  0.42604  1.0000
  N   N16       1.0  0.89393  0.73633  0.92604  1.0000
  N   N17       1.0  0.90163  0.09837  0.87148  1.0000
  N   N18       1.0  0.59837  0.40163  0.37148  1.0000
  N   N19       1.0  0.40163  0.59837  0.62852  1.0000
  N   N20       1.0  0.09837  0.90163  0.12852  1.0000
