data_image0
_chemical_formula_structural       Fe2H22C34N6O8
_chemical_formula_sum              "Fe2 H22 C34 N6 O8"
_cell_length_a       8.61442
_cell_length_b       8.91312
_cell_length_c       11.0751
_cell_angle_alpha    76.5891
_cell_angle_beta     80.8207
_cell_angle_gamma    81.0422

_space_group_name_H-M_alt    "P 1"
_space_group_IT_number       1

loop_
  _space_group_symop_operation_xyz
  'x, y, z'

loop_
  _atom_site_type_symbol
  _atom_site_label
  _atom_site_symmetry_multiplicity
  _atom_site_fract_x
  _atom_site_fract_y
  _atom_site_fract_z
  _atom_site_occupancy
  Fe  Fe1       1.0  0.18131  0.29693  0.07307  1.0000
  Fe  Fe2       1.0  0.81560  0.70562  0.93000  1.0000
  H   H1        1.0  0.59004  0.88733  0.23436  1.0000
  H   H2        1.0  0.41600  0.10650  0.74642  1.0000
  H   H3        1.0  0.81446  0.05828  0.18670  1.0000
  H   H4        1.0  0.19177  0.93569  0.79579  1.0000
  H   H5        1.0  0.49863  0.41624  0.98653  1.0000
  H   H6        1.0  0.49222  0.59477  0.02470  1.0000
  H   H7        1.0  0.99009  0.16677  0.93339  1.0000
  H   H8        1.0  0.01082  0.83197  0.06962  1.0000
  H   H9        1.0  0.95287  0.19307  0.71682  1.0000
  H   H10       1.0  0.04963  0.80444  0.28592  1.0000
  H   H11       1.0  0.36150  0.44882  0.61087  1.0000
  H   H12       1.0  0.64301  0.54609  0.39286  1.0000
  H   H13       1.0  0.37117  0.42448  0.83397  1.0000
  H   H14       1.0  0.63070  0.57296  0.16989  1.0000
  H   H15       1.0  0.00887  0.13545  0.53852  1.0000
  H   H16       1.0  0.98958  0.86514  0.46425  1.0000
  H   H17       1.0  0.02492  0.13521  0.31247  1.0000
  H   H18       1.0  0.96994  0.86848  0.69001  1.0000
  H   H19       1.0  0.29167  0.50330  0.21063  1.0000
  H   H20       1.0  0.70636  0.49808  0.79256  1.0000
  H   H21       1.0  0.28466  0.52350  0.42868  1.0000
  H   H22       1.0  0.71918  0.47312  0.57512  1.0000
  C   C1        1.0  0.42980  0.06704  0.14287  1.0000
  C   C2        1.0  0.57033  0.93356  0.85129  1.0000
  C   C3        1.0  0.57672  0.00679  0.18171  1.0000
  C   C4        1.0  0.42663  0.99034  0.80542  1.0000
  C   C5        1.0  0.69915  0.09968  0.15489  1.0000
  C   C6        1.0  0.30397  0.89772  0.83343  1.0000
  C   C7        1.0  0.67251  0.25005  0.08267  1.0000
  C   C8        1.0  0.32583  0.75255  0.91463  1.0000
  C   C9        1.0  0.52344  0.30157  0.04380  1.0000
  C   C10       1.0  0.47169  0.70481  0.95996  1.0000
  C   C11       1.0  0.29130  0.97575  0.16676  1.0000
  C   C12       1.0  0.70885  0.02478  0.82787  1.0000
  C   C13       1.0  0.79588  0.36001  0.05343  1.0000
  C   C14       1.0  0.20138  0.64336  0.94650  1.0000
  C   C15       1.0  0.06721  0.23274  0.85951  1.0000
  C   C16       1.0  0.93419  0.76547  0.14360  1.0000
  C   C17       1.0  0.05135  0.24421  0.73518  1.0000
  C   C18       1.0  0.95108  0.75314  0.26790  1.0000
  C   C19       1.0  0.15635  0.32228  0.63941  1.0000
  C   C20       1.0  0.84651  0.67474  0.36389  1.0000
  C   C21       1.0  0.27246  0.38930  0.67809  1.0000
  C   C22       1.0  0.73097  0.60690  0.32540  1.0000
  C   C23       1.0  0.27971  0.37535  0.80407  1.0000
  C   C24       1.0  0.72239  0.62205  0.19945  1.0000
  C   C25       1.0  0.07382  0.21947  0.46954  1.0000
  C   C26       1.0  0.92533  0.78071  0.53334  1.0000
  C   C27       1.0  0.08215  0.21722  0.34399  1.0000
  C   C28       1.0  0.91472  0.78488  0.65872  1.0000
  C   C29       1.0  0.23378  0.42137  0.28642  1.0000
  C   C30       1.0  0.76512  0.57924  0.71666  1.0000
  C   C31       1.0  0.22918  0.43091  0.40992  1.0000
  C   C32       1.0  0.77259  0.56734  0.59336  1.0000
  C   C33       1.0  0.15161  0.32568  0.50690  1.0000
  C   C34       1.0  0.85013  0.67243  0.49629  1.0000
  N   N1        1.0  0.40121  0.21725  0.07876  1.0000
  N   N2        1.0  0.59549  0.78681  0.92283  1.0000
  N   N3        1.0  0.17859  0.29874  0.89609  1.0000
  N   N4        1.0  0.82182  0.70056  0.10709  1.0000
  N   N5        1.0  0.16423  0.31411  0.25203  1.0000
  N   N6        1.0  0.83250  0.68818  0.75076  1.0000
  O   O1        1.0  0.16154  0.05701  0.12956  1.0000
  O   O2        1.0  0.83595  0.94573  0.87169  1.0000
  O   O3        1.0  0.30623  0.83441  0.21642  1.0000
  O   O4        1.0  0.69609  0.16430  0.77282  1.0000
  O   O5        1.0  0.91658  0.31901  0.10971  1.0000
  O   O6        1.0  0.08095  0.68295  0.88974  1.0000
  O   O7        1.0  0.75923  0.48780  0.97666  1.0000
  O   O8        1.0  0.23644  0.51748  0.02583  1.0000
