data_image0
_chemical_formula_structural       Fe2H22C34N6O8
_chemical_formula_sum              "Fe2 H22 C34 N6 O8"
_cell_length_a       8.69951
_cell_length_b       9.0379
_cell_length_c       10.6693
_cell_angle_alpha    112.377
_cell_angle_beta     90.168
_cell_angle_gamma    102.148

_space_group_name_H-M_alt    "P 1"
_space_group_IT_number       1

loop_
  _space_group_symop_operation_xyz
  'x, y, z'

loop_
  _atom_site_type_symbol
  _atom_site_label
  _atom_site_symmetry_multiplicity
  _atom_site_fract_x
  _atom_site_fract_y
  _atom_site_fract_z
  _atom_site_occupancy
  Fe  Fe1       1.0  0.68855  0.60800  0.88771  1.0000
  Fe  Fe2       1.0  0.31144  0.39198  0.11229  1.0000
  H   H1        1.0  0.00963  0.60501  0.00496  1.0000
  H   H2        1.0  0.99038  0.39498  0.99504  1.0000
  H   H3        1.0  0.30010  0.64234  0.68806  1.0000
  H   H4        1.0  0.69990  0.35766  0.31193  1.0000
  H   H5        1.0  0.08024  0.73601  0.60039  1.0000
  H   H6        1.0  0.91975  0.26399  0.39962  1.0000
  H   H7        1.0  0.86759  0.73597  0.15973  1.0000
  H   H8        1.0  0.13241  0.26402  0.84028  1.0000
  H   H9        1.0  0.84035  0.92094  0.39092  1.0000
  H   H10       1.0  0.15966  0.07907  0.60908  1.0000
  H   H11       1.0  0.46450  0.05754  0.22152  1.0000
  H   H12       1.0  0.53551  0.94248  0.77847  1.0000
  H   H13       1.0  0.50709  0.86237  0.99617  1.0000
  H   H14       1.0  0.49291  0.13764  0.00383  1.0000
  H   H15       1.0  0.80298  0.06549  0.57985  1.0000
  H   H16       1.0  0.19703  0.93450  0.42015  1.0000
  H   H17       1.0  0.81881  0.31010  0.78994  1.0000
  H   H18       1.0  0.18119  0.68989  0.21007  1.0000
  H   H19       1.0  0.49576  0.47685  0.62420  1.0000
  H   H20       1.0  0.50424  0.52315  0.37580  1.0000
  H   H21       1.0  0.46756  0.24188  0.40283  1.0000
  H   H22       1.0  0.53245  0.75813  0.59716  1.0000
  C   C1        1.0  0.80154  0.77382  0.71446  1.0000
  C   C2        1.0  0.19846  0.22617  0.28555  1.0000
  C   C3        1.0  0.93325  0.71165  0.75319  1.0000
  C   C4        1.0  0.06675  0.28836  0.24682  1.0000
  C   C5        1.0  0.03003  0.63144  0.91483  1.0000
  C   C6        1.0  0.96996  0.36855  0.08516  1.0000
  C   C7        1.0  0.17316  0.62248  0.85620  1.0000
  C   C8        1.0  0.82683  0.37751  0.14379  1.0000
  C   C9        1.0  0.19192  0.65445  0.73800  1.0000
  C   C10       1.0  0.80808  0.34555  0.26200  1.0000
  C   C11       1.0  0.07155  0.70392  0.68906  1.0000
  C   C12       1.0  0.92845  0.29608  0.31094  1.0000
  C   C13       1.0  0.29805  0.56728  0.91438  1.0000
  C   C14       1.0  0.70196  0.43272  0.08563  1.0000
  C   C15       1.0  0.77804  0.80761  0.17749  1.0000
  C   C16       1.0  0.22196  0.19239  0.82252  1.0000
  C   C17       1.0  0.76140  0.91250  0.30797  1.0000
  C   C18       1.0  0.23859  0.08751  0.69203  1.0000
  C   C19       1.0  0.64789  0.00775  0.33057  1.0000
  C   C20       1.0  0.35211  0.99227  0.66942  1.0000
  C   C21       1.0  0.55405  0.98713  0.21468  1.0000
  C   C22       1.0  0.44595  0.01286  0.78531  1.0000
  C   C23       1.0  0.57697  0.87863  0.08719  1.0000
  C   C24       1.0  0.42305  0.12138  0.91280  1.0000
  C   C25       1.0  0.64153  0.13513  0.46552  1.0000
  C   C26       1.0  0.35847  0.86488  0.53447  1.0000
  C   C27       1.0  0.73667  0.15539  0.58046  1.0000
  C   C28       1.0  0.26331  0.84460  0.41954  1.0000
  C   C29       1.0  0.74538  0.29153  0.70017  1.0000
  C   C30       1.0  0.25462  0.70846  0.29983  1.0000
  C   C31       1.0  0.56404  0.38423  0.60762  1.0000
  C   C32       1.0  0.43597  0.61579  0.39239  1.0000
  C   C33       1.0  0.55006  0.25178  0.48410  1.0000
  C   C34       1.0  0.44994  0.74824  0.51591  1.0000
  N   N1        1.0  0.68626  0.78634  0.06633  1.0000
  N   N2        1.0  0.31375  0.21365  0.93368  1.0000
  N   N3        1.0  0.90795  0.66406  0.86029  1.0000
  N   N4        1.0  0.09204  0.33596  0.13971  1.0000
  N   N5        1.0  0.66365  0.40821  0.71468  1.0000
  N   N6        1.0  0.33636  0.59178  0.28531  1.0000
  O   O1        1.0  0.67545  0.75346  0.77776  1.0000
  O   O2        1.0  0.32454  0.24655  0.22223  1.0000
  O   O3        1.0  0.81852  0.84270  0.63237  1.0000
  O   O4        1.0  0.18147  0.15730  0.36764  1.0000
  O   O5        1.0  0.42213  0.55563  0.85455  1.0000
  O   O6        1.0  0.57786  0.44435  0.14544  1.0000
  O   O7        1.0  0.25957  0.53290  0.01763  1.0000
  O   O8        1.0  0.74045  0.46709  0.98236  1.0000
