data_image0
_chemical_formula_structural       Zn2H26C34S6N10O10
_chemical_formula_sum              "Zn2 H26 C34 S6 N10 O10"
_cell_length_a       9.46539
_cell_length_b       10.4273
_cell_length_c       11.093
_cell_angle_alpha    102.904
_cell_angle_beta     96.1623
_cell_angle_gamma    105.864

_space_group_name_H-M_alt    "P 1"
_space_group_IT_number       1

loop_
  _space_group_symop_operation_xyz
  'x, y, z'

loop_
  _atom_site_type_symbol
  _atom_site_label
  _atom_site_symmetry_multiplicity
  _atom_site_fract_x
  _atom_site_fract_y
  _atom_site_fract_z
  _atom_site_occupancy
  Zn  Zn1       1.0  0.41534  0.09592  0.14085  1.0000
  Zn  Zn2       1.0  0.58466  0.90408  0.85915  1.0000
  H   H1        1.0  0.38817  0.22093  0.91356  1.0000
  H   H2        1.0  0.61183  0.77907  0.08644  1.0000
  H   H3        1.0  0.54188  0.40564  0.83101  1.0000
  H   H4        1.0  0.45812  0.59435  0.16899  1.0000
  H   H5        1.0  0.92245  0.69672  0.13718  1.0000
  H   H6        1.0  0.07755  0.30328  0.86281  1.0000
  H   H7        1.0  0.79579  0.54927  0.95221  1.0000
  H   H8        1.0  0.20421  0.45073  0.04778  1.0000
  H   H9        1.0  0.70831  0.32403  0.23399  1.0000
  H   H10       1.0  0.29169  0.67597  0.76601  1.0000
  H   H11       1.0  0.17670  0.63080  0.37528  1.0000
  H   H12       1.0  0.82330  0.36920  0.62471  1.0000
  H   H13       1.0  0.43437  0.79379  0.45977  1.0000
  H   H14       1.0  0.56563  0.20621  0.54023  1.0000
  H   H15       1.0  0.52966  0.98870  0.35814  1.0000
  H   H16       1.0  0.47034  0.01130  0.64187  1.0000
  H   H17       1.0  0.13027  0.87142  0.11113  1.0000
  H   H18       1.0  0.86973  0.12858  0.88886  1.0000
  H   H19       1.0  0.03147  0.91779  0.81498  1.0000
  H   H20       1.0  0.96853  0.08221  0.18502  1.0000
  H   H21       1.0  0.07731  0.76046  0.78949  1.0000
  H   H22       1.0  0.92269  0.23954  0.21051  1.0000
  H   H23       1.0  0.16279  0.33607  0.37386  1.0000
  H   H24       1.0  0.83720  0.66393  0.62615  1.0000
  H   H25       1.0  0.32358  0.47482  0.37979  1.0000
  H   H26       1.0  0.67642  0.52518  0.62021  1.0000
  C   C1        1.0  0.49724  0.28769  0.96611  1.0000
  C   C2        1.0  0.50277  0.71231  0.03389  1.0000
  C   C3        1.0  0.58442  0.39063  0.92028  1.0000
  C   C4        1.0  0.41559  0.60937  0.07972  1.0000
  C   C5        1.0  0.72481  0.47103  0.98912  1.0000
  C   C6        1.0  0.27519  0.52897  0.01088  1.0000
  C   C7        1.0  0.77313  0.44710  0.10366  1.0000
  C   C8        1.0  0.22687  0.55290  0.89635  1.0000
  C   C9        1.0  0.67708  0.34367  0.14400  1.0000
  C   C10       1.0  0.32292  0.65633  0.85600  1.0000
  C   C11       1.0  0.92519  0.51817  0.18199  1.0000
  C   C12       1.0  0.07481  0.48183  0.81801  1.0000
  C   C13       1.0  0.13402  0.73673  0.23516  1.0000
  C   C14       1.0  0.86598  0.26327  0.76484  1.0000
  C   C15       1.0  0.22130  0.71617  0.33526  1.0000
  C   C16       1.0  0.77871  0.28383  0.66474  1.0000
  C   C17       1.0  0.36502  0.80763  0.38142  1.0000
  C   C18       1.0  0.63498  0.19238  0.61858  1.0000
  C   C19       1.0  0.41770  0.91572  0.32727  1.0000
  C   C20       1.0  0.58229  0.08428  0.67273  1.0000
  C   C21       1.0  0.19397  0.85043  0.18842  1.0000
  C   C22       1.0  0.80603  0.14957  0.81158  1.0000
  C   C23       1.0  0.26625  0.94197  0.87188  1.0000
  C   C24       1.0  0.73375  0.05804  0.12812  1.0000
  C   C25       1.0  0.11524  0.86895  0.78488  1.0000
  C   C26       1.0  0.88476  0.13105  0.21513  1.0000
  C   C27       1.0  0.17734  0.03087  0.63046  1.0000
  C   C28       1.0  0.82266  0.96913  0.36954  1.0000
  C   C29       1.0  0.26571  0.25955  0.60309  1.0000
  C   C30       1.0  0.73429  0.74044  0.39691  1.0000
  C   C31       1.0  0.28459  0.37422  0.40121  1.0000
  C   C32       1.0  0.71540  0.62578  0.59879  1.0000
  C   C33       1.0  0.35600  0.27635  0.32395  1.0000
  C   C34       1.0  0.64399  0.72365  0.67605  1.0000
  S   S1        1.0  0.33774  0.41714  0.56984  1.0000
  S   S2        1.0  0.66226  0.58286  0.43016  1.0000
  S   S3        1.0  0.22150  0.09367  0.50214  1.0000
  S   S4        1.0  0.77850  0.90633  0.49786  1.0000
  S   S5        1.0  0.12123  0.85560  0.62086  1.0000
  S   S6        1.0  0.87877  0.14440  0.37914  1.0000
  N   N1        1.0  0.33252  0.93654  0.23250  1.0000
  N   N2        1.0  0.66748  0.06346  0.76750  1.0000
  N   N3        1.0  0.54319  0.26465  0.07623  1.0000
  N   N4        1.0  0.45681  0.73535  0.92377  1.0000
  N   N5        1.0  0.99005  0.65069  0.17694  1.0000
  N   N6        1.0  0.00995  0.34931  0.82306  1.0000
  N   N7        1.0  0.19729  0.12887  0.73505  1.0000
  N   N8        1.0  0.80271  0.87113  0.26495  1.0000
  N   N9        1.0  0.24786  0.25843  0.71894  1.0000
  N   N10       1.0  0.75214  0.74156  0.28106  1.0000
  O   O1        1.0  0.25693  0.98728  0.98608  1.0000
  O   O2        1.0  0.74307  0.01272  0.01393  1.0000
  O   O3        1.0  0.38480  0.94917  0.82773  1.0000
  O   O4        1.0  0.61520  0.05083  0.17227  1.0000
  O   O5        1.0  0.47762  0.26274  0.36786  1.0000
  O   O6        1.0  0.52238  0.73727  0.63214  1.0000
  O   O7        1.0  0.28210  0.21380  0.21259  1.0000
  O   O8        1.0  0.71790  0.78620  0.78741  1.0000
  O   O9        1.0  0.98803  0.45688  0.24345  1.0000
  O   O10       1.0  0.01197  0.54311  0.75655  1.0000
