data_image0
_chemical_formula_structural       Cd2H26C34S6N10O10
_chemical_formula_sum              "Cd2 H26 C34 S6 N10 O10"
_cell_length_a       9.40722
_cell_length_b       9.59275
_cell_length_c       12.4504
_cell_angle_alpha    69.3054
_cell_angle_beta     71.7958
_cell_angle_gamma    81.221

_space_group_name_H-M_alt    "P 1"
_space_group_IT_number       1

loop_
  _space_group_symop_operation_xyz
  'x, y, z'

loop_
  _atom_site_type_symbol
  _atom_site_label
  _atom_site_symmetry_multiplicity
  _atom_site_fract_x
  _atom_site_fract_y
  _atom_site_fract_z
  _atom_site_occupancy
  Cd  Cd1       1.0  0.84608  0.36829  0.61693  1.0000
  Cd  Cd2       1.0  0.15392  0.63171  0.38308  1.0000
  H   H1        1.0  0.87185  0.56959  0.78699  1.0000
  H   H2        1.0  0.12815  0.43041  0.21302  1.0000
  H   H3        1.0  0.81569  0.75787  0.72288  1.0000
  H   H4        1.0  0.18430  0.24213  0.27713  1.0000
  H   H5        1.0  0.23708  0.87456  0.59887  1.0000
  H   H6        1.0  0.76292  0.12545  0.40113  1.0000
  H   H7        1.0  0.55690  0.12213  0.01840  1.0000
  H   H8        1.0  0.44310  0.87787  0.98161  1.0000
  H   H9        1.0  0.42352  0.16163  0.93579  1.0000
  H   H10       1.0  0.57648  0.83838  0.06421  1.0000
  H   H11       1.0  0.09076  0.10822  0.56707  1.0000
  H   H12       1.0  0.90925  0.89179  0.43292  1.0000
  H   H13       1.0  0.96547  0.29807  0.83718  1.0000
  H   H14       1.0  0.03453  0.70193  0.16282  1.0000
  H   H15       1.0  0.14619  0.12800  0.94101  1.0000
  H   H16       1.0  0.85382  0.87200  0.05899  1.0000
  H   H17       1.0  0.30971  0.94243  0.84784  1.0000
  H   H18       1.0  0.69028  0.05757  0.15216  1.0000
  H   H19       1.0  0.61796  0.60901  0.69998  1.0000
  H   H20       1.0  0.38203  0.39099  0.30001  1.0000
  H   H21       1.0  0.73561  0.51554  0.38074  1.0000
  H   H22       1.0  0.26439  0.48446  0.61925  1.0000
  H   H23       1.0  0.55844  0.71564  0.30022  1.0000
  H   H24       1.0  0.44156  0.28437  0.69978  1.0000
  H   H25       1.0  0.40592  0.86946  0.42374  1.0000
  H   H26       1.0  0.59407  0.13054  0.57626  1.0000
  C   C1        1.0  0.91343  0.68181  0.73742  1.0000
  C   C2        1.0  0.08657  0.31819  0.26258  1.0000
  C   C3        1.0  0.12309  0.61397  0.85952  1.0000
  C   C4        1.0  0.87692  0.38603  0.14048  1.0000
  C   C5        1.0  0.30915  0.44784  0.94115  1.0000
  C   C6        1.0  0.69085  0.55216  0.05885  1.0000
  C   C7        1.0  0.50781  0.21069  0.95389  1.0000
  C   C8        1.0  0.49219  0.78931  0.04611  1.0000
  C   C9        1.0  0.63173  0.27252  0.83791  1.0000
  C   C10       1.0  0.36827  0.72748  0.16210  1.0000
  C   C11       1.0  0.10732  0.11038  0.64943  1.0000
  C   C12       1.0  0.89269  0.88963  0.35057  1.0000
  C   C13       1.0  0.03672  0.21486  0.80152  1.0000
  C   C14       1.0  0.96328  0.78514  0.19848  1.0000
  C   C15       1.0  0.13791  0.11993  0.85807  1.0000
  C   C16       1.0  0.86209  0.88006  0.14193  1.0000
  C   C17       1.0  0.22820  0.01747  0.80724  1.0000
  C   C18       1.0  0.77180  0.98253  0.19276  1.0000
  C   C19       1.0  0.21312  0.01195  0.70017  1.0000
  C   C20       1.0  0.78688  0.98805  0.29982  1.0000
  C   C21       1.0  0.43141  0.84530  0.65120  1.0000
  C   C22       1.0  0.56859  0.15470  0.34880  1.0000
  C   C23       1.0  0.50130  0.75197  0.57252  1.0000
  C   C24       1.0  0.49870  0.24803  0.42748  1.0000
  C   C25       1.0  0.60205  0.63612  0.61166  1.0000
  C   C26       1.0  0.39795  0.36388  0.38834  1.0000
  C   C27       1.0  0.66629  0.58272  0.43429  1.0000
  C   C28       1.0  0.33371  0.41728  0.56571  1.0000
  C   C29       1.0  0.56756  0.69505  0.38942  1.0000
  C   C30       1.0  0.43244  0.30495  0.61058  1.0000
  C   C31       1.0  0.48192  0.78004  0.45961  1.0000
  C   C32       1.0  0.51808  0.21996  0.54039  1.0000
  C   C33       1.0  0.01956  0.68503  0.61578  1.0000
  C   C34       1.0  0.98043  0.31496  0.38423  1.0000
  S   S1        1.0  0.98081  0.74748  0.83047  1.0000
  S   S2        1.0  0.01919  0.25252  0.16953  1.0000
  S   S3        1.0  0.20657  0.60623  0.96854  1.0000
  S   S4        1.0  0.79343  0.39377  0.03146  1.0000
  S   S5        1.0  0.42021  0.34189  0.03190  1.0000
  S   S6        1.0  0.57979  0.65811  0.96811  1.0000
  N   N1        1.0  0.02226  0.20906  0.69899  1.0000
  N   N2        1.0  0.97774  0.79094  0.30100  1.0000
  N   N3        1.0  0.68120  0.55255  0.54465  1.0000
  N   N4        1.0  0.31880  0.44746  0.45534  1.0000
  N   N5        1.0  0.29439  0.91196  0.64166  1.0000
  N   N6        1.0  0.70561  0.08804  0.35834  1.0000
  N   N7        1.0  0.17552  0.51075  0.80834  1.0000
  N   N8        1.0  0.82449  0.48925  0.19166  1.0000
  N   N9        1.0  0.28196  0.41576  0.85528  1.0000
  N   N10       1.0  0.71804  0.58423  0.14472  1.0000
  O   O1        1.0  0.70021  0.38579  0.82166  1.0000
  O   O2        1.0  0.29980  0.61421  0.17834  1.0000
  O   O3        1.0  0.66027  0.20181  0.76364  1.0000
  O   O4        1.0  0.33973  0.79820  0.23636  1.0000
  O   O5        1.0  0.99407  0.58761  0.57556  1.0000
  O   O6        1.0  0.00592  0.41239  0.42444  1.0000
  O   O7        1.0  0.11759  0.78024  0.55669  1.0000
  O   O8        1.0  0.88240  0.21976  0.44331  1.0000
  O   O9        1.0  0.49916  0.86249  0.71644  1.0000
  O   O10       1.0  0.50083  0.13751  0.28356  1.0000
