data_image0
_chemical_formula_structural       Cd4H44C60N16O20
_chemical_formula_sum              "Cd4 H44 C60 N16 O20"
_cell_length_a       9.08919
_cell_length_b       9.21239
_cell_length_c       18.0351
_cell_angle_alpha    90
_cell_angle_beta     100.507
_cell_angle_gamma    89.9999

_space_group_name_H-M_alt    "P 1"
_space_group_IT_number       1

loop_
  _space_group_symop_operation_xyz
  'x, y, z'

loop_
  _atom_site_type_symbol
  _atom_site_label
  _atom_site_symmetry_multiplicity
  _atom_site_fract_x
  _atom_site_fract_y
  _atom_site_fract_z
  _atom_site_occupancy
  Cd  Cd1       1.0  0.84826  0.56397  0.17910  1.0000
  Cd  Cd2       1.0  0.65174  0.06397  0.32090  1.0000
  Cd  Cd3       1.0  0.15174  0.43602  0.82090  1.0000
  Cd  Cd4       1.0  0.34826  0.93602  0.67910  1.0000
  H   H1        1.0  0.68065  0.41862  0.27365  1.0000
  H   H2        1.0  0.81935  0.91862  0.22635  1.0000
  H   H3        1.0  0.31935  0.58138  0.72635  1.0000
  H   H4        1.0  0.18065  0.08138  0.77365  1.0000
  H   H5        1.0  0.62636  0.35016  0.19565  1.0000
  H   H6        1.0  0.87364  0.85016  0.30435  1.0000
  H   H7        1.0  0.37364  0.64984  0.80435  1.0000
  H   H8        1.0  0.12636  0.14984  0.69565  1.0000
  H   H9        1.0  0.70551  0.27149  0.08903  1.0000
  H   H10       1.0  0.79449  0.77149  0.41097  1.0000
  H   H11       1.0  0.29449  0.72850  0.91097  1.0000
  H   H12       1.0  0.20551  0.22851  0.58903  1.0000
  H   H13       1.0  0.76256  0.09379  0.99374  1.0000
  H   H14       1.0  0.73744  0.59379  0.50626  1.0000
  H   H15       1.0  0.23745  0.90621  0.00626  1.0000
  H   H16       1.0  0.26256  0.40621  0.49374  1.0000
  H   H17       1.0  0.00933  0.11414  0.94942  1.0000
  H   H18       1.0  0.49067  0.61414  0.55058  1.0000
  H   H19       1.0  0.99067  0.88586  0.05058  1.0000
  H   H20       1.0  0.50933  0.38586  0.44942  1.0000
  H   H21       1.0  0.18511  0.31263  0.00292  1.0000
  H   H22       1.0  0.31489  0.81263  0.49707  1.0000
  H   H23       1.0  0.81489  0.68737  0.99708  1.0000
  H   H24       1.0  0.68511  0.18737  0.50293  1.0000
  H   H25       1.0  0.35998  0.47951  0.06660  1.0000
  H   H26       1.0  0.14002  0.97951  0.43340  1.0000
  H   H27       1.0  0.64002  0.52050  0.93340  1.0000
  H   H28       1.0  0.85998  0.02049  0.56660  1.0000
  H   H29       1.0  0.43751  0.71481  0.16052  1.0000
  H   H30       1.0  0.06249  0.21481  0.33948  1.0000
  H   H31       1.0  0.56249  0.28520  0.83948  1.0000
  H   H32       1.0  0.93751  0.78519  0.66052  1.0000
  H   H33       1.0  0.31162  0.81828  0.26950  1.0000
  H   H34       1.0  0.18838  0.31828  0.23050  1.0000
  H   H35       1.0  0.68838  0.18172  0.73050  1.0000
  H   H36       1.0  0.81162  0.68172  0.76950  1.0000
  H   H37       1.0  0.11664  0.78319  0.26294  1.0000
  H   H38       1.0  0.38336  0.28319  0.23706  1.0000
  H   H39       1.0  0.88336  0.21681  0.73706  1.0000
  H   H40       1.0  0.61664  0.71681  0.76294  1.0000
  H   H41       1.0  0.09493  0.71622  0.44237  1.0000
  H   H42       1.0  0.40507  0.21623  0.05762  1.0000
  H   H43       1.0  0.90507  0.28378  0.55763  1.0000
  H   H44       1.0  0.59493  0.78378  0.94237  1.0000
  C   C1        1.0  0.81134  0.27609  0.06892  1.0000
  C   C2        1.0  0.68865  0.77609  0.43108  1.0000
  C   C3        1.0  0.18865  0.72391  0.93108  1.0000
  C   C4        1.0  0.31135  0.22391  0.56892  1.0000
  C   C5        1.0  0.84377  0.17680  0.01586  1.0000
  C   C6        1.0  0.65623  0.67681  0.48414  1.0000
  C   C7        1.0  0.15623  0.82320  0.98414  1.0000
  C   C8        1.0  0.34377  0.32320  0.51586  1.0000
  C   C9        1.0  0.98024  0.18817  0.99155  1.0000
  C   C10       1.0  0.51976  0.68817  0.50845  1.0000
  C   C11       1.0  0.01976  0.81183  0.00845  1.0000
  C   C12       1.0  0.48024  0.31183  0.49155  1.0000
  C   C13       1.0  0.07909  0.29713  0.02148  1.0000
  C   C14       1.0  0.42091  0.79713  0.47852  1.0000
  C   C15       1.0  0.92091  0.70287  0.97852  1.0000
  C   C16       1.0  0.57909  0.20286  0.52148  1.0000
  C   C17       1.0  0.04014  0.39142  0.07522  1.0000
  C   C18       1.0  0.45986  0.89142  0.42478  1.0000
  C   C19       1.0  0.95986  0.60858  0.92478  1.0000
  C   C20       1.0  0.54014  0.10858  0.57522  1.0000
  C   C21       1.0  0.14216  0.50596  0.10876  1.0000
  C   C22       1.0  0.35784  0.00596  0.39124  1.0000
  C   C23       1.0  0.85784  0.49405  0.89124  1.0000
  C   C24       1.0  0.64216  0.99404  0.60876  1.0000
  C   C25       1.0  0.29170  0.53467  0.10128  1.0000
  C   C26       1.0  0.20830  0.03467  0.39872  1.0000
  C   C27       1.0  0.70830  0.46534  0.89872  1.0000
  C   C28       1.0  0.79170  0.96533  0.60128  1.0000
  C   C29       1.0  0.33423  0.65356  0.14705  1.0000
  C   C30       1.0  0.16577  0.15356  0.35294  1.0000
  C   C31       1.0  0.66577  0.34644  0.85295  1.0000
  C   C32       1.0  0.83423  0.84643  0.64706  1.0000
  C   C33       1.0  0.20434  0.80923  0.23042  1.0000
  C   C34       1.0  0.29565  0.30924  0.26958  1.0000
  C   C35       1.0  0.79566  0.19076  0.76959  1.0000
  C   C36       1.0  0.70434  0.69076  0.73042  1.0000
  C   C37       1.0  0.17121  0.94766  0.19129  1.0000
  C   C38       1.0  0.32879  0.44768  0.30872  1.0000
  C   C39       1.0  0.82879  0.05233  0.80872  1.0000
  C   C40       1.0  0.67121  0.55232  0.69128  1.0000
  C   C41       1.0  0.97405  0.51599  0.42088  1.0000
  C   C42       1.0  0.52595  0.01600  0.07912  1.0000
  C   C43       1.0  0.02596  0.48400  0.57912  1.0000
  C   C44       1.0  0.47405  0.98400  0.92088  1.0000
  C   C45       1.0  0.91929  0.39274  0.45343  1.0000
  C   C46       1.0  0.58072  0.89274  0.04657  1.0000
  C   C47       1.0  0.08071  0.60726  0.54656  1.0000
  C   C48       1.0  0.41929  0.10726  0.95343  1.0000
  C   C49       1.0  0.05251  0.62155  0.46796  1.0000
  C   C50       1.0  0.44749  0.12155  0.03204  1.0000
  C   C51       1.0  0.94749  0.37845  0.53204  1.0000
  C   C52       1.0  0.55251  0.87845  0.96796  1.0000
  C   C53       1.0  0.95354  0.53392  0.33678  1.0000
  C   C54       1.0  0.54646  0.03392  0.16321  1.0000
  C   C55       1.0  0.04646  0.46608  0.66321  1.0000
  C   C56       1.0  0.45354  0.96608  0.83679  1.0000
  C   C57       1.0  0.82508  0.27812  0.40778  1.0000
  C   C58       1.0  0.67492  0.77812  0.09222  1.0000
  C   C59       1.0  0.17492  0.72188  0.59222  1.0000
  C   C60       1.0  0.32509  0.22188  0.90778  1.0000
  N   N1        1.0  0.90668  0.38104  0.09808  1.0000
  N   N2        1.0  0.59332  0.88104  0.40192  1.0000
  N   N3        1.0  0.09332  0.61896  0.90192  1.0000
  N   N4        1.0  0.40668  0.11896  0.59808  1.0000
  N   N5        1.0  0.09642  0.60260  0.15593  1.0000
  N   N6        1.0  0.40358  0.10260  0.34406  1.0000
  N   N7        1.0  0.90358  0.39741  0.84407  1.0000
  N   N8        1.0  0.59642  0.89740  0.65593  1.0000
  N   N9        1.0  0.21420  0.69095  0.17828  1.0000
  N   N10       1.0  0.28579  0.19095  0.32172  1.0000
  N   N11       1.0  0.78579  0.30906  0.82172  1.0000
  N   N12       1.0  0.71421  0.80905  0.67828  1.0000
  N   N13       1.0  0.14739  0.05834  0.16029  1.0000
  N   N14       1.0  0.35261  0.55833  0.33971  1.0000
  N   N15       1.0  0.85261  0.94166  0.83971  1.0000
  N   N16       1.0  0.64739  0.44167  0.66029  1.0000
  O   O1        1.0  0.97487  0.42585  0.29702  1.0000
  O   O2        1.0  0.52513  0.92586  0.20297  1.0000
  O   O3        1.0  0.02513  0.57414  0.70298  1.0000
  O   O4        1.0  0.47487  0.07414  0.79702  1.0000
  O   O5        1.0  0.91254  0.65881  0.30845  1.0000
  O   O6        1.0  0.58746  0.15882  0.19155  1.0000
  O   O7        1.0  0.08746  0.34118  0.69155  1.0000
  O   O8        1.0  0.41254  0.84118  0.80845  1.0000
  O   O9        1.0  0.71461  0.31704  0.35698  1.0000
  O   O10       1.0  0.78539  0.81703  0.14302  1.0000
  O   O11       1.0  0.28538  0.68297  0.64302  1.0000
  O   O12       1.0  0.21462  0.18297  0.85698  1.0000
  O   O13       1.0  0.85395  0.14615  0.42459  1.0000
  O   O14       1.0  0.64605  0.64615  0.07541  1.0000
  O   O15       1.0  0.14605  0.85385  0.57541  1.0000
  O   O16       1.0  0.35395  0.35385  0.92459  1.0000
  O   O17       1.0  0.64889  0.44587  0.21978  1.0000
  O   O18       1.0  0.85111  0.94586  0.28022  1.0000
  O   O19       1.0  0.35111  0.55413  0.78022  1.0000
  O   O20       1.0  0.14889  0.05413  0.71978  1.0000
