data_image0
_chemical_formula_structural       Cd2H38C52N6O8
_chemical_formula_sum              "Cd2 H38 C52 N6 O8"
_cell_length_a       10.3557
_cell_length_b       10.1773
_cell_length_c       12.0197
_cell_angle_alpha    93.853
_cell_angle_beta     111.835
_cell_angle_gamma    105.87

_space_group_name_H-M_alt    "P 1"
_space_group_IT_number       1

loop_
  _space_group_symop_operation_xyz
  'x, y, z'

loop_
  _atom_site_type_symbol
  _atom_site_label
  _atom_site_symmetry_multiplicity
  _atom_site_fract_x
  _atom_site_fract_y
  _atom_site_fract_z
  _atom_site_occupancy
  Cd  Cd1       1.0  0.61302  0.17907  0.11220  1.0000
  Cd  Cd2       1.0  0.38698  0.82093  0.88780  1.0000
  H   H1        1.0  0.44792  0.33630  0.66165  1.0000
  H   H2        1.0  0.55208  0.66370  0.33834  1.0000
  H   H3        1.0  0.60266  0.57829  0.83670  1.0000
  H   H4        1.0  0.39733  0.42171  0.16330  1.0000
  H   H5        1.0  0.73772  0.70399  0.03939  1.0000
  H   H6        1.0  0.26227  0.29601  0.96061  1.0000
  H   H7        1.0  0.89003  0.82531  0.25687  1.0000
  H   H8        1.0  0.10995  0.17468  0.74314  1.0000
  H   H9        1.0  0.93415  0.68130  0.42081  1.0000
  H   H10       1.0  0.06583  0.31868  0.57920  1.0000
  H   H11       1.0  0.82157  0.42171  0.35895  1.0000
  H   H12       1.0  0.17842  0.57827  0.64104  1.0000
  H   H13       1.0  0.08191  0.13951  0.36235  1.0000
  H   H14       1.0  0.91810  0.86048  0.63765  1.0000
  H   H15       1.0  0.73986  0.94338  0.47564  1.0000
  H   H16       1.0  0.26014  0.05662  0.52436  1.0000
  H   H17       1.0  0.17526  0.19941  0.16743  1.0000
  H   H18       1.0  0.82474  0.80060  0.83257  1.0000
  H   H19       1.0  0.09448  0.86781  0.88391  1.0000
  H   H20       1.0  0.90553  0.13221  0.11608  1.0000
  H   H21       1.0  0.43874  0.13628  0.77994  1.0000
  H   H22       1.0  0.56125  0.86371  0.22006  1.0000
  H   H23       1.0  0.55763  0.07479  0.56863  1.0000
  H   H24       1.0  0.44237  0.92521  0.43136  1.0000
  H   H25       1.0  0.43066  0.14542  0.37128  1.0000
  H   H26       1.0  0.56935  0.85458  0.62872  1.0000
  H   H27       1.0  0.51299  0.38974  0.34809  1.0000
  H   H28       1.0  0.48702  0.61027  0.65191  1.0000
  H   H29       1.0  0.72453  0.56580  0.51740  1.0000
  H   H30       1.0  0.27548  0.43421  0.48260  1.0000
  H   H31       1.0  0.75394  0.13093  0.77406  1.0000
  H   H32       1.0  0.24605  0.86907  0.22594  1.0000
  H   H33       1.0  0.96455  0.30458  0.94265  1.0000
  H   H34       1.0  0.03544  0.69541  0.05735  1.0000
  H   H35       1.0  0.04809  0.55103  0.91943  1.0000
  H   H36       1.0  0.95191  0.44897  0.08057  1.0000
  H   H37       1.0  0.92626  0.62418  0.72632  1.0000
  H   H38       1.0  0.07375  0.37582  0.27368  1.0000
  C   C1        1.0  0.49864  0.35142  0.76041  1.0000
  C   C2        1.0  0.50135  0.64858  0.23959  1.0000
  C   C3        1.0  0.57788  0.47110  0.84926  1.0000
  C   C4        1.0  0.42212  0.52890  0.15074  1.0000
  C   C5        1.0  0.61623  0.42304  0.96086  1.0000
  C   C6        1.0  0.38377  0.57696  0.03914  1.0000
  C   C7        1.0  0.70006  0.50038  0.08623  1.0000
  C   C8        1.0  0.29993  0.49961  0.91377  1.0000
  C   C9        1.0  0.75818  0.64569  0.11315  1.0000
  C   C10       1.0  0.24182  0.35430  0.88685  1.0000
  C   C11       1.0  0.84224  0.71240  0.23408  1.0000
  C   C12       1.0  0.15775  0.28759  0.76592  1.0000
  C   C13       1.0  0.86693  0.63295  0.32538  1.0000
  C   C14       1.0  0.13306  0.36704  0.67461  1.0000
  C   C15       1.0  0.80477  0.48883  0.29154  1.0000
  C   C16       1.0  0.19523  0.51117  0.70846  1.0000
  C   C17       1.0  0.79527  0.09440  0.31088  1.0000
  C   C18       1.0  0.20473  0.90561  0.68913  1.0000
  C   C19       1.0  0.90065  0.04642  0.40957  1.0000
  C   C20       1.0  0.09934  0.95357  0.59043  1.0000
  C   C21       1.0  0.04743  0.07884  0.42362  1.0000
  C   C22       1.0  0.95257  0.92116  0.57638  1.0000
  C   C23       1.0  0.85381  0.96728  0.48678  1.0000
  C   C24       1.0  0.14619  0.03271  0.51322  1.0000
  C   C25       1.0  0.31296  0.07973  0.06125  1.0000
  C   C26       1.0  0.68704  0.92027  0.93875  1.0000
  C   C27       1.0  0.15131  0.03694  0.02987  1.0000
  C   C28       1.0  0.84870  0.96307  0.97013  1.0000
  C   C29       1.0  0.09741  0.11192  0.09439  1.0000
  C   C30       1.0  0.90259  0.88809  0.90561  1.0000
  C   C31       1.0  0.05274  0.92455  0.93516  1.0000
  C   C32       1.0  0.94726  0.07547  0.06483  1.0000
  C   C33       1.0  0.59399  0.18120  0.55515  1.0000
  C   C34       1.0  0.40601  0.81881  0.44485  1.0000
  C   C35       1.0  0.52248  0.22076  0.44753  1.0000
  C   C36       1.0  0.47753  0.77925  0.55247  1.0000
  C   C37       1.0  0.56993  0.36053  0.43386  1.0000
  C   C38       1.0  0.43008  0.63948  0.56614  1.0000
  C   C39       1.0  0.68777  0.45775  0.52765  1.0000
  C   C40       1.0  0.31225  0.54225  0.47236  1.0000
  C   C41       1.0  0.76425  0.41991  0.63897  1.0000
  C   C42       1.0  0.23575  0.58009  0.36103  1.0000
  C   C43       1.0  0.71611  0.27804  0.65273  1.0000
  C   C44       1.0  0.28390  0.72197  0.34726  1.0000
  C   C45       1.0  0.79055  0.23903  0.76402  1.0000
  C   C46       1.0  0.20945  0.76098  0.23598  1.0000
  C   C47       1.0  0.90684  0.33621  0.85824  1.0000
  C   C48       1.0  0.09317  0.66379  0.14176  1.0000
  C   C49       1.0  0.95430  0.47613  0.84483  1.0000
  C   C50       1.0  0.04571  0.52387  0.15517  1.0000
  C   C51       1.0  0.88558  0.51715  0.73747  1.0000
  C   C52       1.0  0.11442  0.48285  0.26254  1.0000
  N   N1        1.0  0.49306  0.24166  0.81828  1.0000
  N   N2        1.0  0.50693  0.75834  0.18172  1.0000
  N   N3        1.0  0.56367  0.28275  0.93971  1.0000
  N   N4        1.0  0.43633  0.71725  0.06028  1.0000
  N   N5        1.0  0.72244  0.42423  0.17537  1.0000
  N   N6        1.0  0.27756  0.57577  0.82463  1.0000
  O   O1        1.0  0.84802  0.19330  0.26471  1.0000
  O   O2        1.0  0.15198  0.80670  0.73530  1.0000
  O   O3        1.0  0.65682  0.03469  0.27492  1.0000
  O   O4        1.0  0.34318  0.96530  0.72507  1.0000
  O   O5        1.0  0.39601  0.19169  0.13806  1.0000
  O   O6        1.0  0.60399  0.80831  0.86196  1.0000
  O   O7        1.0  0.36461  0.00599  0.00954  1.0000
  O   O8        1.0  0.63539  0.99401  0.99047  1.0000
