data_image0
_chemical_formula_structural       Ag8H16C16O20
_chemical_formula_sum              "Ag8 H16 C16 O20"
_cell_length_a       5.44711
_cell_length_b       6.5311
_cell_length_c       19.052
_cell_angle_alpha    90.0002
_cell_angle_beta     89.9998
_cell_angle_gamma    110.92

_space_group_name_H-M_alt    "P 1"
_space_group_IT_number       1

loop_
  _space_group_symop_operation_xyz
  'x, y, z'

loop_
  _atom_site_type_symbol
  _atom_site_label
  _atom_site_symmetry_multiplicity
  _atom_site_fract_x
  _atom_site_fract_y
  _atom_site_fract_z
  _atom_site_occupancy
  Ag  Ag1       1.0  0.40324  0.95092  0.60112  1.0000
  Ag  Ag2       1.0  0.59676  0.54907  0.10112  1.0000
  Ag  Ag3       1.0  0.59674  0.04907  0.39888  1.0000
  Ag  Ag4       1.0  0.40326  0.45093  0.89888  1.0000
  Ag  Ag5       1.0  0.27118  0.71804  0.17662  1.0000
  Ag  Ag6       1.0  0.72883  0.78196  0.67661  1.0000
  Ag  Ag7       1.0  0.72884  0.28195  0.82339  1.0000
  Ag  Ag8       1.0  0.27116  0.21805  0.32339  1.0000
  H   H1        1.0  0.10444  0.98703  0.83390  1.0000
  H   H2        1.0  0.89554  0.51296  0.33390  1.0000
  H   H3        1.0  0.89558  0.01299  0.16610  1.0000
  H   H4        1.0  0.10441  0.48701  0.66610  1.0000
  H   H5        1.0  0.93933  0.70134  0.82064  1.0000
  H   H6        1.0  0.06066  0.79865  0.32065  1.0000
  H   H7        1.0  0.06066  0.29867  0.17936  1.0000
  H   H8        1.0  0.93934  0.20131  0.67936  1.0000
  H   H9        1.0  0.90934  0.72676  0.94852  1.0000
  H   H10       1.0  0.09066  0.77326  0.44852  1.0000
  H   H11       1.0  0.09070  0.27325  0.05149  1.0000
  H   H12       1.0  0.90930  0.22675  0.55148  1.0000
  H   H13       1.0  0.15121  0.99444  0.95663  1.0000
  H   H14       1.0  0.84883  0.50557  0.45663  1.0000
  H   H15       1.0  0.84885  0.00558  0.04338  1.0000
  H   H16       1.0  0.15115  0.49443  0.54338  1.0000
  C   C1        1.0  0.22902  0.74869  0.01721  1.0000
  C   C2        1.0  0.77099  0.75132  0.51721  1.0000
  C   C3        1.0  0.77102  0.25132  0.98279  1.0000
  C   C4        1.0  0.22897  0.24868  0.48278  1.0000
  C   C5        1.0  0.30273  0.84245  0.76451  1.0000
  C   C6        1.0  0.69727  0.65754  0.26451  1.0000
  C   C7        1.0  0.69728  0.15755  0.23549  1.0000
  C   C8        1.0  0.30272  0.34245  0.73548  1.0000
  C   C9        1.0  0.13564  0.82959  0.82910  1.0000
  C   C10       1.0  0.86436  0.67041  0.32910  1.0000
  C   C11       1.0  0.86438  0.17043  0.17090  1.0000
  C   C12       1.0  0.13562  0.32957  0.67090  1.0000
  C   C13       1.0  0.12329  0.81935  0.95165  1.0000
  C   C14       1.0  0.87671  0.68066  0.45164  1.0000
  C   C15       1.0  0.87675  0.18067  0.04836  1.0000
  C   C16       1.0  0.12325  0.31934  0.54836  1.0000
  O   O1        1.0  0.11728  0.76955  0.07415  1.0000
  O   O2        1.0  0.88274  0.73045  0.57415  1.0000
  O   O3        1.0  0.88276  0.23042  0.92586  1.0000
  O   O4        1.0  0.11723  0.26958  0.42585  1.0000
  O   O5        1.0  0.19082  0.85195  0.70653  1.0000
  O   O6        1.0  0.80918  0.64805  0.20653  1.0000
  O   O7        1.0  0.80917  0.14804  0.29347  1.0000
  O   O8        1.0  0.19082  0.35196  0.79346  1.0000
  O   O9        1.0  0.41408  0.67531  0.01097  1.0000
  O   O10       1.0  0.58593  0.82470  0.51097  1.0000
  O   O11       1.0  0.58595  0.32469  0.98902  1.0000
  O   O12       1.0  0.41403  0.17530  0.48902  1.0000
  O   O13       1.0  0.53697  0.84776  0.77147  1.0000
  O   O14       1.0  0.46304  0.65222  0.27147  1.0000
  O   O15       1.0  0.46304  0.15224  0.22853  1.0000
  O   O16       1.0  0.53696  0.34776  0.72853  1.0000
  O   O17       1.0  0.25541  0.78552  0.89062  1.0000
  O   O18       1.0  0.74458  0.71448  0.39062  1.0000
  O   O19       1.0  0.74461  0.21450  0.10938  1.0000
  O   O20       1.0  0.25539  0.28550  0.60937  1.0000
