data_image0
_chemical_formula_structural       Ag8H16C16O20
_chemical_formula_sum              "Ag8 H16 C16 O20"
_cell_length_a       5.58145
_cell_length_b       10.1609
_cell_length_c       11.0258
_cell_angle_alpha    91.9892
_cell_angle_beta     90.0002
_cell_angle_gamma    89.9994

_space_group_name_H-M_alt    "P 1"
_space_group_IT_number       1

loop_
  _space_group_symop_operation_xyz
  'x, y, z'

loop_
  _atom_site_type_symbol
  _atom_site_label
  _atom_site_symmetry_multiplicity
  _atom_site_fract_x
  _atom_site_fract_y
  _atom_site_fract_z
  _atom_site_occupancy
  Ag  Ag1       1.0  0.49400  0.05471  0.87873  1.0000
  Ag  Ag2       1.0  0.99400  0.94529  0.62127  1.0000
  Ag  Ag3       1.0  0.50600  0.94529  0.12127  1.0000
  Ag  Ag4       1.0  0.00601  0.05471  0.37873  1.0000
  Ag  Ag5       1.0  0.70049  0.57495  0.02939  1.0000
  Ag  Ag6       1.0  0.20049  0.42505  0.47061  1.0000
  Ag  Ag7       1.0  0.29952  0.42505  0.97062  1.0000
  Ag  Ag8       1.0  0.79952  0.57495  0.52939  1.0000
  H   H1        1.0  0.51211  0.66890  0.82278  1.0000
  H   H2        1.0  0.01213  0.33109  0.67722  1.0000
  H   H3        1.0  0.48787  0.33110  0.17723  1.0000
  H   H4        1.0  0.98788  0.66890  0.32278  1.0000
  H   H5        1.0  0.55184  0.77593  0.69912  1.0000
  H   H6        1.0  0.05184  0.22408  0.80089  1.0000
  H   H7        1.0  0.44816  0.22408  0.30089  1.0000
  H   H8        1.0  0.94814  0.77592  0.19911  1.0000
  H   H9        1.0  0.22814  0.78029  0.99013  1.0000
  H   H10       1.0  0.72815  0.21970  0.50987  1.0000
  H   H11       1.0  0.77186  0.21970  0.00987  1.0000
  H   H12       1.0  0.27187  0.78030  0.49012  1.0000
  H   H13       1.0  0.07020  0.67780  0.88174  1.0000
  H   H14       1.0  0.57020  0.32219  0.61826  1.0000
  H   H15       1.0  0.92980  0.32219  0.11826  1.0000
  H   H16       1.0  0.42980  0.67781  0.38173  1.0000
  C   C1        1.0  0.41705  0.72753  0.75497  1.0000
  C   C2        1.0  0.91705  0.27248  0.74504  1.0000
  C   C3        1.0  0.58295  0.27247  0.24503  1.0000
  C   C4        1.0  0.08293  0.72753  0.25497  1.0000
  C   C5        1.0  0.12668  0.77964  0.90425  1.0000
  C   C6        1.0  0.62669  0.22035  0.59576  1.0000
  C   C7        1.0  0.87331  0.22036  0.09576  1.0000
  C   C8        1.0  0.37331  0.77965  0.40424  1.0000
  C   C9        1.0  0.90088  0.86041  0.92442  1.0000
  C   C10       1.0  0.40091  0.13959  0.57558  1.0000
  C   C11       1.0  0.09911  0.13959  0.07558  1.0000
  C   C12       1.0  0.59912  0.86042  0.42441  1.0000
  C   C13       1.0  0.27016  0.63557  0.67177  1.0000
  C   C14       1.0  0.77019  0.36444  0.82823  1.0000
  C   C15       1.0  0.72983  0.36444  0.32822  1.0000
  C   C16       1.0  0.22982  0.63557  0.17178  1.0000
  O   O1        1.0  0.27491  0.82845  0.81088  1.0000
  O   O2        1.0  0.77493  0.17155  0.68914  1.0000
  O   O3        1.0  0.72507  0.17155  0.18913  1.0000
  O   O4        1.0  0.22506  0.82845  0.31087  1.0000
  O   O5        1.0  0.77861  0.82580  0.01619  1.0000
  O   O6        1.0  0.27860  0.17420  0.48382  1.0000
  O   O7        1.0  0.22140  0.17420  0.98382  1.0000
  O   O8        1.0  0.72141  0.82580  0.51617  1.0000
  O   O9        1.0  0.04974  0.66158  0.66088  1.0000
  O   O10       1.0  0.54974  0.33843  0.83911  1.0000
  O   O11       1.0  0.95026  0.33844  0.33911  1.0000
  O   O12       1.0  0.45022  0.66156  0.16090  1.0000
  O   O13       1.0  0.38500  0.54249  0.61679  1.0000
  O   O14       1.0  0.88500  0.45753  0.88321  1.0000
  O   O15       1.0  0.61500  0.45751  0.38321  1.0000
  O   O16       1.0  0.11499  0.54248  0.11678  1.0000
  O   O17       1.0  0.84911  0.95055  0.85276  1.0000
  O   O18       1.0  0.34912  0.04943  0.64724  1.0000
  O   O19       1.0  0.15090  0.04944  0.14724  1.0000
  O   O20       1.0  0.65089  0.95056  0.35276  1.0000
