data_image0
_chemical_formula_structural       Cd2H60C68N4O12
_chemical_formula_sum              "Cd2 H60 C68 N4 O12"
_cell_length_a       9.53494
_cell_length_b       11.4723
_cell_length_c       14.8919
_cell_angle_alpha    89.9982
_cell_angle_beta     90.0011
_cell_angle_gamma    112.766

_space_group_name_H-M_alt    "P 1"
_space_group_IT_number       1

loop_
  _space_group_symop_operation_xyz
  'x, y, z'

loop_
  _atom_site_type_symbol
  _atom_site_label
  _atom_site_symmetry_multiplicity
  _atom_site_fract_x
  _atom_site_fract_y
  _atom_site_fract_z
  _atom_site_occupancy
  Cd  Cd1       1.0  0.49999  0.99999  1.00000  1.0000
  Cd  Cd2       1.0  0.00000  0.99999  0.50000  1.0000
  H   H1        1.0  0.61689  0.25193  0.88864  1.0000
  H   H2        1.0  0.88312  0.74806  0.38863  1.0000
  H   H3        1.0  0.38310  0.74807  0.11137  1.0000
  H   H4        1.0  0.11691  0.25193  0.61136  1.0000
  H   H5        1.0  0.80031  0.15939  0.11690  1.0000
  H   H6        1.0  0.69968  0.84059  0.61688  1.0000
  H   H7        1.0  0.19966  0.84059  0.88311  1.0000
  H   H8        1.0  0.30032  0.15939  0.38311  1.0000
  H   H9        1.0  0.00969  0.36920  0.12190  1.0000
  H   H10       1.0  0.49032  0.63078  0.62188  1.0000
  H   H11       1.0  0.99029  0.63078  0.87811  1.0000
  H   H12       1.0  0.50970  0.36919  0.37811  1.0000
  H   H13       1.0  0.82149  0.46275  0.88044  1.0000
  H   H14       1.0  0.67853  0.53724  0.38043  1.0000
  H   H15       1.0  0.17851  0.53724  0.11957  1.0000
  H   H16       1.0  0.32150  0.46276  0.61955  1.0000
  H   H17       1.0  0.04189  0.11329  0.01401  1.0000
  H   H18       1.0  0.45812  0.88674  0.51399  1.0000
  H   H19       1.0  0.95812  0.88675  0.98598  1.0000
  H   H20       1.0  0.54187  0.11324  0.48602  1.0000
  H   H21       1.0  0.20132  0.25205  0.03539  1.0000
  H   H22       1.0  0.29872  0.74797  0.53538  1.0000
  H   H23       1.0  0.79872  0.74797  0.96461  1.0000
  H   H24       1.0  0.70128  0.25201  0.46463  1.0000
  H   H25       1.0  0.89163  0.07993  0.88335  1.0000
  H   H26       1.0  0.60840  0.92010  0.38334  1.0000
  H   H27       1.0  0.10839  0.92012  0.11664  1.0000
  H   H28       1.0  0.39159  0.07989  0.61667  1.0000
  H   H29       1.0  0.80986  0.16759  0.74936  1.0000
  H   H30       1.0  0.69015  0.83242  0.24935  1.0000
  H   H31       1.0  0.19018  0.83246  0.25063  1.0000
  H   H32       1.0  0.30983  0.16757  0.75065  1.0000
  H   H33       1.0  0.96828  0.38041  0.69305  1.0000
  H   H34       1.0  0.53173  0.61960  0.19306  1.0000
  H   H35       1.0  0.03177  0.61963  0.30695  1.0000
  H   H36       1.0  0.46826  0.38039  0.80695  1.0000
  H   H37       1.0  0.36108  0.41415  0.97779  1.0000
  H   H38       1.0  0.13892  0.58589  0.47777  1.0000
  H   H39       1.0  0.63893  0.58588  0.02222  1.0000
  H   H40       1.0  0.86105  0.41410  0.52223  1.0000
  H   H41       1.0  0.50691  0.63120  0.92362  1.0000
  H   H42       1.0  0.99310  0.36884  0.42362  1.0000
  H   H43       1.0  0.49313  0.36882  0.07639  1.0000
  H   H44       1.0  0.00689  0.63116  0.57638  1.0000
  H   H45       1.0  0.42624  0.71252  0.78762  1.0000
  H   H46       1.0  0.07377  0.28750  0.28764  1.0000
  H   H47       1.0  0.57383  0.28752  0.21238  1.0000
  H   H48       1.0  0.92622  0.71249  0.71236  1.0000
  H   H49       1.0  0.19060  0.57660  0.70643  1.0000
  H   H50       1.0  0.30943  0.42342  0.20646  1.0000
  H   H51       1.0  0.80948  0.42345  0.29356  1.0000
  H   H52       1.0  0.69057  0.57657  0.79355  1.0000
  H   H53       1.0  0.47793  0.95220  0.20968  1.0000
  H   H54       1.0  0.02205  0.04776  0.70968  1.0000
  H   H55       1.0  0.52201  0.04778  0.79031  1.0000
  H   H56       1.0  0.97791  0.95222  0.29032  1.0000
  H   H57       1.0  0.63053  0.97288  0.15481  1.0000
  H   H58       1.0  0.86944  0.02710  0.65484  1.0000
  H   H59       1.0  0.36940  0.02711  0.84518  1.0000
  H   H60       1.0  0.13052  0.97289  0.34517  1.0000
  C   C1        1.0  0.70701  0.28133  0.93898  1.0000
  C   C2        1.0  0.79299  0.71865  0.43896  1.0000
  C   C3        1.0  0.29297  0.71865  0.06103  1.0000
  C   C4        1.0  0.20702  0.28133  0.56103  1.0000
  C   C5        1.0  0.80870  0.23016  0.06621  1.0000
  C   C6        1.0  0.69131  0.76982  0.56619  1.0000
  C   C7        1.0  0.19130  0.76983  0.93380  1.0000
  C   C8        1.0  0.30871  0.23016  0.43380  1.0000
  C   C9        1.0  0.92694  0.34818  0.06772  1.0000
  C   C10       1.0  0.57307  0.65180  0.56770  1.0000
  C   C11       1.0  0.07304  0.65182  0.93229  1.0000
  C   C12       1.0  0.42695  0.34818  0.43228  1.0000
  C   C13       1.0  0.93728  0.43705  0.00072  1.0000
  C   C14       1.0  0.56272  0.56294  0.50071  1.0000
  C   C15       1.0  0.06271  0.56294  0.99928  1.0000
  C   C16       1.0  0.43730  0.43705  0.49928  1.0000
  C   C17       1.0  0.82245  0.40063  0.93536  1.0000
  C   C18       1.0  0.67755  0.59934  0.43535  1.0000
  C   C19       1.0  0.17752  0.59935  0.06465  1.0000
  C   C20       1.0  0.32247  0.40063  0.56463  1.0000
  C   C21       1.0  0.24647  0.11256  0.95692  1.0000
  C   C22       1.0  0.25351  0.88744  0.45692  1.0000
  C   C23       1.0  0.75349  0.88743  0.04305  1.0000
  C   C24       1.0  0.74646  0.11254  0.54310  1.0000
  C   C25       1.0  0.14404  0.18375  0.98241  1.0000
  C   C26       1.0  0.35599  0.81627  0.48240  1.0000
  C   C27       1.0  0.85597  0.81628  0.01759  1.0000
  C   C28       1.0  0.64402  0.18371  0.51761  1.0000
  C   C29       1.0  0.09711  0.24268  0.90395  1.0000
  C   C30       1.0  0.40291  0.75735  0.40394  1.0000
  C   C31       1.0  0.90292  0.75736  0.09605  1.0000
  C   C32       1.0  0.59707  0.24264  0.59607  1.0000
  C   C33       1.0  0.96342  0.17391  0.85889  1.0000
  C   C34       1.0  0.53659  0.82612  0.35887  1.0000
  C   C35       1.0  0.03660  0.82615  0.14111  1.0000
  C   C36       1.0  0.46339  0.17387  0.64113  1.0000
  C   C37       1.0  0.91614  0.22321  0.78321  1.0000
  C   C38       1.0  0.58387  0.77680  0.28320  1.0000
  C   C39       1.0  0.08390  0.77684  0.21679  1.0000
  C   C40       1.0  0.41611  0.22318  0.71680  1.0000
  C   C41       1.0  0.00451  0.34161  0.75120  1.0000
  C   C42       1.0  0.49550  0.65840  0.25120  1.0000
  C   C43       1.0  0.99554  0.65843  0.24879  1.0000
  C   C44       1.0  0.50449  0.34159  0.74880  1.0000
  C   C45       1.0  0.14165  0.41646  0.79510  1.0000
  C   C46       1.0  0.35836  0.58356  0.29511  1.0000
  C   C47       1.0  0.85838  0.58358  0.20490  1.0000
  C   C48       1.0  0.64164  0.41643  0.70489  1.0000
  C   C49       1.0  0.18895  0.36746  0.87327  1.0000
  C   C50       1.0  0.31106  0.63255  0.37327  1.0000
  C   C51       1.0  0.81108  0.63257  0.12673  1.0000
  C   C52       1.0  0.68893  0.36743  0.62673  1.0000
  C   C53       1.0  0.32374  0.44795  0.91763  1.0000
  C   C54       1.0  0.17626  0.55208  0.41763  1.0000
  C   C55       1.0  0.67628  0.55208  0.08238  1.0000
  C   C56       1.0  0.82372  0.44791  0.58237  1.0000
  C   C57       1.0  0.40683  0.56891  0.88708  1.0000
  C   C58       1.0  0.09317  0.43112  0.38708  1.0000
  C   C59       1.0  0.59321  0.43112  0.11292  1.0000
  C   C60       1.0  0.90681  0.56887  0.61291  1.0000
  C   C61       1.0  0.36104  0.61579  0.80947  1.0000
  C   C62       1.0  0.13897  0.38423  0.30949  1.0000
  C   C63       1.0  0.63901  0.38424  0.19053  1.0000
  C   C64       1.0  0.86102  0.61576  0.69053  1.0000
  C   C65       1.0  0.23092  0.54052  0.76464  1.0000
  C   C66       1.0  0.26909  0.45949  0.26465  1.0000
  C   C67       1.0  0.76912  0.45951  0.23537  1.0000
  C   C68       1.0  0.73090  0.54051  0.73535  1.0000
  N   N1        1.0  0.69995  0.19645  0.00273  1.0000
  N   N2        1.0  0.80005  0.80353  0.50271  1.0000
  N   N3        1.0  0.30004  0.80354  0.99728  1.0000
  N   N4        1.0  0.19995  0.19645  0.49727  1.0000
  O   O1        1.0  0.54266  0.00120  0.16131  1.0000
  O   O2        1.0  0.95731  0.99878  0.66131  1.0000
  O   O3        1.0  0.45728  0.99879  0.83869  1.0000
  O   O4        1.0  0.04266  0.00121  0.33869  1.0000
  O   O5        1.0  0.34019  0.10951  0.01707  1.0000
  O   O6        1.0  0.15980  0.89048  0.51708  1.0000
  O   O7        1.0  0.65978  0.89046  0.98290  1.0000
  O   O8        1.0  0.84019  0.10951  0.48295  1.0000
  O   O9        1.0  0.22750  0.06026  0.88031  1.0000
  O   O10       1.0  0.27244  0.93974  0.38030  1.0000
  O   O11       1.0  0.77243  0.93973  0.11967  1.0000
  O   O12       1.0  0.72752  0.06024  0.61971  1.0000
