data_image0
_chemical_formula_structural       Cu4H28C36N28
_chemical_formula_sum              "Cu4 H28 C36 N28"
_cell_length_a       5.66925
_cell_length_b       12.7456
_cell_length_c       14.5701
_cell_angle_alpha    90
_cell_angle_beta     90.0004
_cell_angle_gamma    92.8055

_space_group_name_H-M_alt    "P 1"
_space_group_IT_number       1

loop_
  _space_group_symop_operation_xyz
  'x, y, z'

loop_
  _atom_site_type_symbol
  _atom_site_label
  _atom_site_symmetry_multiplicity
  _atom_site_fract_x
  _atom_site_fract_y
  _atom_site_fract_z
  _atom_site_occupancy
  Cu  Cu1       1.0  0.22778  0.78983  0.30281  1.0000
  Cu  Cu2       1.0  0.27221  0.21018  0.80281  1.0000
  Cu  Cu3       1.0  0.77221  0.21017  0.69719  1.0000
  Cu  Cu4       1.0  0.72778  0.78982  0.19719  1.0000
  H   H1        1.0  0.84732  0.66254  0.39243  1.0000
  H   H2        1.0  0.65267  0.33748  0.89243  1.0000
  H   H3        1.0  0.15267  0.33745  0.60756  1.0000
  H   H4        1.0  0.34733  0.66253  0.10756  1.0000
  H   H5        1.0  0.79537  0.56886  0.54360  1.0000
  H   H6        1.0  0.70464  0.43115  0.04360  1.0000
  H   H7        1.0  0.20463  0.43112  0.45640  1.0000
  H   H8        1.0  0.29538  0.56886  0.95639  1.0000
  H   H9        1.0  0.09822  0.60169  0.66633  1.0000
  H   H10       1.0  0.40180  0.39831  0.16634  1.0000
  H   H11       1.0  0.90177  0.39830  0.33366  1.0000
  H   H12       1.0  0.59824  0.60170  0.83366  1.0000
  H   H13       1.0  0.45967  0.70647  0.71987  1.0000
  H   H14       1.0  0.04035  0.29354  0.21988  1.0000
  H   H15       1.0  0.54033  0.29352  0.28012  1.0000
  H   H16       1.0  0.95969  0.70648  0.78012  1.0000
  H   H17       1.0  0.77749  0.84361  0.68862  1.0000
  H   H18       1.0  0.72252  0.15640  0.18863  1.0000
  H   H19       1.0  0.22249  0.15639  0.31138  1.0000
  H   H20       1.0  0.27751  0.84362  0.81138  1.0000
  H   H21       1.0  0.79852  0.93299  0.53672  1.0000
  H   H22       1.0  0.70148  0.06703  0.03671  1.0000
  H   H23       1.0  0.20146  0.06701  0.46328  1.0000
  H   H24       1.0  0.29853  0.93298  0.96330  1.0000
  H   H25       1.0  0.50375  0.88750  0.41625  1.0000
  H   H26       1.0  0.99624  0.11251  0.91625  1.0000
  H   H27       1.0  0.49623  0.11249  0.58375  1.0000
  H   H28       1.0  0.00376  0.88749  0.08376  1.0000
  C   C1        1.0  0.97318  0.67643  0.44823  1.0000
  C   C2        1.0  0.52682  0.32358  0.94823  1.0000
  C   C3        1.0  0.02681  0.32356  0.55177  1.0000
  C   C4        1.0  0.47319  0.67642  0.05176  1.0000
  C   C5        1.0  0.94573  0.62391  0.53280  1.0000
  C   C6        1.0  0.55429  0.37610  0.03279  1.0000
  C   C7        1.0  0.05427  0.37608  0.46720  1.0000
  C   C8        1.0  0.44574  0.62391  0.96720  1.0000
  C   C9        1.0  0.11089  0.64349  0.60091  1.0000
  C   C10       1.0  0.38912  0.35652  0.10091  1.0000
  C   C11       1.0  0.88911  0.35650  0.39909  1.0000
  C   C12       1.0  0.61091  0.64348  0.89908  1.0000
  C   C13       1.0  0.29823  0.71920  0.58636  1.0000
  C   C14       1.0  0.20178  0.28081  0.08635  1.0000
  C   C15       1.0  0.70176  0.28079  0.41364  1.0000
  C   C16       1.0  0.79824  0.71920  0.91365  1.0000
  C   C17       1.0  0.46972  0.74699  0.65407  1.0000
  C   C18       1.0  0.03028  0.25301  0.15407  1.0000
  C   C19       1.0  0.53026  0.25300  0.34593  1.0000
  C   C20       1.0  0.96976  0.74701  0.84593  1.0000
  C   C21       1.0  0.64585  0.82270  0.63641  1.0000
  C   C22       1.0  0.85417  0.17732  0.13641  1.0000
  C   C23       1.0  0.35412  0.17729  0.36359  1.0000
  C   C24       1.0  0.14584  0.82269  0.86359  1.0000
  C   C25       1.0  0.65836  0.87335  0.55010  1.0000
  C   C26       1.0  0.84163  0.12666  0.05011  1.0000
  C   C27       1.0  0.34162  0.12664  0.44990  1.0000
  C   C28       1.0  0.15839  0.87336  0.94990  1.0000
  C   C29       1.0  0.49569  0.84770  0.48251  1.0000
  C   C30       1.0  0.00431  0.15232  0.98250  1.0000
  C   C31       1.0  0.50428  0.15230  0.51749  1.0000
  C   C32       1.0  0.99570  0.84768  0.01750  1.0000
  C   C33       1.0  0.31316  0.77061  0.49902  1.0000
  C   C34       1.0  0.18683  0.22941  0.99902  1.0000
  C   C35       1.0  0.68682  0.22939  0.50098  1.0000
  C   C36       1.0  0.81318  0.77060  0.00098  1.0000
  N   N1        1.0  0.15157  0.74541  0.43122  1.0000
  N   N2        1.0  0.34844  0.25460  0.93122  1.0000
  N   N3        1.0  0.84842  0.25458  0.56878  1.0000
  N   N4        1.0  0.65157  0.74540  0.06877  1.0000
  N   N5        1.0  0.98739  0.68778  0.20511  1.0000
  N   N6        1.0  0.51259  0.31222  0.70510  1.0000
  N   N7        1.0  0.01260  0.31222  0.79489  1.0000
  N   N8        1.0  0.48740  0.68778  0.29489  1.0000
  N   N9        1.0  0.94903  0.59525  0.18994  1.0000
  N   N10       1.0  0.55096  0.40475  0.68992  1.0000
  N   N11       1.0  0.05097  0.40476  0.81007  1.0000
  N   N12       1.0  0.44903  0.59525  0.31008  1.0000
  N   N13       1.0  0.91833  0.50560  0.17504  1.0000
  N   N14       1.0  0.58167  0.49439  0.67503  1.0000
  N   N15       1.0  0.08167  0.49440  0.82496  1.0000
  N   N16       1.0  0.41833  0.50560  0.32498  1.0000
  N   N17       1.0  0.95112  0.87774  0.27862  1.0000
  N   N18       1.0  0.54886  0.12225  0.77862  1.0000
  N   N19       1.0  0.04886  0.12225  0.72139  1.0000
  N   N20       1.0  0.45113  0.87774  0.22138  1.0000
  N   N21       1.0  0.89688  0.95509  0.32110  1.0000
  N   N22       1.0  0.60311  0.04491  0.82111  1.0000
  N   N23       1.0  0.10311  0.04491  0.67890  1.0000
  N   N24       1.0  0.39689  0.95509  0.17890  1.0000
  N   N25       1.0  0.84175  0.02928  0.36029  1.0000
  N   N26       1.0  0.65825  0.97073  0.86030  1.0000
  N   N27       1.0  0.15824  0.97072  0.63971  1.0000
  N   N28       1.0  0.34176  0.02928  0.13971  1.0000
