data_image0
_chemical_formula_structural       Zn2H48C66N12O16
_chemical_formula_sum              "Zn2 H48 C66 N12 O16"
_cell_length_a       9.58345
_cell_length_b       12.8985
_cell_length_c       13.3
_cell_angle_alpha    72.2106
_cell_angle_beta     74.8074
_cell_angle_gamma    74.0871

_space_group_name_H-M_alt    "P 1"
_space_group_IT_number       1

loop_
  _space_group_symop_operation_xyz
  'x, y, z'

loop_
  _atom_site_type_symbol
  _atom_site_label
  _atom_site_symmetry_multiplicity
  _atom_site_fract_x
  _atom_site_fract_y
  _atom_site_fract_z
  _atom_site_occupancy
  Zn  Zn1       1.0  0.09835  0.92270  0.31377  1.0000
  Zn  Zn2       1.0  0.90165  0.07730  0.68623  1.0000
  H   H1        1.0  0.37633  0.66154  0.38139  1.0000
  H   H2        1.0  0.62366  0.33846  0.61862  1.0000
  H   H3        1.0  0.51516  0.65233  0.45095  1.0000
  H   H4        1.0  0.48484  0.34766  0.54905  1.0000
  H   H5        1.0  0.37148  0.50213  0.32880  1.0000
  H   H6        1.0  0.62852  0.49787  0.67119  1.0000
  H   H7        1.0  0.48266  0.31151  0.30978  1.0000
  H   H8        1.0  0.51733  0.68849  0.69022  1.0000
  H   H9        1.0  0.88959  0.33462  0.37570  1.0000
  H   H10       1.0  0.11041  0.66538  0.62429  1.0000
  H   H11       1.0  0.77472  0.52375  0.39863  1.0000
  H   H12       1.0  0.22528  0.47625  0.60137  1.0000
  H   H13       1.0  0.41096  0.73816  0.18269  1.0000
  H   H14       1.0  0.58904  0.26184  0.81731  1.0000
  H   H15       1.0  0.52170  0.87169  0.02497  1.0000
  H   H16       1.0  0.47831  0.12831  0.97503  1.0000
  H   H17       1.0  0.83737  0.87475  0.20347  1.0000
  H   H18       1.0  0.16263  0.12524  0.79654  1.0000
  H   H19       1.0  0.72887  0.73896  0.35881  1.0000
  H   H20       1.0  0.27112  0.26104  0.64119  1.0000
  H   H21       1.0  0.95450  0.15541  0.40065  1.0000
  H   H22       1.0  0.04550  0.84459  0.59935  1.0000
  H   H23       1.0  0.61980  0.17361  0.23594  1.0000
  H   H24       1.0  0.38020  0.82638  0.76406  1.0000
  H   H25       1.0  0.72922  0.90515  0.87920  1.0000
  H   H26       1.0  0.27078  0.09485  0.12080  1.0000
  H   H27       1.0  0.81380  0.06452  0.08671  1.0000
  H   H28       1.0  0.18621  0.93547  0.91330  1.0000
  H   H29       1.0  0.87205  0.62139  0.62544  1.0000
  H   H30       1.0  0.12795  0.37861  0.37455  1.0000
  H   H31       1.0  0.12486  0.58468  0.31547  1.0000
  H   H32       1.0  0.87514  0.41533  0.68453  1.0000
  H   H33       1.0  0.33231  0.18164  0.43773  1.0000
  H   H34       1.0  0.66769  0.81838  0.56227  1.0000
  H   H35       1.0  0.48071  0.83264  0.45460  1.0000
  H   H36       1.0  0.51929  0.16737  0.54540  1.0000
  H   H37       1.0  0.29089  0.21566  0.25098  1.0000
  H   H38       1.0  0.70911  0.78434  0.74902  1.0000
  H   H39       1.0  0.64088  0.32019  0.95962  1.0000
  H   H40       1.0  0.35912  0.67981  0.04038  1.0000
  H   H41       1.0  0.28253  0.50301  0.15113  1.0000
  H   H42       1.0  0.71747  0.49699  0.84887  1.0000
  H   H43       1.0  0.08927  0.77697  0.11158  1.0000
  H   H44       1.0  0.91073  0.22303  0.88842  1.0000
  H   H45       1.0  0.04391  0.65671  0.84014  1.0000
  H   H46       1.0  0.95608  0.34329  0.15986  1.0000
  H   H47       1.0  0.99096  0.51950  0.18240  1.0000
  H   H48       1.0  0.00904  0.48050  0.81760  1.0000
  C   C1        1.0  0.49648  0.64467  0.37569  1.0000
  C   C2        1.0  0.50352  0.35532  0.62431  1.0000
  C   C3        1.0  0.56462  0.52736  0.36445  1.0000
  C   C4        1.0  0.43538  0.47264  0.63555  1.0000
  C   C5        1.0  0.48550  0.46596  0.33854  1.0000
  C   C6        1.0  0.51450  0.53404  0.66145  1.0000
  C   C7        1.0  0.54856  0.35808  0.32717  1.0000
  C   C8        1.0  0.45144  0.64192  0.67283  1.0000
  C   C9        1.0  0.69454  0.31112  0.33978  1.0000
  C   C10       1.0  0.30546  0.68888  0.66022  1.0000
  C   C11       1.0  0.77596  0.37124  0.36523  1.0000
  C   C12       1.0  0.22403  0.62876  0.63477  1.0000
  C   C13       1.0  0.71041  0.47804  0.37800  1.0000
  C   C14       1.0  0.28958  0.52196  0.62200  1.0000
  C   C15       1.0  0.56217  0.72897  0.28158  1.0000
  C   C16       1.0  0.43783  0.27104  0.71842  1.0000
  C   C17       1.0  0.50548  0.76716  0.18682  1.0000
  C   C18       1.0  0.49453  0.23284  0.81318  1.0000
  C   C19       1.0  0.56625  0.84326  0.09847  1.0000
  C   C20       1.0  0.43376  0.15674  0.90154  1.0000
  C   C21       1.0  0.68578  0.88120  0.10534  1.0000
  C   C22       1.0  0.31423  0.11879  0.89466  1.0000
  C   C23       1.0  0.74504  0.84417  0.19844  1.0000
  C   C24       1.0  0.25496  0.15583  0.80157  1.0000
  C   C25       1.0  0.68261  0.76800  0.28589  1.0000
  C   C26       1.0  0.31739  0.23199  0.71411  1.0000
  C   C27       1.0  0.88928  0.13580  0.35571  1.0000
  C   C28       1.0  0.11072  0.86420  0.64429  1.0000
  C   C29       1.0  0.71604  0.14393  0.27312  1.0000
  C   C30       1.0  0.28397  0.85607  0.72688  1.0000
  C   C31       1.0  0.76258  0.96227  0.90908  1.0000
  C   C32       1.0  0.23742  0.03773  0.09093  1.0000
  C   C33       1.0  0.80698  0.04472  0.01466  1.0000
  C   C34       1.0  0.19304  0.95527  0.98534  1.0000
  C   C35       1.0  0.99991  0.61380  0.46743  1.0000
  C   C36       1.0  0.00008  0.38621  0.53256  1.0000
  C   C37       1.0  0.92746  0.56740  0.57120  1.0000
  C   C38       1.0  0.07254  0.43260  0.42880  1.0000
  C   C39       1.0  0.07158  0.54602  0.39625  1.0000
  C   C40       1.0  0.92841  0.45398  0.60375  1.0000
  C   C41       1.0  0.00829  0.73414  0.43558  1.0000
  C   C42       1.0  0.99170  0.26586  0.56441  1.0000
  C   C43       1.0  0.39823  0.00805  0.43782  1.0000
  C   C44       1.0  0.60177  0.99196  0.56218  1.0000
  C   C45       1.0  0.40793  0.10293  0.46353  1.0000
  C   C46       1.0  0.59207  0.89708  0.53647  1.0000
  C   C47       1.0  0.49035  0.90539  0.47511  1.0000
  C   C48       1.0  0.50965  0.09462  0.52489  1.0000
  C   C49       1.0  0.29016  0.01387  0.37220  1.0000
  C   C50       1.0  0.70983  0.98614  0.62780  1.0000
  C   C51       1.0  0.45753  0.39995  0.06218  1.0000
  C   C52       1.0  0.54247  0.60005  0.93782  1.0000
  C   C53       1.0  0.57955  0.39955  0.97640  1.0000
  C   C54       1.0  0.42046  0.60045  0.02360  1.0000
  C   C55       1.0  0.37794  0.50155  0.08534  1.0000
  C   C56       1.0  0.62206  0.49845  0.91466  1.0000
  C   C57       1.0  0.42032  0.29037  0.12690  1.0000
  C   C58       1.0  0.57968  0.70963  0.87310  1.0000
  C   C59       1.0  0.02096  0.59865  0.01182  1.0000
  C   C60       1.0  0.97904  0.40135  0.98818  1.0000
  C   C61       1.0  0.02459  0.58729  0.90952  1.0000
  C   C62       1.0  0.97540  0.41271  0.09048  1.0000
  C   C63       1.0  0.99566  0.51056  0.10269  1.0000
  C   C64       1.0  0.00433  0.48944  0.89731  1.0000
  C   C65       1.0  0.04650  0.70509  0.01880  1.0000
  C   C66       1.0  0.95350  0.29491  0.98120  1.0000
  N   N1        1.0  0.91727  0.04369  0.32344  1.0000
  N   N2        1.0  0.08273  0.95630  0.67657  1.0000
  N   N3        1.0  0.80828  0.04807  0.27125  1.0000
  N   N4        1.0  0.19173  0.95193  0.72875  1.0000
  N   N5        1.0  0.76196  0.20238  0.32496  1.0000
  N   N6        1.0  0.23804  0.79762  0.67504  1.0000
  N   N7        1.0  0.82516  0.04575  0.84859  1.0000
  N   N8        1.0  0.17485  0.95425  0.15141  1.0000
  N   N9        1.0  0.85359  0.09832  0.91473  1.0000
  N   N10       1.0  0.14641  0.90167  0.08528  1.0000
  N   N11       1.0  0.74844  0.95905  0.01455  1.0000
  N   N12       1.0  0.25157  0.04095  0.98545  1.0000
  O   O1        1.0  0.07509  0.77034  0.33749  1.0000
  O   O2        1.0  0.92491  0.22966  0.66251  1.0000
  O   O3        1.0  0.95672  0.79187  0.50285  1.0000
  O   O4        1.0  0.04327  0.20813  0.49715  1.0000
  O   O5        1.0  0.24575  0.92268  0.39124  1.0000
  O   O6        1.0  0.75426  0.07732  0.60876  1.0000
  O   O7        1.0  0.24680  0.10175  0.30353  1.0000
  O   O8        1.0  0.75321  0.89825  0.69647  1.0000
  O   O9        1.0  0.49222  0.20126  0.10615  1.0000
  O   O10       1.0  0.50778  0.79874  0.89385  1.0000
  O   O11       1.0  0.30759  0.29553  0.21063  1.0000
  O   O12       1.0  0.69240  0.70447  0.78937  1.0000
  O   O13       1.0  0.04919  0.78766  0.94162  1.0000
  O   O14       1.0  0.95081  0.21234  0.05838  1.0000
  O   O15       1.0  0.06834  0.70234  0.11529  1.0000
  O   O16       1.0  0.93165  0.29765  0.88471  1.0000
