data_image0
_chemical_formula_structural       Cu6H20C20N40
_chemical_formula_sum              "Cu6 H20 C20 N40"
_cell_length_a       8.11659
_cell_length_b       10.6233
_cell_length_c       11.6085
_cell_angle_alpha    90.0021
_cell_angle_beta     90.1355
_cell_angle_gamma    90.6515

_space_group_name_H-M_alt    "P 1"
_space_group_IT_number       1

loop_
  _space_group_symop_operation_xyz
  'x, y, z'

loop_
  _atom_site_type_symbol
  _atom_site_label
  _atom_site_symmetry_multiplicity
  _atom_site_fract_x
  _atom_site_fract_y
  _atom_site_fract_z
  _atom_site_occupancy
  Cu  Cu1       1.0  0.16202  0.92732  0.38354  1.0000
  Cu  Cu2       1.0  0.33866  0.07268  0.88506  1.0000
  Cu  Cu3       1.0  0.83622  0.07278  0.61395  1.0000
  Cu  Cu4       1.0  0.66151  0.92726  0.11658  1.0000
  Cu  Cu5       1.0  0.50235  0.00055  0.50143  1.0000
  Cu  Cu6       1.0  0.99966  0.99994  0.99978  1.0000
  H   H1        1.0  0.95663  0.77623  0.53625  1.0000
  H   H2        1.0  0.54421  0.22428  0.03667  1.0000
  H   H3        1.0  0.04396  0.22331  0.46340  1.0000
  H   H4        1.0  0.45627  0.77593  0.96367  1.0000
  H   H5        1.0  0.12716  0.73630  0.20278  1.0000
  H   H6        1.0  0.37290  0.26297  0.70273  1.0000
  H   H7        1.0  0.87325  0.26233  0.79683  1.0000
  H   H8        1.0  0.62717  0.73666  0.29770  1.0000
  H   H9        1.0  0.79239  0.57430  0.52397  1.0000
  H   H10       1.0  0.70796  0.42623  0.02432  1.0000
  H   H11       1.0  0.20753  0.42550  0.47593  1.0000
  H   H12       1.0  0.29222  0.57406  0.97575  1.0000
  H   H13       1.0  0.98402  0.52694  0.17962  1.0000
  H   H14       1.0  0.51556  0.47242  0.67941  1.0000
  H   H15       1.0  0.01517  0.47229  0.82014  1.0000
  H   H16       1.0  0.48463  0.52710  0.32059  1.0000
  H   H17       1.0  0.80911  0.44581  0.34240  1.0000
  H   H18       1.0  0.69060  0.55430  0.84230  1.0000
  H   H19       1.0  0.18997  0.55398  0.65764  1.0000
  H   H20       1.0  0.30930  0.44574  0.15753  1.0000
  C   C1        1.0  0.95489  0.71847  0.45868  1.0000
  C   C2        1.0  0.54586  0.28172  0.95892  1.0000
  C   C3        1.0  0.04563  0.28100  0.54102  1.0000
  C   C4        1.0  0.45445  0.71840  0.04138  1.0000
  C   C5        1.0  0.05371  0.69488  0.27174  1.0000
  C   C6        1.0  0.44650  0.30461  0.77173  1.0000
  C   C7        1.0  0.94651  0.30412  0.72797  1.0000
  C   C8        1.0  0.55357  0.69515  0.22861  1.0000
  C   C9        1.0  0.86642  0.60584  0.45114  1.0000
  C   C10       1.0  0.63403  0.39445  0.95131  1.0000
  C   C11       1.0  0.13352  0.39387  0.54869  1.0000
  C   C12       1.0  0.36621  0.60568  0.04879  1.0000
  C   C13       1.0  0.97224  0.57969  0.25958  1.0000
  C   C14       1.0  0.52767  0.41990  0.75952  1.0000
  C   C15       1.0  0.02732  0.41961  0.74017  1.0000
  C   C16       1.0  0.47240  0.57983  0.24061  1.0000
  C   C17       1.0  0.87578  0.53489  0.35027  1.0000
  C   C18       1.0  0.62428  0.46510  0.85027  1.0000
  C   C19       1.0  0.12371  0.46471  0.64959  1.0000
  C   C20       1.0  0.37581  0.53487  0.14975  1.0000
  N   N1        1.0  0.04545  0.76256  0.36974  1.0000
  N   N2        1.0  0.45519  0.23722  0.86993  1.0000
  N   N3        1.0  0.95533  0.23660  0.62991  1.0000
  N   N4        1.0  0.54493  0.76273  0.13055  1.0000
  N   N5        1.0  0.31683  0.07786  0.41095  1.0000
  N   N6        1.0  0.18390  0.92204  0.91031  1.0000
  N   N7        1.0  0.68683  0.91950  0.58660  1.0000
  N   N8        1.0  0.81582  0.07774  0.08998  1.0000
  N   N9        1.0  0.35854  0.85169  0.46949  1.0000
  N   N10       1.0  0.14077  0.14943  0.96758  1.0000
  N   N11       1.0  0.64035  0.15072  0.53277  1.0000
  N   N12       1.0  0.85876  0.85050  0.03212  1.0000
  N   N13       1.0  0.96200  0.03480  0.37291  1.0000
  N   N14       1.0  0.53728  0.96508  0.87221  1.0000
  N   N15       1.0  0.03655  0.96651  0.62795  1.0000
  N   N16       1.0  0.46098  0.03442  0.12622  1.0000
  N   N17       1.0  0.20566  0.94727  0.18750  1.0000
  N   N18       1.0  0.29412  0.05334  0.68565  1.0000
  N   N19       1.0  0.79314  0.05314  0.81319  1.0000
  N   N20       1.0  0.70578  0.94754  0.31277  1.0000
  N   N21       1.0  0.31295  0.17453  0.35477  1.0000
  N   N22       1.0  0.18800  0.82525  0.85443  1.0000
  N   N23       1.0  0.68922  0.82525  0.64565  1.0000
  N   N24       1.0  0.81187  0.17481  0.14543  1.0000
  N   N25       1.0  0.38188  0.74259  0.49611  1.0000
  N   N26       1.0  0.11801  0.25811  0.99558  1.0000
  N   N27       1.0  0.61769  0.25913  0.50495  1.0000
  N   N28       1.0  0.88199  0.74184  0.00432  1.0000
  N   N29       1.0  0.83453  0.98918  0.34180  1.0000
  N   N30       1.0  0.66464  0.01118  0.84174  1.0000
  N   N31       1.0  0.16480  0.01207  0.65769  1.0000
  N   N32       1.0  0.33401  0.98884  0.15799  1.0000
  N   N33       1.0  0.30366  0.26631  0.30123  1.0000
  N   N34       1.0  0.19685  0.73319  0.80124  1.0000
  N   N35       1.0  0.69759  0.73445  0.70084  1.0000
  N   N36       1.0  0.80315  0.26715  0.19824  1.0000
  N   N37       1.0  0.40264  0.63790  0.51980  1.0000
  N   N38       1.0  0.09711  0.36242  0.02060  1.0000
  N   N39       1.0  0.59710  0.36362  0.47999  1.0000
  N   N40       1.0  0.90318  0.63748  0.97953  1.0000
