data_image0
_chemical_formula_structural       Tb4H4C12O24
_chemical_formula_sum              "Tb4 H4 C12 O24"
_cell_length_a       6.60851
_cell_length_b       7.05032
_cell_length_c       10.6064
_cell_angle_alpha    90
_cell_angle_beta     90
_cell_angle_gamma    90

_space_group_name_H-M_alt    "P 1"
_space_group_IT_number       1

loop_
  _space_group_symop_operation_xyz
  'x, y, z'

loop_
  _atom_site_type_symbol
  _atom_site_label
  _atom_site_symmetry_multiplicity
  _atom_site_fract_x
  _atom_site_fract_y
  _atom_site_fract_z
  _atom_site_occupancy
  Tb  Tb1       1.0  0.63372  0.20013  0.75000  1.0000
  Tb  Tb2       1.0  0.13371  0.29987  0.25000  1.0000
  Tb  Tb3       1.0  0.36629  0.79987  0.25000  1.0000
  Tb  Tb4       1.0  0.86628  0.70013  0.75000  1.0000
  H   H1        1.0  0.38008  0.78113  0.75000  1.0000
  H   H2        1.0  0.88008  0.71887  0.25000  1.0000
  H   H3        1.0  0.61992  0.21887  0.25000  1.0000
  H   H4        1.0  0.11992  0.28113  0.75000  1.0000
  C   C1        1.0  0.37007  0.62582  0.75000  1.0000
  C   C2        1.0  0.87007  0.87418  0.25000  1.0000
  C   C3        1.0  0.62993  0.37418  0.25000  1.0000
  C   C4        1.0  0.12993  0.12582  0.75000  1.0000
  C   C5        1.0  0.45212  0.09527  0.47956  1.0000
  C   C6        1.0  0.95210  0.40473  0.52045  1.0000
  C   C7        1.0  0.54790  0.90473  0.97955  1.0000
  C   C8        1.0  0.04788  0.59527  0.02044  1.0000
  C   C9        1.0  0.54790  0.90473  0.52045  1.0000
  C   C10       1.0  0.04789  0.59527  0.47956  1.0000
  C   C11       1.0  0.45211  0.09528  0.02044  1.0000
  C   C12       1.0  0.95210  0.40473  0.97955  1.0000
  O   O1        1.0  0.53724  0.53294  0.75000  1.0000
  O   O2        1.0  0.03724  0.96706  0.25000  1.0000
  O   O3        1.0  0.46276  0.46706  0.25000  1.0000
  O   O4        1.0  0.96276  0.03294  0.75000  1.0000
  O   O5        1.0  0.19702  0.55186  0.75000  1.0000
  O   O6        1.0  0.69702  0.94814  0.25000  1.0000
  O   O7        1.0  0.80298  0.44814  0.25000  1.0000
  O   O8        1.0  0.30298  0.05186  0.75000  1.0000
  O   O9        1.0  0.47980  0.23864  0.54709  1.0000
  O   O10       1.0  0.97979  0.26136  0.45291  1.0000
  O   O11       1.0  0.52021  0.76136  0.04709  1.0000
  O   O12       1.0  0.02020  0.73864  0.95291  1.0000
  O   O13       1.0  0.52021  0.76137  0.45291  1.0000
  O   O14       1.0  0.02020  0.73864  0.54709  1.0000
  O   O15       1.0  0.47980  0.23863  0.95291  1.0000
  O   O16       1.0  0.97979  0.26136  0.04709  1.0000
  O   O17       1.0  0.35118  0.08891  0.37675  1.0000
  O   O18       1.0  0.85116  0.41109  0.62325  1.0000
  O   O19       1.0  0.64884  0.91109  0.87675  1.0000
  O   O20       1.0  0.14883  0.58891  0.12325  1.0000
  O   O21       1.0  0.64884  0.91109  0.62325  1.0000
  O   O22       1.0  0.14882  0.58891  0.37675  1.0000
  O   O23       1.0  0.35118  0.08891  0.12324  1.0000
  O   O24       1.0  0.85116  0.41109  0.87675  1.0000
