data_image0
_chemical_formula_structural       Zn4H40C48N8O16
_chemical_formula_sum              "Zn4 H40 C48 N8 O16"
_cell_length_a       8.82498
_cell_length_b       9.51719
_cell_length_c       15.4082
_cell_angle_alpha    91.7056
_cell_angle_beta     89.9999
_cell_angle_gamma    90.0001

_space_group_name_H-M_alt    "P 1"
_space_group_IT_number       1

loop_
  _space_group_symop_operation_xyz
  'x, y, z'

loop_
  _atom_site_type_symbol
  _atom_site_label
  _atom_site_symmetry_multiplicity
  _atom_site_fract_x
  _atom_site_fract_y
  _atom_site_fract_z
  _atom_site_occupancy
  Zn  Zn1       1.0  0.91453  0.24677  0.92158  1.0000
  Zn  Zn2       1.0  0.58547  0.24676  0.42158  1.0000
  Zn  Zn3       1.0  0.08547  0.75323  0.07842  1.0000
  Zn  Zn4       1.0  0.41453  0.75323  0.57842  1.0000
  H   H1        1.0  0.74917  0.09957  0.76768  1.0000
  H   H2        1.0  0.75083  0.09957  0.26768  1.0000
  H   H3        1.0  0.25082  0.90043  0.23232  1.0000
  H   H4        1.0  0.24918  0.90043  0.73232  1.0000
  H   H5        1.0  0.80875  0.00984  0.61658  1.0000
  H   H6        1.0  0.69125  0.00984  0.11658  1.0000
  H   H7        1.0  0.19124  0.99016  0.38342  1.0000
  H   H8        1.0  0.30875  0.99016  0.88342  1.0000
  H   H9        1.0  0.07464  0.04668  0.55938  1.0000
  H   H10       1.0  0.42536  0.04668  0.05938  1.0000
  H   H11       1.0  0.92536  0.95332  0.44062  1.0000
  H   H12       1.0  0.57464  0.95332  0.94062  1.0000
  H   H13       1.0  0.26271  0.17078  0.65381  1.0000
  H   H14       1.0  0.23729  0.17078  0.15381  1.0000
  H   H15       1.0  0.73729  0.82922  0.34619  1.0000
  H   H16       1.0  0.76271  0.82922  0.84619  1.0000
  H   H17       1.0  0.18536  0.24723  0.80519  1.0000
  H   H18       1.0  0.31464  0.24723  0.30519  1.0000
  H   H19       1.0  0.81464  0.75277  0.19481  1.0000
  H   H20       1.0  0.68536  0.75277  0.69481  1.0000
  H   H21       1.0  0.75874  0.41821  0.78091  1.0000
  H   H22       1.0  0.74126  0.41821  0.28091  1.0000
  H   H23       1.0  0.24126  0.58179  0.21909  1.0000
  H   H24       1.0  0.25874  0.58179  0.71909  1.0000
  H   H25       1.0  0.50545  0.51871  0.75051  1.0000
  H   H26       1.0  0.99455  0.51870  0.25051  1.0000
  H   H27       1.0  0.49455  0.48129  0.24949  1.0000
  H   H28       1.0  0.00545  0.48130  0.74949  1.0000
  H   H29       1.0  0.29109  0.47525  0.85770  1.0000
  H   H30       1.0  0.20891  0.47526  0.35770  1.0000
  H   H31       1.0  0.70891  0.52475  0.14230  1.0000
  H   H32       1.0  0.79109  0.52474  0.64230  1.0000
  H   H33       1.0  0.34398  0.32307  0.98367  1.0000
  H   H34       1.0  0.15602  0.32307  0.48367  1.0000
  H   H35       1.0  0.65602  0.67693  0.01633  1.0000
  H   H36       1.0  0.84398  0.67693  0.51633  1.0000
  H   H37       1.0  0.60914  0.23247  0.00399  1.0000
  H   H38       1.0  0.89087  0.23247  0.50399  1.0000
  H   H39       1.0  0.39086  0.76753  0.99601  1.0000
  H   H40       1.0  0.10914  0.76753  0.49601  1.0000
  C   C1        1.0  0.86169  0.11195  0.73982  1.0000
  C   C2        1.0  0.63831  0.11195  0.23982  1.0000
  C   C3        1.0  0.13831  0.88805  0.26018  1.0000
  C   C4        1.0  0.36169  0.88805  0.76018  1.0000
  C   C5        1.0  0.89522  0.06301  0.65591  1.0000
  C   C6        1.0  0.60478  0.06301  0.15591  1.0000
  C   C7        1.0  0.10478  0.93699  0.34409  1.0000
  C   C8        1.0  0.39522  0.93699  0.84409  1.0000
  C   C9        1.0  0.04109  0.08416  0.62397  1.0000
  C   C10       1.0  0.45891  0.08416  0.12397  1.0000
  C   C11       1.0  0.95890  0.91584  0.37603  1.0000
  C   C12       1.0  0.54109  0.91584  0.87603  1.0000
  C   C13       1.0  0.14785  0.15272  0.67689  1.0000
  C   C14       1.0  0.35215  0.15272  0.17689  1.0000
  C   C15       1.0  0.85215  0.84728  0.32311  1.0000
  C   C16       1.0  0.64785  0.84728  0.82311  1.0000
  C   C17       1.0  0.10584  0.19576  0.76052  1.0000
  C   C18       1.0  0.39416  0.19576  0.26052  1.0000
  C   C19       1.0  0.89416  0.80424  0.23948  1.0000
  C   C20       1.0  0.60584  0.80424  0.73948  1.0000
  C   C21       1.0  0.66374  0.40109  0.82451  1.0000
  C   C22       1.0  0.83626  0.40108  0.32451  1.0000
  C   C23       1.0  0.33626  0.59891  0.17549  1.0000
  C   C24       1.0  0.16374  0.59892  0.67549  1.0000
  C   C25       1.0  0.52148  0.45787  0.80861  1.0000
  C   C26       1.0  0.97852  0.45787  0.30861  1.0000
  C   C27       1.0  0.47852  0.54213  0.19139  1.0000
  C   C28       1.0  0.02148  0.54213  0.69139  1.0000
  C   C29       1.0  0.40425  0.43192  0.86680  1.0000
  C   C30       1.0  0.09574  0.43192  0.36680  1.0000
  C   C31       1.0  0.59575  0.56808  0.13320  1.0000
  C   C32       1.0  0.90425  0.56809  0.63320  1.0000
  C   C33       1.0  0.43344  0.34867  0.93803  1.0000
  C   C34       1.0  0.06656  0.34867  0.43803  1.0000
  C   C35       1.0  0.56656  0.65133  0.06197  1.0000
  C   C36       1.0  0.93344  0.65133  0.56197  1.0000
  C   C37       1.0  0.57919  0.29657  0.94925  1.0000
  C   C38       1.0  0.92081  0.29657  0.44925  1.0000
  C   C39       1.0  0.42081  0.70343  0.05075  1.0000
  C   C40       1.0  0.07919  0.70343  0.55075  1.0000
  C   C41       1.0  0.96364  0.47702  0.04366  1.0000
  C   C42       1.0  0.53637  0.47701  0.54366  1.0000
  C   C43       1.0  0.03637  0.52299  0.95634  1.0000
  C   C44       1.0  0.46364  0.52298  0.45634  1.0000
  C   C45       1.0  0.91505  0.97730  0.00090  1.0000
  C   C46       1.0  0.58495  0.97730  0.50090  1.0000
  C   C47       1.0  0.08495  0.02270  0.99910  1.0000
  C   C48       1.0  0.41505  0.02270  0.49910  1.0000
  N   N1        1.0  0.96493  0.17620  0.79150  1.0000
  N   N2        1.0  0.53507  0.17620  0.29150  1.0000
  N   N3        1.0  0.03507  0.82380  0.20850  1.0000
  N   N4        1.0  0.46493  0.82380  0.70850  1.0000
  N   N5        1.0  0.69268  0.32214  0.89349  1.0000
  N   N6        1.0  0.80732  0.32214  0.39349  1.0000
  N   N7        1.0  0.30732  0.67786  0.10651  1.0000
  N   N8        1.0  0.19268  0.67786  0.60651  1.0000
  O   O1        1.0  0.81937  0.06091  0.96895  1.0000
  O   O2        1.0  0.68062  0.06090  0.46895  1.0000
  O   O3        1.0  0.18063  0.93910  0.03105  1.0000
  O   O4        1.0  0.31936  0.93909  0.53105  1.0000
  O   O5        1.0  0.90335  0.35693  0.04565  1.0000
  O   O6        1.0  0.59665  0.35693  0.54565  1.0000
  O   O7        1.0  0.09666  0.64307  0.95435  1.0000
  O   O8        1.0  0.40335  0.64307  0.45435  1.0000
  O   O9        1.0  0.96935  0.56545  0.10712  1.0000
  O   O10       1.0  0.53066  0.56545  0.60712  1.0000
  O   O11       1.0  0.03065  0.43455  0.89288  1.0000
  O   O12       1.0  0.46935  0.43455  0.39288  1.0000
  O   O13       1.0  0.88316  0.86113  0.03426  1.0000
  O   O14       1.0  0.61685  0.86113  0.53426  1.0000
  O   O15       1.0  0.11685  0.13887  0.96574  1.0000
  O   O16       1.0  0.38315  0.13886  0.46574  1.0000
