data_image0
_chemical_formula_structural       Zn4H40C48N8O16
_chemical_formula_sum              "Zn4 H40 C48 N8 O16"
_cell_length_a       9.2205
_cell_length_b       9.42004
_cell_length_c       14.8937
_cell_angle_alpha    94.2488
_cell_angle_beta     89.9999
_cell_angle_gamma    90

_space_group_name_H-M_alt    "P 1"
_space_group_IT_number       1

loop_
  _space_group_symop_operation_xyz
  'x, y, z'

loop_
  _atom_site_type_symbol
  _atom_site_label
  _atom_site_symmetry_multiplicity
  _atom_site_fract_x
  _atom_site_fract_y
  _atom_site_fract_z
  _atom_site_occupancy
  Zn  Zn1       1.0  0.84063  0.75104  0.00513  1.0000
  Zn  Zn2       1.0  0.65937  0.25105  0.50513  1.0000
  Zn  Zn3       1.0  0.15937  0.24896  0.99487  1.0000
  Zn  Zn4       1.0  0.34063  0.74896  0.49487  1.0000
  H   H1        1.0  0.72769  0.68072  0.19018  1.0000
  H   H2        1.0  0.77231  0.18072  0.69018  1.0000
  H   H3        1.0  0.27231  0.31929  0.80982  1.0000
  H   H4        1.0  0.22769  0.81928  0.30982  1.0000
  H   H5        1.0  0.54741  0.77475  0.30559  1.0000
  H   H6        1.0  0.95259  0.27474  0.80559  1.0000
  H   H7        1.0  0.45259  0.22526  0.69441  1.0000
  H   H8        1.0  0.04741  0.72525  0.19441  1.0000
  H   H9        1.0  0.40577  0.99468  0.27509  1.0000
  H   H10       1.0  0.09423  0.49468  0.77509  1.0000
  H   H11       1.0  0.59423  0.00532  0.72491  1.0000
  H   H12       1.0  0.90577  0.50532  0.22491  1.0000
  H   H13       1.0  0.44917  0.10718  0.12957  1.0000
  H   H14       1.0  0.05084  0.60718  0.62957  1.0000
  H   H15       1.0  0.55083  0.89282  0.87043  1.0000
  H   H16       1.0  0.94917  0.39282  0.37043  1.0000
  H   H17       1.0  0.63793  0.00064  0.02323  1.0000
  H   H18       1.0  0.86208  0.50064  0.52323  1.0000
  H   H19       1.0  0.36207  0.99936  0.97677  1.0000
  H   H20       1.0  0.13793  0.49936  0.47677  1.0000
  H   H21       1.0  0.52308  0.64494  0.00492  1.0000
  H   H22       1.0  0.97692  0.14494  0.50493  1.0000
  H   H23       1.0  0.47692  0.35506  0.99508  1.0000
  H   H24       1.0  0.02308  0.85506  0.49507  1.0000
  H   H25       1.0  0.33227  0.56441  0.89254  1.0000
  H   H26       1.0  0.16773  0.06441  0.39254  1.0000
  H   H27       1.0  0.66773  0.43558  0.10746  1.0000
  H   H28       1.0  0.83226  0.93559  0.60746  1.0000
  H   H29       1.0  0.39781  0.55169  0.72680  1.0000
  H   H30       1.0  0.10219  0.05169  0.22680  1.0000
  H   H31       1.0  0.60219  0.44831  0.27320  1.0000
  H   H32       1.0  0.89781  0.94832  0.77320  1.0000
  H   H33       1.0  0.64942  0.61710  0.68364  1.0000
  H   H34       1.0  0.85058  0.11710  0.18363  1.0000
  H   H35       1.0  0.35058  0.38290  0.31637  1.0000
  H   H36       1.0  0.14942  0.88290  0.81636  1.0000
  H   H37       1.0  0.82858  0.68936  0.80559  1.0000
  H   H38       1.0  0.67143  0.18936  0.30559  1.0000
  H   H39       1.0  0.17142  0.31064  0.19441  1.0000
  H   H40       1.0  0.32857  0.81064  0.69441  1.0000
  C   C1        1.0  0.66351  0.77526  0.18022  1.0000
  C   C2        1.0  0.83649  0.27526  0.68022  1.0000
  C   C3        1.0  0.33649  0.22474  0.81978  1.0000
  C   C4        1.0  0.16351  0.72474  0.31978  1.0000
  C   C5        1.0  0.56299  0.82852  0.24388  1.0000
  C   C6        1.0  0.93700  0.32852  0.74389  1.0000
  C   C7        1.0  0.43701  0.17148  0.75611  1.0000
  C   C8        1.0  0.06300  0.67148  0.25612  1.0000
  C   C9        1.0  0.48398  0.94965  0.22611  1.0000
  C   C10       1.0  0.01601  0.44965  0.72611  1.0000
  C   C11       1.0  0.51601  0.05035  0.77389  1.0000
  C   C12       1.0  0.98399  0.55035  0.27389  1.0000
  C   C13       1.0  0.50945  0.01340  0.14601  1.0000
  C   C14       1.0  0.99056  0.51339  0.64602  1.0000
  C   C15       1.0  0.49056  0.98660  0.85398  1.0000
  C   C16       1.0  0.00944  0.48661  0.35399  1.0000
  C   C17       1.0  0.61264  0.95416  0.08633  1.0000
  C   C18       1.0  0.88736  0.45416  0.58633  1.0000
  C   C19       1.0  0.38736  0.04584  0.91367  1.0000
  C   C20       1.0  0.11264  0.54584  0.41368  1.0000
  C   C21       1.0  0.54655  0.63577  0.93293  1.0000
  C   C22       1.0  0.95344  0.13577  0.43293  1.0000
  C   C23       1.0  0.45345  0.36422  0.06707  1.0000
  C   C24       1.0  0.04655  0.86423  0.56707  1.0000
  C   C25       1.0  0.44063  0.59234  0.87012  1.0000
  C   C26       1.0  0.05937  0.09235  0.37012  1.0000
  C   C27       1.0  0.55937  0.40765  0.12988  1.0000
  C   C28       1.0  0.94063  0.90766  0.62988  1.0000
  C   C29       1.0  0.47685  0.58449  0.77886  1.0000
  C   C30       1.0  0.02315  0.08449  0.27885  1.0000
  C   C31       1.0  0.52315  0.41551  0.22115  1.0000
  C   C32       1.0  0.97685  0.91551  0.72115  1.0000
  C   C33       1.0  0.61742  0.62031  0.75412  1.0000
  C   C34       1.0  0.88258  0.12030  0.25412  1.0000
  C   C35       1.0  0.38258  0.37969  0.24588  1.0000
  C   C36       1.0  0.11742  0.87969  0.74588  1.0000
  C   C37       1.0  0.71719  0.66155  0.82118  1.0000
  C   C38       1.0  0.78282  0.16155  0.32118  1.0000
  C   C39       1.0  0.28282  0.33845  0.17883  1.0000
  C   C40       1.0  0.21718  0.83845  0.67882  1.0000
  C   C41       1.0  0.04307  0.52283  0.95837  1.0000
  C   C42       1.0  0.45693  0.02283  0.45837  1.0000
  C   C43       1.0  0.95694  0.47717  0.04163  1.0000
  C   C44       1.0  0.54306  0.97718  0.54162  1.0000
  C   C45       1.0  0.95467  0.02036  0.95834  1.0000
  C   C46       1.0  0.54534  0.52036  0.45834  1.0000
  C   C47       1.0  0.04534  0.97964  0.04166  1.0000
  C   C48       1.0  0.45467  0.47964  0.54166  1.0000
  N   N1        1.0  0.68236  0.66979  0.90927  1.0000
  N   N2        1.0  0.81764  0.16979  0.40927  1.0000
  N   N3        1.0  0.31764  0.33021  0.09073  1.0000
  N   N4        1.0  0.18236  0.83021  0.59073  1.0000
  N   N5        1.0  0.68775  0.83607  0.10256  1.0000
  N   N6        1.0  0.81225  0.33607  0.60256  1.0000
  N   N7        1.0  0.31225  0.16393  0.89744  1.0000
  N   N8        1.0  0.18775  0.66393  0.39744  1.0000
  O   O1        1.0  0.85417  0.93536  0.93123  1.0000
  O   O2        1.0  0.64583  0.43536  0.43123  1.0000
  O   O3        1.0  0.14583  0.06464  0.06877  1.0000
  O   O4        1.0  0.35417  0.56464  0.56877  1.0000
  O   O5        1.0  0.98775  0.13410  0.92328  1.0000
  O   O6        1.0  0.51225  0.63411  0.42328  1.0000
  O   O7        1.0  0.01225  0.86590  0.07672  1.0000
  O   O8        1.0  0.48776  0.36590  0.57672  1.0000
  O   O9        1.0  0.01078  0.63982  0.92738  1.0000
  O   O10       1.0  0.48922  0.13982  0.42738  1.0000
  O   O11       1.0  0.98922  0.36018  0.07262  1.0000
  O   O12       1.0  0.51077  0.86018  0.57261  1.0000
  O   O13       1.0  0.14085  0.43771  0.92689  1.0000
  O   O14       1.0  0.35915  0.93771  0.42689  1.0000
  O   O15       1.0  0.85915  0.56229  0.07311  1.0000
  O   O16       1.0  0.64084  0.06229  0.57311  1.0000
