data_image0
_chemical_formula_structural       Ag4P4H20C24O10
_chemical_formula_sum              "Ag4 P4 H20 C24 O10"
_cell_length_a       5.8645
_cell_length_b       8.05696
_cell_length_c       14.7157
_cell_angle_alpha    76.9899
_cell_angle_beta     90.2439
_cell_angle_gamma    89.8009

_space_group_name_H-M_alt    "P 1"
_space_group_IT_number       1

loop_
  _space_group_symop_operation_xyz
  'x, y, z'

loop_
  _atom_site_type_symbol
  _atom_site_label
  _atom_site_symmetry_multiplicity
  _atom_site_fract_x
  _atom_site_fract_y
  _atom_site_fract_z
  _atom_site_occupancy
  Ag  Ag1       1.0  0.40691  0.28548  0.97413  1.0000
  Ag  Ag2       1.0  0.59308  0.71452  0.02587  1.0000
  Ag  Ag3       1.0  0.14976  0.82549  0.09019  1.0000
  Ag  Ag4       1.0  0.85022  0.17452  0.90980  1.0000
  P   P1        1.0  0.62218  0.95157  0.17097  1.0000
  P   P2        1.0  0.37782  0.04843  0.82903  1.0000
  P   P3        1.0  0.85324  0.29470  0.10508  1.0000
  P   P4        1.0  0.14676  0.70529  0.89492  1.0000
  H   H1        1.0  0.83079  0.75942  0.34240  1.0000
  H   H2        1.0  0.16922  0.24058  0.65759  1.0000
  H   H3        1.0  0.70304  0.69820  0.50832  1.0000
  H   H4        1.0  0.29698  0.30179  0.49168  1.0000
  H   H5        1.0  0.33385  0.81325  0.54876  1.0000
  H   H6        1.0  0.66617  0.18674  0.45124  1.0000
  H   H7        1.0  0.08794  0.98704  0.42404  1.0000
  H   H8        1.0  0.91206  0.01295  0.57596  1.0000
  H   H9        1.0  0.21619  0.04938  0.25906  1.0000
  H   H10       1.0  0.78380  0.95061  0.74095  1.0000
  H   H11       1.0  0.29275  0.46387  0.11349  1.0000
  H   H12       1.0  0.70725  0.53614  0.88651  1.0000
  H   H13       1.0  0.47136  0.59005  0.23492  1.0000
  H   H14       1.0  0.52864  0.40996  0.76508  1.0000
  H   H15       1.0  0.26887  0.58149  0.38450  1.0000
  H   H16       1.0  0.73112  0.41851  0.61550  1.0000
  H   H17       1.0  0.89202  0.43590  0.41341  1.0000
  H   H18       1.0  0.10796  0.56411  0.58659  1.0000
  H   H19       1.0  0.71357  0.31000  0.29119  1.0000
  H   H20       1.0  0.28642  0.69001  0.70881  1.0000
  C   C1        1.0  0.53228  0.90882  0.29083  1.0000
  C   C2        1.0  0.46772  0.09119  0.70917  1.0000
  C   C3        1.0  0.66897  0.80949  0.36101  1.0000
  C   C4        1.0  0.33104  0.19050  0.63898  1.0000
  C   C5        1.0  0.59632  0.77405  0.45350  1.0000
  C   C6        1.0  0.40369  0.22595  0.54650  1.0000
  C   C7        1.0  0.38742  0.83779  0.47619  1.0000
  C   C8        1.0  0.61259  0.16220  0.52381  1.0000
  C   C9        1.0  0.25080  0.93687  0.40647  1.0000
  C   C10       1.0  0.74921  0.06312  0.59353  1.0000
  C   C11       1.0  0.32259  0.97286  0.31383  1.0000
  C   C12       1.0  0.67742  0.02713  0.68617  1.0000
  C   C13       1.0  0.98867  0.38374  0.19315  1.0000
  C   C14       1.0  0.01133  0.61626  0.80685  1.0000
  C   C15       1.0  0.20119  0.46339  0.17761  1.0000
  C   C16       1.0  0.79882  0.53662  0.82239  1.0000
  C   C17       1.0  0.30233  0.53346  0.24674  1.0000
  C   C18       1.0  0.69767  0.46655  0.75326  1.0000
  C   C19       1.0  0.19042  0.52517  0.33127  1.0000
  C   C20       1.0  0.80957  0.47484  0.66873  1.0000
  C   C21       1.0  0.97914  0.44409  0.34721  1.0000
  C   C22       1.0  0.02085  0.55592  0.65279  1.0000
  C   C23       1.0  0.87827  0.37345  0.27868  1.0000
  C   C24       1.0  0.12173  0.62655  0.72132  1.0000
  O   O1        1.0  0.41734  0.01381  0.10878  1.0000
  O   O2        1.0  0.58266  0.98620  0.89122  1.0000
  O   O3        1.0  0.75769  0.80160  0.15150  1.0000
  O   O4        1.0  0.24230  0.19840  0.84849  1.0000
  O   O5        1.0  0.80473  0.10289  0.16710  1.0000
  O   O6        1.0  0.19528  0.89710  0.83290  1.0000
  O   O7        1.0  0.01476  0.27922  0.02733  1.0000
  O   O8        1.0  0.98523  0.72078  0.97266  1.0000
  O   O9        1.0  0.62822  0.38481  0.07741  1.0000
  O   O10       1.0  0.37177  0.61518  0.92260  1.0000
