data_image0
_chemical_formula_structural       Ag2H28C28S8N10O6
_chemical_formula_sum              "Ag2 H28 C28 S8 N10 O6"
_cell_length_a       9.43861
_cell_length_b       9.4386
_cell_length_c       11.3277
_cell_angle_alpha    90.1287
_cell_angle_beta     90.1293
_cell_angle_gamma    112.231

_space_group_name_H-M_alt    "P 1"
_space_group_IT_number       1

loop_
  _space_group_symop_operation_xyz
  'x, y, z'

loop_
  _atom_site_type_symbol
  _atom_site_label
  _atom_site_symmetry_multiplicity
  _atom_site_fract_x
  _atom_site_fract_y
  _atom_site_fract_z
  _atom_site_occupancy
  Ag  Ag1       1.0  0.91562  0.08438  0.25000  1.0000
  Ag  Ag2       1.0  0.08438  0.91562  0.75000  1.0000
  H   H1        1.0  0.87268  0.52738  0.07832  1.0000
  H   H2        1.0  0.52738  0.87267  0.57832  1.0000
  H   H3        1.0  0.12732  0.47262  0.92168  1.0000
  H   H4        1.0  0.47262  0.12732  0.42168  1.0000
  H   H5        1.0  0.92292  0.56900  0.92607  1.0000
  H   H6        1.0  0.56900  0.92291  0.42607  1.0000
  H   H7        1.0  0.07709  0.43100  0.07393  1.0000
  H   H8        1.0  0.43099  0.07708  0.57394  1.0000
  H   H9        1.0  0.72802  0.47399  0.96691  1.0000
  H   H10       1.0  0.47398  0.72802  0.46691  1.0000
  H   H11       1.0  0.27198  0.52602  0.03309  1.0000
  H   H12       1.0  0.52601  0.27198  0.53309  1.0000
  H   H13       1.0  0.75539  0.04839  0.76350  1.0000
  H   H14       1.0  0.04838  0.75538  0.26350  1.0000
  H   H15       1.0  0.24462  0.95162  0.23650  1.0000
  H   H16       1.0  0.95163  0.24462  0.73650  1.0000
  H   H17       1.0  0.56260  0.98292  0.81540  1.0000
  H   H18       1.0  0.98292  0.56260  0.31540  1.0000
  H   H19       1.0  0.43741  0.01707  0.18460  1.0000
  H   H20       1.0  0.01708  0.43741  0.68459  1.0000
  H   H21       1.0  0.43587  0.15564  0.85737  1.0000
  H   H22       1.0  0.15561  0.43585  0.35735  1.0000
  H   H23       1.0  0.56413  0.84435  0.14264  1.0000
  H   H24       1.0  0.84437  0.56414  0.64263  1.0000
  H   H25       1.0  0.40036  0.39799  0.80591  1.0000
  H   H26       1.0  0.39796  0.40034  0.30591  1.0000
  H   H27       1.0  0.59963  0.60200  0.19409  1.0000
  H   H28       1.0  0.60201  0.59964  0.69409  1.0000
  C   C1        1.0  0.83783  0.56188  0.99428  1.0000
  C   C2        1.0  0.56188  0.83783  0.49428  1.0000
  C   C3        1.0  0.16217  0.43813  0.00572  1.0000
  C   C4        1.0  0.43812  0.16217  0.50572  1.0000
  C   C5        1.0  0.82498  0.71259  0.01002  1.0000
  C   C6        1.0  0.71259  0.82498  0.51001  1.0000
  C   C7        1.0  0.17503  0.28741  0.98999  1.0000
  C   C8        1.0  0.28741  0.17502  0.48999  1.0000
  C   C9        1.0  0.78586  0.95020  0.99661  1.0000
  C   C10       1.0  0.95020  0.78586  0.49661  1.0000
  C   C11       1.0  0.21415  0.04980  0.00339  1.0000
  C   C12       1.0  0.04980  0.21415  0.50339  1.0000
  C   C13       1.0  0.67454  0.07834  0.81785  1.0000
  C   C14       1.0  0.07833  0.67453  0.31784  1.0000
  C   C15       1.0  0.32547  0.92166  0.18215  1.0000
  C   C16       1.0  0.92167  0.32547  0.68215  1.0000
  C   C17       1.0  0.65886  0.22448  0.78024  1.0000
  C   C18       1.0  0.22447  0.65886  0.28023  1.0000
  C   C19       1.0  0.34112  0.77552  0.21977  1.0000
  C   C20       1.0  0.77553  0.34114  0.71977  1.0000
  C   C21       1.0  0.52513  0.24712  0.81100  1.0000
  C   C22       1.0  0.24709  0.52511  0.31099  1.0000
  C   C23       1.0  0.47488  0.75288  0.18900  1.0000
  C   C24       1.0  0.75289  0.47488  0.68900  1.0000
  C   C25       1.0  0.50447  0.38132  0.78131  1.0000
  C   C26       1.0  0.38131  0.50445  0.28129  1.0000
  C   C27       1.0  0.49552  0.61866  0.21870  1.0000
  C   C28       1.0  0.61869  0.49554  0.71870  1.0000
  S   S1        1.0  0.74602  0.79473  0.90342  1.0000
  S   S2        1.0  0.79474  0.74602  0.40342  1.0000
  S   S3        1.0  0.25398  0.20527  0.09658  1.0000
  S   S4        1.0  0.20526  0.25398  0.59658  1.0000
  S   S5        1.0  0.74429  0.11017  0.97052  1.0000
  S   S6        1.0  0.11017  0.74429  0.47051  1.0000
  S   S7        1.0  0.25572  0.88984  0.02948  1.0000
  S   S8        1.0  0.88983  0.25571  0.52948  1.0000
  N   N1        1.0  0.87330  0.79871  0.10393  1.0000
  N   N2        1.0  0.79871  0.87330  0.60393  1.0000
  N   N3        1.0  0.12670  0.20129  0.89607  1.0000
  N   N4        1.0  0.20129  0.12670  0.39607  1.0000
  N   N5        1.0  0.85146  0.93365  0.09677  1.0000
  N   N6        1.0  0.93366  0.85146  0.59677  1.0000
  N   N7        1.0  0.14855  0.06635  0.90324  1.0000
  N   N8        1.0  0.06634  0.14854  0.40323  1.0000
  N   N9        1.0  0.72513  0.27487  0.25000  1.0000
  N   N10       1.0  0.27488  0.72514  0.75001  1.0000
  O   O1        1.0  0.66624  0.13189  0.27470  1.0000
  O   O2        1.0  0.13189  0.66625  0.77470  1.0000
  O   O3        1.0  0.33376  0.86812  0.72531  1.0000
  O   O4        1.0  0.86811  0.33375  0.22531  1.0000
  O   O5        1.0  0.64534  0.35467  0.25000  1.0000
  O   O6        1.0  0.35467  0.64534  0.75000  1.0000
