data_image0
_chemical_formula_structural       Zn8P4H8C4O28
_chemical_formula_sum              "Zn8 P4 H8 C4 O28"
_cell_length_a       4.81135
_cell_length_b       7.89038
_cell_length_c       14.1545
_cell_angle_alpha    96.4961
_cell_angle_beta     90
_cell_angle_gamma    89.9999

_space_group_name_H-M_alt    "P 1"
_space_group_IT_number       1

loop_
  _space_group_symop_operation_xyz
  'x, y, z'

loop_
  _atom_site_type_symbol
  _atom_site_label
  _atom_site_symmetry_multiplicity
  _atom_site_fract_x
  _atom_site_fract_y
  _atom_site_fract_z
  _atom_site_occupancy
  Zn  Zn1       1.0  0.97214  0.41037  0.30481  1.0000
  Zn  Zn2       1.0  0.47214  0.08963  0.19519  1.0000
  Zn  Zn3       1.0  0.02786  0.58963  0.69519  1.0000
  Zn  Zn4       1.0  0.52786  0.91036  0.80481  1.0000
  Zn  Zn5       1.0  0.98499  0.70116  0.13123  1.0000
  Zn  Zn6       1.0  0.48499  0.79884  0.36876  1.0000
  Zn  Zn7       1.0  0.01501  0.29883  0.86877  1.0000
  Zn  Zn8       1.0  0.51501  0.20117  0.63124  1.0000
  P   P1        1.0  0.52524  0.50270  0.19541  1.0000
  P   P2        1.0  0.02524  0.99730  0.30459  1.0000
  P   P3        1.0  0.47476  0.49730  0.80459  1.0000
  P   P4        1.0  0.97476  0.00269  0.69541  1.0000
  H   H1        1.0  0.25053  0.60570  0.97014  1.0000
  H   H2        1.0  0.75052  0.89430  0.52986  1.0000
  H   H3        1.0  0.74948  0.39429  0.02986  1.0000
  H   H4        1.0  0.24947  0.10571  0.47014  1.0000
  H   H5        1.0  0.01484  0.75118  0.96205  1.0000
  H   H6        1.0  0.51483  0.74882  0.53795  1.0000
  H   H7        1.0  0.98516  0.24883  0.03795  1.0000
  H   H8        1.0  0.48516  0.25117  0.46205  1.0000
  C   C1        1.0  0.87679  0.44077  0.50723  1.0000
  C   C2        1.0  0.37679  0.05923  0.99278  1.0000
  C   C3        1.0  0.12322  0.55923  0.49278  1.0000
  C   C4        1.0  0.62322  0.94077  0.00722  1.0000
  O   O1        1.0  0.20336  0.50520  0.19480  1.0000
  O   O2        1.0  0.70337  0.99480  0.30520  1.0000
  O   O3        1.0  0.79663  0.49480  0.80520  1.0000
  O   O4        1.0  0.29663  0.00520  0.69480  1.0000
  O   O5        1.0  0.65670  0.62158  0.27965  1.0000
  O   O6        1.0  0.15670  0.87841  0.22035  1.0000
  O   O7        1.0  0.34330  0.37842  0.72035  1.0000
  O   O8        1.0  0.84330  0.12159  0.77965  1.0000
  O   O9        1.0  0.64238  0.32375  0.21088  1.0000
  O   O10       1.0  0.14239  0.17625  0.28912  1.0000
  O   O11       1.0  0.35761  0.67625  0.78913  1.0000
  O   O12       1.0  0.85761  0.82375  0.71087  1.0000
  O   O13       1.0  0.64147  0.56018  0.10189  1.0000
  O   O14       1.0  0.14147  0.93982  0.39811  1.0000
  O   O15       1.0  0.35852  0.43981  0.89811  1.0000
  O   O16       1.0  0.85852  0.06018  0.60189  1.0000
  O   O17       1.0  0.76436  0.36523  0.43326  1.0000
  O   O18       1.0  0.26436  0.13476  0.06674  1.0000
  O   O19       1.0  0.23565  0.63477  0.56674  1.0000
  O   O20       1.0  0.73565  0.86523  0.93326  1.0000
  O   O21       1.0  0.80228  0.42889  0.59230  1.0000
  O   O22       1.0  0.30229  0.07111  0.90770  1.0000
  O   O23       1.0  0.19771  0.57111  0.40770  1.0000
  O   O24       1.0  0.69773  0.92888  0.09230  1.0000
  O   O25       1.0  0.16091  0.71044  0.00425  1.0000
  O   O26       1.0  0.66090  0.78956  0.49574  1.0000
  O   O27       1.0  0.83909  0.28956  0.99575  1.0000
  O   O28       1.0  0.33909  0.21044  0.50425  1.0000
