data_image0
_chemical_formula_structural       Cd2H16C24S4N4O6
_chemical_formula_sum              "Cd2 H16 C24 S4 N4 O6"
_cell_length_a       6.5018
_cell_length_b       9.16312
_cell_length_c       10.6233
_cell_angle_alpha    76.3755
_cell_angle_beta     82.4431
_cell_angle_gamma    83.0724

_space_group_name_H-M_alt    "P 1"
_space_group_IT_number       1

loop_
  _space_group_symop_operation_xyz
  'x, y, z'

loop_
  _atom_site_type_symbol
  _atom_site_label
  _atom_site_symmetry_multiplicity
  _atom_site_fract_x
  _atom_site_fract_y
  _atom_site_fract_z
  _atom_site_occupancy
  Cd  Cd1       1.0  0.69760  0.35688  0.68952  1.0000
  Cd  Cd2       1.0  0.30240  0.64313  0.31048  1.0000
  H   H1        1.0  0.70579  0.18401  0.45461  1.0000
  H   H2        1.0  0.29420  0.81599  0.54539  1.0000
  H   H3        1.0  0.74839  0.91704  0.41976  1.0000
  H   H4        1.0  0.25161  0.08296  0.58024  1.0000
  H   H5        1.0  0.81175  0.70401  0.60597  1.0000
  H   H6        1.0  0.18826  0.29599  0.39403  1.0000
  H   H7        1.0  0.85023  0.61381  0.84596  1.0000
  H   H8        1.0  0.14977  0.38619  0.15404  1.0000
  H   H9        1.0  0.82236  0.67134  0.06534  1.0000
  H   H10       1.0  0.17764  0.32866  0.93466  1.0000
  H   H11       1.0  0.75902  0.86154  0.20423  1.0000
  H   H12       1.0  0.24098  0.13845  0.79576  1.0000
  H   H13       1.0  0.70014  0.13644  0.21610  1.0000
  H   H14       1.0  0.29986  0.86355  0.78390  1.0000
  H   H15       1.0  0.68092  0.33253  0.01122  1.0000
  H   H16       1.0  0.31907  0.66747  0.98879  1.0000
  C   C1        1.0  0.73159  0.08622  0.53434  1.0000
  C   C2        1.0  0.26842  0.91378  0.46566  1.0000
  C   C3        1.0  0.75602  0.93836  0.51542  1.0000
  C   C4        1.0  0.24398  0.06165  0.48458  1.0000
  C   C5        1.0  0.78973  0.81898  0.61971  1.0000
  C   C6        1.0  0.21027  0.18102  0.38029  1.0000
  C   C7        1.0  0.79425  0.84743  0.74440  1.0000
  C   C8        1.0  0.20575  0.15257  0.25559  1.0000
  C   C9        1.0  0.81950  0.72956  0.85829  1.0000
  C   C10       1.0  0.18050  0.27044  0.14170  1.0000
  C   C11       1.0  0.80653  0.76155  0.97858  1.0000
  C   C12       1.0  0.19347  0.23845  0.02141  1.0000
  C   C13       1.0  0.77141  0.91399  0.99377  1.0000
  C   C14       1.0  0.22860  0.08601  0.00623  1.0000
  C   C15       1.0  0.75092  0.95183  0.11667  1.0000
  C   C16       1.0  0.24908  0.04816  0.88333  1.0000
  C   C17       1.0  0.71766  0.10164  0.12381  1.0000
  C   C18       1.0  0.28233  0.89835  0.87619  1.0000
  C   C19       1.0  0.70660  0.21336  0.00823  1.0000
  C   C20       1.0  0.29340  0.78663  0.99177  1.0000
  C   C21       1.0  0.75496  0.03437  0.88231  1.0000
  C   C22       1.0  0.24504  0.96563  0.11768  1.0000
  C   C23       1.0  0.76481  0.00040  0.75534  1.0000
  C   C24       1.0  0.23519  0.99960  0.24466  1.0000
  S   S1        1.0  0.40554  0.54535  0.74517  1.0000
  S   S2        1.0  0.59446  0.45464  0.25483  1.0000
  S   S3        1.0  0.20896  0.46534  0.64366  1.0000
  S   S4        1.0  0.79104  0.53466  0.35635  1.0000
  N   N1        1.0  0.73781  0.11578  0.65059  1.0000
  N   N2        1.0  0.26219  0.88422  0.34941  1.0000
  N   N3        1.0  0.72462  0.18067  0.89155  1.0000
  N   N4        1.0  0.27537  0.81934  0.10845  1.0000
  O   O1        1.0  0.31475  0.32623  0.61042  1.0000
  O   O2        1.0  0.68525  0.67377  0.38958  1.0000
  O   O3        1.0  0.16621  0.58623  0.52764  1.0000
  O   O4        1.0  0.83379  0.41377  0.47236  1.0000
  O   O5        1.0  0.01282  0.43823  0.73224  1.0000
  O   O6        1.0  0.98718  0.56178  0.26775  1.0000
