data_image0
_chemical_formula_structural       Cu2H24C32N4O16
_chemical_formula_sum              "Cu2 H24 C32 N4 O16"
_cell_length_a       8.02898
_cell_length_b       8.02894
_cell_length_c       13.3592
_cell_angle_alpha    74.8331
_cell_angle_beta     74.833
_cell_angle_gamma    69.6494

_space_group_name_H-M_alt    "P 1"
_space_group_IT_number       1

loop_
  _space_group_symop_operation_xyz
  'x, y, z'

loop_
  _atom_site_type_symbol
  _atom_site_label
  _atom_site_symmetry_multiplicity
  _atom_site_fract_x
  _atom_site_fract_y
  _atom_site_fract_z
  _atom_site_occupancy
  Cu  Cu1       1.0  0.50000  0.00000  0.50000  1.0000
  Cu  Cu2       1.0  1.00000  0.50000  0.00000  1.0000
  H   H1        1.0  0.89568  0.85234  0.06330  1.0000
  H   H2        1.0  0.85235  0.89567  0.56330  1.0000
  H   H3        1.0  0.10432  0.14766  0.93670  1.0000
  H   H4        1.0  0.14766  0.10432  0.43670  1.0000
  H   H5        1.0  0.23783  0.66332  0.90270  1.0000
  H   H6        1.0  0.66332  0.23784  0.40270  1.0000
  H   H7        1.0  0.76217  0.33668  0.09730  1.0000
  H   H8        1.0  0.33668  0.76216  0.59730  1.0000
  H   H9        1.0  0.14551  0.62257  0.81624  1.0000
  H   H10       1.0  0.62257  0.14551  0.31624  1.0000
  H   H11       1.0  0.85449  0.37743  0.18376  1.0000
  H   H12       1.0  0.37743  0.85449  0.68376  1.0000
  H   H13       1.0  0.43208  0.38298  0.01352  1.0000
  H   H14       1.0  0.38298  0.43208  0.51352  1.0000
  H   H15       1.0  0.56792  0.61703  0.98648  1.0000
  H   H16       1.0  0.61703  0.56792  0.48648  1.0000
  H   H17       1.0  0.75767  0.97622  0.82832  1.0000
  H   H18       1.0  0.97622  0.75766  0.32832  1.0000
  H   H19       1.0  0.24233  0.02378  0.17168  1.0000
  H   H20       1.0  0.02378  0.24234  0.67168  1.0000
  H   H21       1.0  0.30370  0.39502  0.71682  1.0000
  H   H22       1.0  0.39502  0.30370  0.21681  1.0000
  H   H23       1.0  0.69629  0.60498  0.28318  1.0000
  H   H24       1.0  0.60498  0.69629  0.78319  1.0000
  C   C1        1.0  0.35391  0.40883  0.86583  1.0000
  C   C2        1.0  0.40883  0.35392  0.36583  1.0000
  C   C3        1.0  0.64608  0.59117  0.13417  1.0000
  C   C4        1.0  0.59117  0.64608  0.63417  1.0000
  C   C5        1.0  0.46282  0.32809  0.94224  1.0000
  C   C6        1.0  0.32809  0.46283  0.44224  1.0000
  C   C7        1.0  0.53717  0.67191  0.05776  1.0000
  C   C8        1.0  0.67192  0.53717  0.55776  1.0000
  C   C9        1.0  0.60597  0.17040  0.92994  1.0000
  C   C10       1.0  0.17041  0.60597  0.42994  1.0000
  C   C11       1.0  0.39403  0.82960  0.07006  1.0000
  C   C12       1.0  0.82960  0.39403  0.57006  1.0000
  C   C13       1.0  0.64440  0.09686  0.83970  1.0000
  C   C14       1.0  0.09686  0.64440  0.33970  1.0000
  C   C15       1.0  0.35560  0.90314  0.16029  1.0000
  C   C16       1.0  0.90314  0.35560  0.66030  1.0000
  C   C17       1.0  0.53625  0.17888  0.76305  1.0000
  C   C18       1.0  0.17888  0.53625  0.26305  1.0000
  C   C19       1.0  0.46375  0.82112  0.23695  1.0000
  C   C20       1.0  0.82112  0.46375  0.73695  1.0000
  C   C21       1.0  0.38862  0.33302  0.77656  1.0000
  C   C22       1.0  0.33302  0.38862  0.27656  1.0000
  C   C23       1.0  0.61138  0.66698  0.22344  1.0000
  C   C24       1.0  0.66698  0.61138  0.72344  1.0000
  C   C25       1.0  0.71443  0.08026  0.01478  1.0000
  C   C26       1.0  0.08026  0.71443  0.51478  1.0000
  C   C27       1.0  0.28557  0.91974  0.98522  1.0000
  C   C28       1.0  0.91974  0.28557  0.48522  1.0000
  C   C29       1.0  0.58704  0.09581  0.66711  1.0000
  C   C30       1.0  0.09582  0.58703  0.16711  1.0000
  C   C31       1.0  0.41297  0.90419  0.33289  1.0000
  C   C32       1.0  0.90418  0.41297  0.83289  1.0000
  N   N1        1.0  0.20241  0.56535  0.88221  1.0000
  N   N2        1.0  0.56535  0.20240  0.38221  1.0000
  N   N3        1.0  0.79759  0.43466  0.11779  1.0000
  N   N4        1.0  0.43465  0.79759  0.61779  1.0000
  O   O1        1.0  0.74551  0.99100  0.64905  1.0000
  O   O2        1.0  0.99100  0.74551  0.14905  1.0000
  O   O3        1.0  0.25449  0.00900  0.35095  1.0000
  O   O4        1.0  0.00900  0.25450  0.85095  1.0000
  O   O5        1.0  0.46461  0.13600  0.61119  1.0000
  O   O6        1.0  0.13599  0.46461  0.11119  1.0000
  O   O7        1.0  0.53539  0.86401  0.38881  1.0000
  O   O8        1.0  0.86400  0.53539  0.88881  1.0000
  O   O9        1.0  0.82732  0.91975  0.00079  1.0000
  O   O10       1.0  0.91975  0.82732  0.50080  1.0000
  O   O11       1.0  0.17268  0.08025  0.99921  1.0000
  O   O12       1.0  0.08026  0.17268  0.49921  1.0000
  O   O13       1.0  0.69662  0.14954  0.09159  1.0000
  O   O14       1.0  0.14954  0.69661  0.59159  1.0000
  O   O15       1.0  0.30338  0.85046  0.90841  1.0000
  O   O16       1.0  0.85046  0.30338  0.40842  1.0000
