data_image0
_chemical_formula_structural       Cu2H24C40N20
_chemical_formula_sum              "Cu2 H24 C40 N20"
_cell_length_a       7.30002
_cell_length_b       9.81432
_cell_length_c       14.4909
_cell_angle_alpha    102.614
_cell_angle_beta     89.9667
_cell_angle_gamma    111.745

_space_group_name_H-M_alt    "P 1"
_space_group_IT_number       1

loop_
  _space_group_symop_operation_xyz
  'x, y, z'

loop_
  _atom_site_type_symbol
  _atom_site_label
  _atom_site_symmetry_multiplicity
  _atom_site_fract_x
  _atom_site_fract_y
  _atom_site_fract_z
  _atom_site_occupancy
  Cu  Cu1       1.0  0.61161  0.00013  0.75002  1.0000
  Cu  Cu2       1.0  0.38839  0.99987  0.24999  1.0000
  H   H1        1.0  0.45485  0.68831  0.61379  1.0000
  H   H2        1.0  0.23332  0.68798  0.11371  1.0000
  H   H3        1.0  0.54515  0.31169  0.38621  1.0000
  H   H4        1.0  0.76667  0.31202  0.88629  1.0000
  H   H5        1.0  0.31307  0.42835  0.50861  1.0000
  H   H6        1.0  0.11536  0.42802  0.00844  1.0000
  H   H7        1.0  0.68693  0.57166  0.49139  1.0000
  H   H8        1.0  0.88462  0.57198  0.99155  1.0000
  H   H9        1.0  0.20857  0.20458  0.57846  1.0000
  H   H10       1.0  0.99602  0.20421  0.07829  1.0000
  H   H11       1.0  0.79143  0.79542  0.42154  1.0000
  H   H12       1.0  0.00398  0.79580  0.92171  1.0000
  H   H13       1.0  0.23981  0.23753  0.75437  1.0000
  H   H14       1.0  0.99714  0.23710  0.25418  1.0000
  H   H15       1.0  0.76019  0.76247  0.24563  1.0000
  H   H16       1.0  0.00287  0.76290  0.74581  1.0000
  H   H17       1.0  0.46845  0.64871  0.00880  1.0000
  H   H18       1.0  0.17984  0.64832  0.50873  1.0000
  H   H19       1.0  0.53155  0.35129  0.99121  1.0000
  H   H20       1.0  0.82016  0.35167  0.49127  1.0000
  H   H21       1.0  0.56076  0.87693  0.93833  1.0000
  H   H22       1.0  0.31575  0.87651  0.43824  1.0000
  H   H23       1.0  0.43923  0.12306  0.06167  1.0000
  H   H24       1.0  0.68425  0.12349  0.56176  1.0000
  C   C1        1.0  0.42221  0.60966  0.74281  1.0000
  C   C2        1.0  0.18693  0.60928  0.24270  1.0000
  C   C3        1.0  0.57778  0.39034  0.25719  1.0000
  C   C4        1.0  0.81307  0.39072  0.75730  1.0000
  C   C5        1.0  0.40631  0.58858  0.64286  1.0000
  C   C6        1.0  0.18200  0.58823  0.14275  1.0000
  C   C7        1.0  0.59368  0.41142  0.35714  1.0000
  C   C8        1.0  0.81800  0.41177  0.85724  1.0000
  C   C9        1.0  0.32997  0.44480  0.58547  1.0000
  C   C10       1.0  0.11463  0.44443  0.08531  1.0000
  C   C11       1.0  0.67003  0.55520  0.41453  1.0000
  C   C12       1.0  0.88536  0.55558  0.91469  1.0000
  C   C13       1.0  0.26905  0.31709  0.62525  1.0000
  C   C14       1.0  0.04773  0.31670  0.12507  1.0000
  C   C15       1.0  0.73096  0.68292  0.37475  1.0000
  C   C16       1.0  0.95228  0.68330  0.87492  1.0000
  C   C17       1.0  0.28470  0.33409  0.72220  1.0000
  C   C18       1.0  0.04869  0.33369  0.22203  1.0000
  C   C19       1.0  0.71530  0.66591  0.27779  1.0000
  C   C20       1.0  0.95131  0.66630  0.77796  1.0000
  C   C21       1.0  0.36152  0.48019  0.78331  1.0000
  C   C22       1.0  0.11791  0.47979  0.28319  1.0000
  C   C23       1.0  0.63847  0.51982  0.21668  1.0000
  C   C24       1.0  0.88209  0.52021  0.71680  1.0000
  C   C25       1.0  0.45026  0.63503  0.93207  1.0000
  C   C26       1.0  0.18425  0.63465  0.43199  1.0000
  C   C27       1.0  0.54975  0.36496  0.06793  1.0000
  C   C28       1.0  0.81575  0.36535  0.56801  1.0000
  C   C29       1.0  0.50506  0.76318  0.89256  1.0000
  C   C30       1.0  0.25758  0.76277  0.39247  1.0000
  C   C31       1.0  0.49494  0.23682  0.10744  1.0000
  C   C32       1.0  0.74242  0.23723  0.60753  1.0000
  C   C33       1.0  0.30131  0.06859  0.87483  1.0000
  C   C34       1.0  0.76649  0.06823  0.37495  1.0000
  C   C35       1.0  0.69869  0.93141  0.12518  1.0000
  C   C36       1.0  0.23353  0.93177  0.62506  1.0000
  C   C37       1.0  0.98900  0.07071  0.87587  1.0000
  C   C38       1.0  0.08094  0.07044  0.37569  1.0000
  C   C39       1.0  0.01100  0.92929  0.12413  1.0000
  C   C40       1.0  0.91906  0.92957  0.62431  1.0000
  N   N1        1.0  0.49264  0.75195  0.80012  1.0000
  N   N2        1.0  0.25882  0.75154  0.30002  1.0000
  N   N3        1.0  0.50736  0.24805  0.19989  1.0000
  N   N4        1.0  0.74118  0.24845  0.69998  1.0000
  N   N5        1.0  0.37779  0.49556  0.87917  1.0000
  N   N6        1.0  0.11709  0.49518  0.37906  1.0000
  N   N7        1.0  0.62220  0.50443  0.12083  1.0000
  N   N8        1.0  0.88292  0.50482  0.62093  1.0000
  N   N9        1.0  0.45287  0.07101  0.84564  1.0000
  N   N10       1.0  0.61723  0.07050  0.34585  1.0000
  N   N11       1.0  0.54713  0.92899  0.15437  1.0000
  N   N12       1.0  0.38277  0.92950  0.65416  1.0000
  N   N13       1.0  0.14468  0.06791  0.91629  1.0000
  N   N14       1.0  0.92252  0.06755  0.41627  1.0000
  N   N15       1.0  0.85532  0.93209  0.08372  1.0000
  N   N16       1.0  0.07749  0.93246  0.58374  1.0000
  N   N17       1.0  0.84130  0.07440  0.84612  1.0000
  N   N18       1.0  0.23243  0.07432  0.34588  1.0000
  N   N19       1.0  0.15872  0.92559  0.15388  1.0000
  N   N20       1.0  0.76757  0.92568  0.65412  1.0000
