data_image0
_chemical_formula_structural       MnH20C20N2O8
_chemical_formula_sum              "Mn1 H20 C20 N2 O8"
_cell_length_a       5.60956
_cell_length_b       7.9735
_cell_length_c       11.1703
_cell_angle_alpha    106.921
_cell_angle_beta     97.5968
_cell_angle_gamma    98.4146

_space_group_name_H-M_alt    "P 1"
_space_group_IT_number       1

loop_
  _space_group_symop_operation_xyz
  'x, y, z'

loop_
  _atom_site_type_symbol
  _atom_site_label
  _atom_site_symmetry_multiplicity
  _atom_site_fract_x
  _atom_site_fract_y
  _atom_site_fract_z
  _atom_site_occupancy
  Mn  Mn1       1.0  0.50000  0.49999  0.99999  1.0000
  H   H1        1.0  0.03099  0.36637  0.06096  1.0000
  H   H2        1.0  0.96901  0.63363  0.93904  1.0000
  H   H3        1.0  0.24664  0.25198  0.05613  1.0000
  H   H4        1.0  0.75336  0.74801  0.94387  1.0000
  H   H5        1.0  0.75459  0.05838  0.24409  1.0000
  H   H6        1.0  0.24539  0.94162  0.75592  1.0000
  H   H7        1.0  0.91188  0.04972  0.11483  1.0000
  H   H8        1.0  0.08812  0.95028  0.88519  1.0000
  H   H9        1.0  0.63596  0.26380  0.37990  1.0000
  H   H10       1.0  0.36404  0.73621  0.62012  1.0000
  H   H11       1.0  0.37663  0.52978  0.40842  1.0000
  H   H12       1.0  0.62337  0.47023  0.59159  1.0000
  H   H13       1.0  0.82462  0.64377  0.27496  1.0000
  H   H14       1.0  0.17541  0.35622  0.72504  1.0000
  H   H15       1.0  0.83636  0.84599  0.49031  1.0000
  H   H16       1.0  0.16367  0.15401  0.50968  1.0000
  H   H17       1.0  0.17711  0.99451  0.33674  1.0000
  H   H18       1.0  0.82290  0.00550  0.66325  1.0000
  H   H19       1.0  0.19055  0.78302  0.12993  1.0000
  H   H20       1.0  0.80942  0.21697  0.87005  1.0000
  C   C1        1.0  0.64393  0.21802  0.12773  1.0000
  C   C2        1.0  0.35607  0.78198  0.87228  1.0000
  C   C3        1.0  0.83921  0.13863  0.19032  1.0000
  C   C4        1.0  0.16079  0.86138  0.80969  1.0000
  C   C5        1.0  0.01118  0.38202  0.38080  1.0000
  C   C6        1.0  0.98879  0.61800  0.61920  1.0000
  C   C7        1.0  0.79720  0.36527  0.43208  1.0000
  C   C8        1.0  0.20278  0.63475  0.56794  1.0000
  C   C9        1.0  0.21132  0.51802  0.44896  1.0000
  C   C10       1.0  0.78869  0.48196  0.55106  1.0000
  C   C11       1.0  0.68394  0.72405  0.29316  1.0000
  C   C12       1.0  0.31607  0.27593  0.70683  1.0000
  C   C13       1.0  0.68885  0.83923  0.41427  1.0000
  C   C14       1.0  0.31117  0.16076  0.58573  1.0000
  C   C15       1.0  0.50314  0.93943  0.43609  1.0000
  C   C16       1.0  0.49688  0.06056  0.56389  1.0000
  C   C17       1.0  0.32352  0.91854  0.33007  1.0000
  C   C18       1.0  0.67647  0.08145  0.66991  1.0000
  C   C19       1.0  0.33129  0.80035  0.21203  1.0000
  C   C20       1.0  0.66869  0.19964  0.78795  1.0000
  N   N1        1.0  0.50706  0.70249  0.19276  1.0000
  N   N2        1.0  0.49294  0.29751  0.80723  1.0000
  O   O1        1.0  0.72263  0.35611  0.09597  1.0000
  O   O2        1.0  0.27738  0.64388  0.90402  1.0000
  O   O3        1.0  0.42405  0.14181  0.11037  1.0000
  O   O4        1.0  0.57596  0.85819  0.88964  1.0000
  O   O5        1.0  0.04607  0.26928  0.26801  1.0000
  O   O6        1.0  0.95394  0.73073  0.73200  1.0000
  O   O7        1.0  0.16573  0.33302  0.01524  1.0000
  O   O8        1.0  0.83427  0.66698  0.98476  1.0000
