data_image0
_chemical_formula_structural       Na2H26C20N4O12
_chemical_formula_sum              "Na2 H26 C20 N4 O12"
_cell_length_a       8.67408
_cell_length_b       8.67426
_cell_length_c       10.1593
_cell_angle_alpha    91.5579
_cell_angle_beta     114.566
_cell_angle_gamma    118.771

_space_group_name_H-M_alt    "P 1"
_space_group_IT_number       1

loop_
  _space_group_symop_operation_xyz
  'x, y, z'

loop_
  _atom_site_type_symbol
  _atom_site_label
  _atom_site_symmetry_multiplicity
  _atom_site_fract_x
  _atom_site_fract_y
  _atom_site_fract_z
  _atom_site_occupancy
  Na  Na1       1.0  0.88068  0.88077  0.00008  1.0000
  Na  Na2       1.0  0.13802  0.63803  0.49999  1.0000
  H   H1        1.0  0.14552  0.33330  0.38808  1.0000
  H   H2        1.0  0.94513  0.75737  0.61198  1.0000
  H   H3        1.0  0.31179  0.23603  0.62741  1.0000
  H   H4        1.0  0.60845  0.68408  0.37253  1.0000
  H   H5        1.0  0.67027  0.41695  0.57221  1.0000
  H   H6        1.0  0.84438  0.09775  0.42774  1.0000
  H   H7        1.0  0.59404  0.23314  0.65258  1.0000
  H   H8        1.0  0.58022  0.94111  0.34729  1.0000
  H   H9        1.0  0.50268  0.17015  0.34920  1.0000
  H   H10       1.0  0.82064  0.15324  0.65071  1.0000
  H   H11       1.0  0.33450  0.01474  0.40646  1.0000
  H   H12       1.0  0.60786  0.92785  0.59343  1.0000
  H   H13       1.0  0.70896  0.01842  0.14147  1.0000
  H   H14       1.0  0.87724  0.56780  0.85857  1.0000
  H   H15       1.0  0.34203  0.94090  0.96727  1.0000
  H   H16       1.0  0.97335  0.37452  0.03243  1.0000
  H   H17       1.0  0.32154  0.18865  0.89615  1.0000
  H   H18       1.0  0.29231  0.42515  0.10381  1.0000
  H   H19       1.0  0.54926  0.29064  0.88660  1.0000
  H   H20       1.0  0.40397  0.66248  0.11353  1.0000
  H   H21       1.0  0.50664  0.31377  0.16826  1.0000
  H   H22       1.0  0.14541  0.33842  0.83165  1.0000
  H   H23       1.0  0.68885  0.48602  0.13008  1.0000
  H   H24       1.0  0.35618  0.55872  0.87014  1.0000
  H   H25       1.0  0.51175  0.76894  0.75687  1.0000
  H   H26       1.0  0.01204  0.75478  0.24308  1.0000
  C   C1        1.0  0.49937  0.52448  0.68151  1.0000
  C   C2        1.0  0.84289  0.81773  0.31852  1.0000
  C   C3        1.0  0.39306  0.33416  0.57722  1.0000
  C   C4        1.0  0.75673  0.81559  0.42274  1.0000
  C   C5        1.0  0.53960  0.29098  0.56329  1.0000
  C   C6        1.0  0.72733  0.97599  0.43663  1.0000
  C   C7        1.0  0.41510  0.15823  0.40520  1.0000
  C   C8        1.0  0.75263  0.00962  0.59471  1.0000
  C   C9        1.0  0.25821  0.20316  0.31903  1.0000
  C   C10       1.0  0.88377  0.93893  0.68093  1.0000
  C   C11       1.0  0.46550  0.95214  0.82643  1.0000
  C   C12       1.0  0.12544  0.63870  0.17354  1.0000
  C   C13       1.0  0.47779  0.04517  0.96271  1.0000
  C   C14       1.0  0.08230  0.51491  0.03719  1.0000
  C   C15       1.0  0.47618  0.22117  0.95170  1.0000
  C   C16       1.0  0.26939  0.52432  0.04834  1.0000
  C   C17       1.0  0.60207  0.33885  0.11598  1.0000
  C   C18       1.0  0.22299  0.48613  0.88411  1.0000
  C   C19       1.0  0.73768  0.26942  0.19456  1.0000
  C   C20       1.0  0.07528  0.54349  0.80562  1.0000
  N   N1        1.0  0.25345  0.30218  0.42053  1.0000
  N   N2        1.0  0.88138  0.83270  0.57945  1.0000
  N   N3        1.0  0.65988  0.10452  0.10486  1.0000
  N   N4        1.0  0.99986  0.55519  0.89519  1.0000
  O   O1        1.0  0.41783  0.61792  0.64007  1.0000
  O   O2        1.0  0.97786  0.77777  0.36000  1.0000
  O   O3        1.0  0.65540  0.57748  0.80549  1.0000
  O   O4        1.0  0.77193  0.84987  0.19456  1.0000
  O   O5        1.0  0.15049  0.15610  0.17930  1.0000
  O   O6        1.0  0.97636  0.97095  0.82065  1.0000
  O   O7        1.0  0.57156  0.87550  0.85818  1.0000
  O   O8        1.0  0.01728  0.71327  0.14183  1.0000
  O   O9        1.0  0.35394  0.94151  0.69680  1.0000
  O   O10       1.0  0.24411  0.65647  0.30317  1.0000
  O   O11       1.0  0.89265  0.34765  0.32162  1.0000
  O   O12       1.0  0.02683  0.57184  0.67874  1.0000
