data_image0
_chemical_formula_structural       Ag2H28C32N2O4F2
_chemical_formula_sum              "Ag2 H28 C32 N2 O4 F2"
_cell_length_a       5.40285
_cell_length_b       10.0803
_cell_length_c       13.121
_cell_angle_alpha    87.7757
_cell_angle_beta     84.5703
_cell_angle_gamma    78.4637

_space_group_name_H-M_alt    "P 1"
_space_group_IT_number       1

loop_
  _space_group_symop_operation_xyz
  'x, y, z'

loop_
  _atom_site_type_symbol
  _atom_site_label
  _atom_site_symmetry_multiplicity
  _atom_site_fract_x
  _atom_site_fract_y
  _atom_site_fract_z
  _atom_site_occupancy
  Ag  Ag1       1.0  0.73831  0.91336  0.51228  1.0000
  Ag  Ag2       1.0  0.26170  0.08667  0.48772  1.0000
  H   H1        1.0  0.99434  0.61899  0.75218  1.0000
  H   H2        1.0  0.00568  0.38101  0.24781  1.0000
  H   H3        1.0  0.41676  0.84475  0.01567  1.0000
  H   H4        1.0  0.58322  0.15524  0.98431  1.0000
  H   H5        1.0  0.03766  0.96170  0.92645  1.0000
  H   H6        1.0  0.96232  0.03831  0.07353  1.0000
  H   H7        1.0  0.04760  0.95242  0.73625  1.0000
  H   H8        1.0  0.95241  0.04760  0.26372  1.0000
  H   H9        1.0  0.43022  0.83138  0.63633  1.0000
  H   H10       1.0  0.56979  0.16863  0.36366  1.0000
  H   H11       1.0  0.25754  0.56593  0.61975  1.0000
  H   H12       1.0  0.74245  0.43406  0.38023  1.0000
  H   H13       1.0  0.27564  0.70047  0.52895  1.0000
  H   H14       1.0  0.72438  0.29952  0.47104  1.0000
  H   H15       1.0  0.98091  0.62048  0.42334  1.0000
  H   H16       1.0  0.01914  0.37951  0.57663  1.0000
  H   H17       1.0  0.25914  0.49735  0.43902  1.0000
  H   H18       1.0  0.74089  0.50265  0.56096  1.0000
  H   H19       1.0  0.03907  0.15744  0.74539  1.0000
  H   H20       1.0  0.96092  0.84255  0.25463  1.0000
  H   H21       1.0  0.07807  0.29224  0.89558  1.0000
  H   H22       1.0  0.92191  0.70774  0.10446  1.0000
  H   H23       1.0  0.72738  0.47961  0.95429  1.0000
  H   H24       1.0  0.27260  0.52037  0.04574  1.0000
  H   H25       1.0  0.33184  0.52982  0.86403  1.0000
  H   H26       1.0  0.66815  0.47017  0.13601  1.0000
  H   H27       1.0  0.28478  0.38309  0.72065  1.0000
  H   H28       1.0  0.71522  0.61692  0.27938  1.0000
  C   C1        1.0  0.86976  0.69671  0.70918  1.0000
  C   C2        1.0  0.13025  0.30329  0.29080  1.0000
  C   C3        1.0  0.64236  0.77089  0.76693  1.0000
  C   C4        1.0  0.35767  0.22911  0.23306  1.0000
  C   C5        1.0  0.62751  0.77650  0.87396  1.0000
  C   C6        1.0  0.37247  0.22351  0.12603  1.0000
  C   C7        1.0  0.41669  0.84468  0.93266  1.0000
  C   C8        1.0  0.58329  0.15532  0.06731  1.0000
  C   C9        1.0  0.20742  0.90911  0.88237  1.0000
  C   C10       1.0  0.79260  0.09090  0.11760  1.0000
  C   C11       1.0  0.21170  0.90431  0.77589  1.0000
  C   C12       1.0  0.78830  0.09570  0.22410  1.0000
  C   C13       1.0  0.42701  0.83636  0.71944  1.0000
  C   C14       1.0  0.57301  0.16365  0.28053  1.0000
  C   C15       1.0  0.15144  0.63361  0.56364  1.0000
  C   C16       1.0  0.84855  0.36639  0.43634  1.0000
  C   C17       1.0  0.08122  0.55062  0.47934  1.0000
  C   C18       1.0  0.91881  0.44937  0.52063  1.0000
  C   C19       1.0  0.61761  0.17038  0.64141  1.0000
  C   C20       1.0  0.38237  0.82964  0.35860  1.0000
  C   C21       1.0  0.65580  0.25949  0.72552  1.0000
  C   C22       1.0  0.34418  0.74051  0.27451  1.0000
  C   C23       1.0  0.88146  0.23564  0.77385  1.0000
  C   C24       1.0  0.11852  0.76435  0.22617  1.0000
  C   C25       1.0  0.90464  0.31326  0.85682  1.0000
  C   C26       1.0  0.09535  0.68673  0.14320  1.0000
  C   C27       1.0  0.70727  0.41875  0.88991  1.0000
  C   C28       1.0  0.29273  0.58123  0.11013  1.0000
  C   C29       1.0  0.48542  0.44638  0.83953  1.0000
  C   C30       1.0  0.51455  0.55361  0.16052  1.0000
  C   C31       1.0  0.45919  0.36614  0.75863  1.0000
  C   C32       1.0  0.54079  0.63385  0.24140  1.0000
  N   N1        1.0  0.92632  0.71866  0.61367  1.0000
  N   N2        1.0  0.07369  0.28133  0.38631  1.0000
  O   O1        1.0  0.80640  0.07949  0.60849  1.0000
  O   O2        1.0  0.19359  0.92054  0.39152  1.0000
  O   O3        1.0  0.39666  0.19157  0.61056  1.0000
  O   O4        1.0  0.60334  0.80846  0.38945  1.0000
  F   F1        1.0  0.83178  0.71222  0.92357  1.0000
  F   F2        1.0  0.16820  0.28778  0.07642  1.0000
