data_image0
_chemical_formula_structural       Li2B2H20C16O20
_chemical_formula_sum              "Li2 B2 H20 C16 O20"
_cell_length_a       8.72171
_cell_length_b       8.84131
_cell_length_c       9.30725
_cell_angle_alpha    114.26
_cell_angle_beta     94.4604
_cell_angle_gamma    106.874

_space_group_name_H-M_alt    "P 1"
_space_group_IT_number       1

loop_
  _space_group_symop_operation_xyz
  'x, y, z'

loop_
  _atom_site_type_symbol
  _atom_site_label
  _atom_site_symmetry_multiplicity
  _atom_site_fract_x
  _atom_site_fract_y
  _atom_site_fract_z
  _atom_site_occupancy
  Li  Li1       1.0  0.99516  0.46276  0.66049  1.0000
  Li  Li2       1.0  0.00484  0.53724  0.33951  1.0000
  B   B1        1.0  0.40260  0.22397  0.35660  1.0000
  B   B2        1.0  0.59740  0.77603  0.64339  1.0000
  H   H1        1.0  0.12686  0.89095  0.97239  1.0000
  H   H2        1.0  0.87314  0.10905  0.02761  1.0000
  H   H3        1.0  0.15590  0.88882  0.78220  1.0000
  H   H4        1.0  0.84410  0.11118  0.21780  1.0000
  H   H5        1.0  0.32989  0.96434  0.94258  1.0000
  H   H6        1.0  0.67011  0.03566  0.05742  1.0000
  H   H7        1.0  0.19919  0.67693  0.03450  1.0000
  H   H8        1.0  0.80081  0.32307  0.96550  1.0000
  H   H9        1.0  0.39881  0.74115  0.99353  1.0000
  H   H10       1.0  0.60119  0.25885  0.00647  1.0000
  H   H11       1.0  0.33261  0.43821  0.76862  1.0000
  H   H12       1.0  0.66739  0.56179  0.23138  1.0000
  H   H13       1.0  0.29981  0.42898  0.95358  1.0000
  H   H14       1.0  0.70019  0.57102  0.04642  1.0000
  H   H15       1.0  0.07636  0.14680  0.83539  1.0000
  H   H16       1.0  0.92364  0.85320  0.16461  1.0000
  H   H17       1.0  0.13373  0.12499  0.64859  1.0000
  H   H18       1.0  0.86627  0.87500  0.35141  1.0000
  H   H19       1.0  0.92517  0.10246  0.66626  1.0000
  H   H20       1.0  0.07483  0.89754  0.33374  1.0000
  C   C1        1.0  0.64385  0.21198  0.46011  1.0000
  C   C2        1.0  0.35615  0.78802  0.53989  1.0000
  C   C3        1.0  0.52403  0.02206  0.34487  1.0000
  C   C4        1.0  0.47597  0.97794  0.65514  1.0000
  C   C5        1.0  0.24969  0.34138  0.25024  1.0000
  C   C6        1.0  0.75030  0.65862  0.74975  1.0000
  C   C7        1.0  0.19245  0.33133  0.39893  1.0000
  C   C8        1.0  0.80756  0.66866  0.60107  1.0000
  C   C9        1.0  0.20373  0.86840  0.88246  1.0000
  C   C10       1.0  0.79627  0.13160  0.11753  1.0000
  C   C11       1.0  0.26926  0.65342  0.93881  1.0000
  C   C12       1.0  0.73074  0.34658  0.06119  1.0000
  C   C13       1.0  0.25771  0.46291  0.86004  1.0000
  C   C14       1.0  0.74229  0.53708  0.13996  1.0000
  C   C15       1.0  0.05457  0.17170  0.73011  1.0000
  C   C16       1.0  0.94543  0.82830  0.26989  1.0000
  O   O1        1.0  0.57026  0.32531  0.46180  1.0000
  O   O2        1.0  0.42974  0.67469  0.53820  1.0000
  O   O3        1.0  0.78138  0.25035  0.53506  1.0000
  O   O4        1.0  0.21862  0.74965  0.46494  1.0000
  O   O5        1.0  0.38680  0.03610  0.28521  1.0000
  O   O6        1.0  0.61320  0.96390  0.71479  1.0000
  O   O7        1.0  0.54950  0.88539  0.31433  1.0000
  O   O8        1.0  0.45050  0.11461  0.68567  1.0000
  O   O9        1.0  0.37340  0.28004  0.22993  1.0000
  O   O10       1.0  0.62660  0.71997  0.77007  1.0000
  O   O11       1.0  0.18883  0.39460  0.16726  1.0000
  O   O12       1.0  0.81117  0.60540  0.83275  1.0000
  O   O13       1.0  0.27718  0.25781  0.45478  1.0000
  O   O14       1.0  0.72282  0.74219  0.54522  1.0000
  O   O15       1.0  0.08408  0.38383  0.45283  1.0000
  O   O16       1.0  0.91592  0.61617  0.54717  1.0000
  O   O17       1.0  0.20143  0.69060  0.81603  1.0000
  O   O18       1.0  0.79857  0.30940  0.18397  1.0000
  O   O19       1.0  0.08734  0.35686  0.78370  1.0000
  O   O20       1.0  0.91266  0.64314  0.21630  1.0000
