data_image0
_chemical_formula_structural       Ag4H28C32O8
_chemical_formula_sum              "Ag4 H28 C32 O8"
_cell_length_a       5.60602
_cell_length_b       6.99668
_cell_length_c       18.2116
_cell_angle_alpha    88.4103
_cell_angle_beta     95.4368
_cell_angle_gamma    89.85

_space_group_name_H-M_alt    "P 1"
_space_group_IT_number       1

loop_
  _space_group_symop_operation_xyz
  'x, y, z'

loop_
  _atom_site_type_symbol
  _atom_site_label
  _atom_site_symmetry_multiplicity
  _atom_site_fract_x
  _atom_site_fract_y
  _atom_site_fract_z
  _atom_site_occupancy
  Ag  Ag1       1.0  0.80706  0.06937  0.03365  1.0000
  Ag  Ag2       1.0  0.19296  0.93071  0.96635  1.0000
  Ag  Ag3       1.0  0.69289  0.57372  0.96641  1.0000
  Ag  Ag4       1.0  0.30708  0.42628  0.03359  1.0000
  H   H1        1.0  0.26190  0.14321  0.83377  1.0000
  H   H2        1.0  0.73813  0.85682  0.16623  1.0000
  H   H3        1.0  0.05093  0.18023  0.70901  1.0000
  H   H4        1.0  0.94907  0.81978  0.29099  1.0000
  H   H5        1.0  0.63861  0.90437  0.61776  1.0000
  H   H6        1.0  0.36136  0.09562  0.38224  1.0000
  H   H7        1.0  0.85009  0.86781  0.74364  1.0000
  H   H8        1.0  0.14991  0.13220  0.25636  1.0000
  H   H9        1.0  0.19432  0.22762  0.56175  1.0000
  H   H10       1.0  0.80565  0.77234  0.43824  1.0000
  H   H11       1.0  0.28806  0.99720  0.53681  1.0000
  H   H12       1.0  0.71190  0.00276  0.46320  1.0000
  H   H13       1.0  0.01393  0.02720  0.57754  1.0000
  H   H14       1.0  0.98603  0.97278  0.42247  1.0000
  H   H15       1.0  0.23624  0.61577  0.16635  1.0000
  H   H16       1.0  0.76374  0.38426  0.83365  1.0000
  H   H17       1.0  0.44820  0.63280  0.29101  1.0000
  H   H18       1.0  0.55180  0.36721  0.70898  1.0000
  H   H19       1.0  0.86311  0.34212  0.38211  1.0000
  H   H20       1.0  0.13690  0.65786  0.61790  1.0000
  H   H21       1.0  0.65084  0.32502  0.25630  1.0000
  H   H22       1.0  0.34914  0.67498  0.74370  1.0000
  H   H23       1.0  0.30424  0.65789  0.43849  1.0000
  H   H24       1.0  0.69580  0.34205  0.56152  1.0000
  H   H25       1.0  0.48574  0.45978  0.42256  1.0000
  H   H26       1.0  0.51429  0.54016  0.57743  1.0000
  H   H27       1.0  0.21155  0.42366  0.46293  1.0000
  H   H28       1.0  0.78850  0.57627  0.53707  1.0000
  C   C1        1.0  0.57135  0.00419  0.79678  1.0000
  C   C2        1.0  0.42865  0.99583  0.20321  1.0000
  C   C3        1.0  0.34467  0.09083  0.78646  1.0000
  C   C4        1.0  0.65535  0.90918  0.21354  1.0000
  C   C5        1.0  0.22637  0.11159  0.71606  1.0000
  C   C6        1.0  0.77364  0.88843  0.28394  1.0000
  C   C7        1.0  0.33023  0.04702  0.65413  1.0000
  C   C8        1.0  0.66977  0.95296  0.34586  1.0000
  C   C9        1.0  0.55580  0.95854  0.66500  1.0000
  C   C10       1.0  0.44419  0.04145  0.33499  1.0000
  C   C11       1.0  0.67525  0.93674  0.73540  1.0000
  C   C12       1.0  0.32475  0.06328  0.26459  1.0000
  C   C13       1.0  0.70623  0.98996  0.87145  1.0000
  C   C14       1.0  0.29377  0.01008  0.12855  1.0000
  C   C15       1.0  0.20076  0.07513  0.57853  1.0000
  C   C16       1.0  0.79920  0.92484  0.42147  1.0000
  C   C17       1.0  0.92805  0.47070  0.20327  1.0000
  C   C18       1.0  0.07194  0.52931  0.79674  1.0000
  C   C19       1.0  0.15425  0.55578  0.21361  1.0000
  C   C20       1.0  0.84574  0.44424  0.78640  1.0000
  C   C21       1.0  0.27310  0.56534  0.28393  1.0000
  C   C22       1.0  0.72690  0.43468  0.71608  1.0000
  C   C23       1.0  0.16977  0.49127  0.34580  1.0000
  C   C24       1.0  0.83023  0.50871  0.65420  1.0000
  C   C25       1.0  0.94501  0.40396  0.33489  1.0000
  C   C26       1.0  0.05501  0.59604  0.66512  1.0000
  C   C27       1.0  0.82515  0.39305  0.26454  1.0000
  C   C28       1.0  0.17483  0.60696  0.73547  1.0000
  C   C29       1.0  0.79301  0.46853  0.12865  1.0000
  C   C30       1.0  0.20699  0.53150  0.87135  1.0000
  C   C31       1.0  0.29864  0.50809  0.42143  1.0000
  C   C32       1.0  0.70140  0.49186  0.57857  1.0000
  O   O1        1.0  0.60301  0.05473  0.92588  1.0000
  O   O2        1.0  0.39703  0.94532  0.07412  1.0000
  O   O3        1.0  0.91618  0.91763  0.87543  1.0000
  O   O4        1.0  0.08385  0.08242  0.12456  1.0000
  O   O5        1.0  0.89595  0.54142  0.07427  1.0000
  O   O6        1.0  0.10402  0.45859  0.92573  1.0000
  O   O7        1.0  0.58330  0.39719  0.12460  1.0000
  O   O8        1.0  0.41671  0.60281  0.87542  1.0000
