data_image0
_chemical_formula_structural       Rb4H20C28S4N16
_chemical_formula_sum              "Rb4 H20 C28 S4 N16"
_cell_length_a       6.52931
_cell_length_b       7.14015
_cell_length_c       21.1137
_cell_angle_alpha    90.0001
_cell_angle_beta     89.9993
_cell_angle_gamma    111.215

_space_group_name_H-M_alt    "P 1"
_space_group_IT_number       1

loop_
  _space_group_symop_operation_xyz
  'x, y, z'

loop_
  _atom_site_type_symbol
  _atom_site_label
  _atom_site_symmetry_multiplicity
  _atom_site_fract_x
  _atom_site_fract_y
  _atom_site_fract_z
  _atom_site_occupancy
  Rb  Rb1       1.0  0.78511  0.60242  0.55100  1.0000
  Rb  Rb2       1.0  0.21489  0.89759  0.05100  1.0000
  Rb  Rb3       1.0  0.21489  0.39763  0.44900  1.0000
  Rb  Rb4       1.0  0.78511  0.10238  0.94899  1.0000
  H   H1        1.0  0.37349  0.92319  0.72727  1.0000
  H   H2        1.0  0.62657  0.57680  0.22728  1.0000
  H   H3        1.0  0.62652  0.07681  0.27273  1.0000
  H   H4        1.0  0.37339  0.42322  0.77272  1.0000
  H   H5        1.0  0.63207  0.95643  0.81611  1.0000
  H   H6        1.0  0.36798  0.54358  0.31612  1.0000
  H   H7        1.0  0.36793  0.04355  0.18389  1.0000
  H   H8        1.0  0.63197  0.45645  0.68387  1.0000
  H   H9        1.0  0.03846  0.08875  0.79625  1.0000
  H   H10       1.0  0.96160  0.41128  0.29627  1.0000
  H   H11       1.0  0.96154  0.91125  0.20375  1.0000
  H   H12       1.0  0.03836  0.58871  0.70372  1.0000
  H   H13       1.0  0.17904  0.18874  0.68665  1.0000
  H   H14       1.0  0.82102  0.31132  0.18666  1.0000
  H   H15       1.0  0.82098  0.81129  0.31336  1.0000
  H   H16       1.0  0.17896  0.68865  0.81333  1.0000
  H   H17       1.0  0.91609  0.14876  0.59727  1.0000
  H   H18       1.0  0.08397  0.35128  0.09728  1.0000
  H   H19       1.0  0.08394  0.85129  0.40274  1.0000
  H   H20       1.0  0.91601  0.64864  0.90271  1.0000
  C   C1        1.0  0.33069  0.84690  0.58002  1.0000
  C   C2        1.0  0.66935  0.65312  0.08003  1.0000
  C   C3        1.0  0.66933  0.15314  0.41998  1.0000
  C   C4        1.0  0.33069  0.34685  0.91998  1.0000
  C   C5        1.0  0.63162  0.03166  0.65785  1.0000
  C   C6        1.0  0.36845  0.46833  0.15786  1.0000
  C   C7        1.0  0.36841  0.96837  0.34216  1.0000
  C   C8        1.0  0.63153  0.53165  0.84213  1.0000
  C   C9        1.0  0.55005  0.97779  0.71896  1.0000
  C   C10       1.0  0.44999  0.52222  0.21897  1.0000
  C   C11       1.0  0.44996  0.02221  0.28105  1.0000
  C   C12       1.0  0.54998  0.47778  0.78103  1.0000
  C   C13       1.0  0.69733  0.99865  0.76855  1.0000
  C   C14       1.0  0.30271  0.50135  0.26856  1.0000
  C   C15       1.0  0.30268  0.00136  0.23146  1.0000
  C   C16       1.0  0.69725  0.49866  0.73143  1.0000
  C   C17       1.0  0.92358  0.07315  0.75717  1.0000
  C   C18       1.0  0.07648  0.42688  0.25719  1.0000
  C   C19       1.0  0.07643  0.92684  0.24283  1.0000
  C   C20       1.0  0.92348  0.57310  0.74280  1.0000
  C   C21       1.0  0.00271  0.12779  0.69576  1.0000
  C   C22       1.0  0.99735  0.37224  0.19578  1.0000
  C   C23       1.0  0.99731  0.87223  0.30425  1.0000
  C   C24       1.0  0.00264  0.62774  0.80421  1.0000
  C   C25       1.0  0.85711  0.10672  0.64546  1.0000
  C   C26       1.0  0.14294  0.39331  0.14547  1.0000
  C   C27       1.0  0.14291  0.89331  0.35454  1.0000
  C   C28       1.0  0.85705  0.60664  0.85452  1.0000
  S   S1        1.0  0.28536  0.60359  0.59881  1.0000
  S   S2        1.0  0.71466  0.89642  0.09882  1.0000
  S   S3        1.0  0.71466  0.39645  0.40119  1.0000
  S   S4        1.0  0.28537  0.10356  0.90119  1.0000
  N   N1        1.0  0.48083  0.01521  0.60749  1.0000
  N   N2        1.0  0.51921  0.48478  0.10751  1.0000
  N   N3        1.0  0.51919  0.98481  0.39251  1.0000
  N   N4        1.0  0.48079  0.51518  0.89249  1.0000
  N   N5        1.0  0.46800  0.18224  0.57943  1.0000
  N   N6        1.0  0.53203  0.31777  0.07943  1.0000
  N   N7        1.0  0.53202  0.81779  0.42058  1.0000
  N   N8        1.0  0.46797  0.68220  0.92056  1.0000
  N   N9        1.0  0.31532  0.11813  0.53664  1.0000
  N   N10       1.0  0.68469  0.38189  0.03663  1.0000
  N   N11       1.0  0.68469  0.88191  0.46337  1.0000
  N   N12       1.0  0.31532  0.61809  0.96337  1.0000
  N   N13       1.0  0.22712  0.91589  0.53506  1.0000
  N   N14       1.0  0.77287  0.58413  0.03506  1.0000
  N   N15       1.0  0.77288  0.08415  0.46494  1.0000
  N   N16       1.0  0.22714  0.41584  0.96494  1.0000
