data_image0
_chemical_formula_structural       Ag8H48W4C32S24N16
_chemical_formula_sum              "Ag8 H48 W4 C32 S24 N16"
_cell_length_a       7.84297
_cell_length_b       13.0363
_cell_length_c       17.1285
_cell_angle_alpha    90.0002
_cell_angle_beta     93.8998
_cell_angle_gamma    90.0001

_space_group_name_H-M_alt    "P 1"
_space_group_IT_number       1

loop_
  _space_group_symop_operation_xyz
  'x, y, z'

loop_
  _atom_site_type_symbol
  _atom_site_label
  _atom_site_symmetry_multiplicity
  _atom_site_fract_x
  _atom_site_fract_y
  _atom_site_fract_z
  _atom_site_occupancy
  Ag  Ag1       1.0  0.20445  0.64624  0.23468  1.0000
  Ag  Ag2       1.0  0.29555  0.14624  0.76532  1.0000
  Ag  Ag3       1.0  0.79555  0.35377  0.76532  1.0000
  Ag  Ag4       1.0  0.70445  0.85376  0.23468  1.0000
  Ag  Ag5       1.0  0.43611  0.24959  0.27821  1.0000
  Ag  Ag6       1.0  0.06389  0.74958  0.72179  1.0000
  Ag  Ag7       1.0  0.56389  0.75041  0.72179  1.0000
  Ag  Ag8       1.0  0.93611  0.25041  0.27821  1.0000
  H   H1        1.0  0.78531  0.50686  0.29075  1.0000
  H   H2        1.0  0.71468  0.00686  0.70926  1.0000
  H   H3        1.0  0.21469  0.49314  0.70925  1.0000
  H   H4        1.0  0.28532  0.99314  0.29075  1.0000
  H   H5        1.0  0.85931  0.43885  0.42745  1.0000
  H   H6        1.0  0.64068  0.93886  0.57256  1.0000
  H   H7        1.0  0.14068  0.56115  0.57254  1.0000
  H   H8        1.0  0.35932  0.06114  0.42745  1.0000
  H   H9        1.0  0.68725  0.56636  0.52653  1.0000
  H   H10       1.0  0.81273  0.06636  0.47348  1.0000
  H   H11       1.0  0.31275  0.43364  0.47347  1.0000
  H   H12       1.0  0.18726  0.93364  0.52653  1.0000
  H   H13       1.0  0.57454  0.77142  0.48335  1.0000
  H   H14       1.0  0.92546  0.27141  0.51665  1.0000
  H   H15       1.0  0.42547  0.22858  0.51665  1.0000
  H   H16       1.0  0.07454  0.72858  0.48335  1.0000
  H   H17       1.0  0.39634  0.68594  0.47765  1.0000
  H   H18       1.0  0.10365  0.18593  0.52235  1.0000
  H   H19       1.0  0.60366  0.31407  0.52235  1.0000
  H   H20       1.0  0.89635  0.81407  0.47765  1.0000
  H   H21       1.0  0.44206  0.76189  0.39410  1.0000
  H   H22       1.0  0.05794  0.26188  0.60590  1.0000
  H   H23       1.0  0.55794  0.23811  0.60590  1.0000
  H   H24       1.0  0.94206  0.73811  0.39410  1.0000
  H   H25       1.0  0.14919  0.85514  0.14619  1.0000
  H   H26       1.0  0.35081  0.35514  0.85381  1.0000
  H   H27       1.0  0.85081  0.14486  0.85380  1.0000
  H   H28       1.0  0.64919  0.64486  0.14619  1.0000
  H   H29       1.0  0.21296  0.01249  0.06268  1.0000
  H   H30       1.0  0.28704  0.51249  0.93733  1.0000
  H   H31       1.0  0.78704  0.98751  0.93732  1.0000
  H   H32       1.0  0.71296  0.48751  0.06267  1.0000
  H   H33       1.0  0.36632  0.93366  0.93375  1.0000
  H   H34       1.0  0.13368  0.43366  0.06626  1.0000
  H   H35       1.0  0.63368  0.06634  0.06625  1.0000
  H   H36       1.0  0.86632  0.56633  0.93374  1.0000
  H   H37       1.0  0.45569  0.65626  0.96923  1.0000
  H   H38       1.0  0.04431  0.15626  0.03077  1.0000
  H   H39       1.0  0.54431  0.34374  0.03077  1.0000
  H   H40       1.0  0.95569  0.84373  0.96923  1.0000
  H   H41       1.0  0.48344  0.76130  0.90359  1.0000
  H   H42       1.0  0.01656  0.26130  0.09641  1.0000
  H   H43       1.0  0.51656  0.23870  0.09641  1.0000
  H   H44       1.0  0.98345  0.73869  0.90359  1.0000
  H   H45       1.0  0.29005  0.68972  0.89647  1.0000
  H   H46       1.0  0.20995  0.18971  0.10353  1.0000
  H   H47       1.0  0.70995  0.31029  0.10353  1.0000
  H   H48       1.0  0.79006  0.81028  0.89647  1.0000
  W   W1        1.0  0.18741  0.41509  0.28155  1.0000
  W   W2        1.0  0.31259  0.91509  0.71844  1.0000
  W   W3        1.0  0.81260  0.58491  0.71844  1.0000
  W   W4        1.0  0.68741  0.08491  0.28156  1.0000
  C   C1        1.0  0.63287  0.62130  0.33954  1.0000
  C   C2        1.0  0.86712  0.12130  0.66047  1.0000
  C   C3        1.0  0.36713  0.37870  0.66046  1.0000
  C   C4        1.0  0.13288  0.87870  0.33953  1.0000
  C   C5        1.0  0.77546  0.50358  0.41513  1.0000
  C   C6        1.0  0.72452  0.00358  0.58488  1.0000
  C   C7        1.0  0.22454  0.49642  0.58487  1.0000
  C   C8        1.0  0.27548  0.99641  0.41512  1.0000
  C   C9        1.0  0.69133  0.56628  0.46341  1.0000
  C   C10       1.0  0.80865  0.06628  0.53659  1.0000
  C   C11       1.0  0.30866  0.43372  0.53659  1.0000
  C   C12       1.0  0.19134  0.93372  0.46341  1.0000
  C   C13       1.0  0.49775  0.71952  0.44478  1.0000
  C   C14       1.0  0.00224  0.21951  0.55522  1.0000
  C   C15       1.0  0.50225  0.28048  0.55522  1.0000
  C   C16       1.0  0.99776  0.78048  0.44478  1.0000
  C   C17       1.0  0.25359  0.76257  0.06066  1.0000
  C   C18       1.0  0.24641  0.26257  0.93934  1.0000
  C   C19       1.0  0.74641  0.23743  0.93934  1.0000
  C   C20       1.0  0.75360  0.73743  0.06066  1.0000
  C   C21       1.0  0.24158  0.93451  0.04699  1.0000
  C   C22       1.0  0.25843  0.43452  0.95301  1.0000
  C   C23       1.0  0.75843  0.06549  0.95301  1.0000
  C   C24       1.0  0.74157  0.56548  0.04699  1.0000
  C   C25       1.0  0.31603  0.89614  0.98363  1.0000
  C   C26       1.0  0.18396  0.39614  0.01637  1.0000
  C   C27       1.0  0.68397  0.10386  0.01637  1.0000
  C   C28       1.0  0.81604  0.60386  0.98363  1.0000
  C   C29       1.0  0.39189  0.72001  0.93742  1.0000
  C   C30       1.0  0.10811  0.22001  0.06258  1.0000
  C   C31       1.0  0.60811  0.27999  0.06258  1.0000
  C   C32       1.0  0.89189  0.77999  0.93742  1.0000
  S   S1        1.0  0.54754  0.68584  0.25999  1.0000
  S   S2        1.0  0.95246  0.18584  0.74001  1.0000
  S   S3        1.0  0.45245  0.31417  0.74001  1.0000
  S   S4        1.0  0.04755  0.81416  0.25999  1.0000
  S   S5        1.0  0.23025  0.63984  0.09168  1.0000
  S   S6        1.0  0.26976  0.13985  0.90832  1.0000
  S   S7        1.0  0.76975  0.36016  0.90832  1.0000
  S   S8        1.0  0.73025  0.86015  0.09168  1.0000
  S   S9        1.0  0.19062  0.55054  0.35818  1.0000
  S   S10       1.0  0.30938  0.05054  0.64182  1.0000
  S   S11       1.0  0.80938  0.44946  0.64182  1.0000
  S   S12       1.0  0.69062  0.94946  0.35818  1.0000
  S   S13       1.0  0.40590  0.41721  0.20651  1.0000
  S   S14       1.0  0.09411  0.91721  0.79349  1.0000
  S   S15       1.0  0.59411  0.58280  0.79349  1.0000
  S   S16       1.0  0.90590  0.08279  0.20651  1.0000
  S   S17       1.0  0.19888  0.28178  0.36809  1.0000
  S   S18       1.0  0.30112  0.78178  0.63190  1.0000
  S   S19       1.0  0.80113  0.71822  0.63190  1.0000
  S   S20       1.0  0.69888  0.21822  0.36810  1.0000
  S   S21       1.0  0.94542  0.41748  0.20417  1.0000
  S   S22       1.0  0.55458  0.91748  0.79583  1.0000
  S   S23       1.0  0.05458  0.58252  0.79583  1.0000
  S   S24       1.0  0.44542  0.08252  0.20417  1.0000
  N   N1        1.0  0.73784  0.53835  0.33991  1.0000
  N   N2        1.0  0.76214  0.03835  0.66010  1.0000
  N   N3        1.0  0.26215  0.46166  0.66009  1.0000
  N   N4        1.0  0.23786  0.96165  0.33991  1.0000
  N   N5        1.0  0.60476  0.63869  0.41647  1.0000
  N   N6        1.0  0.89524  0.13868  0.58354  1.0000
  N   N7        1.0  0.39524  0.36131  0.58353  1.0000
  N   N8        1.0  0.10476  0.86131  0.41646  1.0000
  N   N9        1.0  0.20486  0.85188  0.09342  1.0000
  N   N10       1.0  0.29514  0.35188  0.90658  1.0000
  N   N11       1.0  0.79514  0.14812  0.90658  1.0000
  N   N12       1.0  0.70486  0.64812  0.09342  1.0000
  N   N13       1.0  0.32312  0.79051  0.99257  1.0000
  N   N14       1.0  0.17688  0.29051  0.00743  1.0000
  N   N15       1.0  0.67689  0.20949  0.00743  1.0000
  N   N16       1.0  0.82312  0.70948  0.99257  1.0000
