data_image0
_chemical_formula_structural       Ag4H12C8S2I4N4
_chemical_formula_sum              "Ag4 H12 C8 S2 I4 N4"
_cell_length_a       7.54391
_cell_length_b       7.89791
_cell_length_c       10.3185
_cell_angle_alpha    75.9757
_cell_angle_beta     70.6062
_cell_angle_gamma    69.6325

_space_group_name_H-M_alt    "P 1"
_space_group_IT_number       1

loop_
  _space_group_symop_operation_xyz
  'x, y, z'

loop_
  _atom_site_type_symbol
  _atom_site_label
  _atom_site_symmetry_multiplicity
  _atom_site_fract_x
  _atom_site_fract_y
  _atom_site_fract_z
  _atom_site_occupancy
  Ag  Ag1       1.0  0.57103  0.84305  0.91954  1.0000
  Ag  Ag2       1.0  0.42898  0.15696  0.08046  1.0000
  Ag  Ag3       1.0  0.79465  0.52391  0.07062  1.0000
  Ag  Ag4       1.0  0.20538  0.47609  0.92937  1.0000
  H   H1        1.0  0.96244  0.13387  0.86289  1.0000
  H   H2        1.0  0.03756  0.86615  0.13711  1.0000
  H   H3        1.0  0.95617  0.27671  0.61109  1.0000
  H   H4        1.0  0.04383  0.72331  0.38891  1.0000
  H   H5        1.0  0.25122  0.02552  0.44857  1.0000
  H   H6        1.0  0.74878  0.97447  0.55143  1.0000
  H   H7        1.0  0.38008  0.60887  0.61893  1.0000
  H   H8        1.0  0.61990  0.39113  0.38107  1.0000
  H   H9        1.0  0.54007  0.67453  0.67891  1.0000
  H   H10       1.0  0.45991  0.32546  0.32109  1.0000
  H   H11       1.0  0.52857  0.74764  0.50251  1.0000
  H   H12       1.0  0.47140  0.25235  0.49750  1.0000
  C   C1        1.0  0.19666  0.91502  0.78313  1.0000
  C   C2        1.0  0.80334  0.08498  0.21687  1.0000
  C   C3        1.0  0.05696  0.14731  0.63948  1.0000
  C   C4        1.0  0.94305  0.85269  0.36052  1.0000
  C   C5        1.0  0.20258  0.02474  0.55993  1.0000
  C   C6        1.0  0.79742  0.97524  0.44007  1.0000
  C   C7        1.0  0.44404  0.71822  0.60985  1.0000
  C   C8        1.0  0.55595  0.28176  0.39016  1.0000
  S   S1        1.0  0.25150  0.78095  0.93001  1.0000
  S   S2        1.0  0.74851  0.21906  0.06999  1.0000
  I   I1        1.0  0.49065  0.78995  0.22087  1.0000
  I   I2        1.0  0.50938  0.21005  0.77912  1.0000
  I   I3        1.0  0.91761  0.61202  0.76575  1.0000
  I   I4        1.0  0.08239  0.38798  0.23425  1.0000
  N   N1        1.0  0.05615  0.07718  0.77568  1.0000
  N   N2        1.0  0.94386  0.92283  0.22433  1.0000
  N   N3        1.0  0.28859  0.88261  0.64955  1.0000
  N   N4        1.0  0.71141  0.11738  0.35045  1.0000
