data_image0
_chemical_formula_structural       Co4H28C40N8Cl4O8
_chemical_formula_sum              "Co4 H28 C40 N8 Cl4 O8"
_cell_length_a       8.57012
_cell_length_b       8.3577
_cell_length_c       15.0097
_cell_angle_alpha    90.0002
_cell_angle_beta     89.9997
_cell_angle_gamma    109.743

_space_group_name_H-M_alt    "P 1"
_space_group_IT_number       1

loop_
  _space_group_symop_operation_xyz
  'x, y, z'

loop_
  _atom_site_type_symbol
  _atom_site_label
  _atom_site_symmetry_multiplicity
  _atom_site_fract_x
  _atom_site_fract_y
  _atom_site_fract_z
  _atom_site_occupancy
  Co  Co1       1.0  0.52134  0.42501  0.40270  1.0000
  Co  Co2       1.0  0.47865  0.07499  0.90270  1.0000
  Co  Co3       1.0  0.47866  0.57499  0.59730  1.0000
  Co  Co4       1.0  0.52135  0.92502  0.09730  1.0000
  H   H1        1.0  0.92696  0.30485  0.47270  1.0000
  H   H2        1.0  0.07305  0.19515  0.97271  1.0000
  H   H3        1.0  0.07305  0.69516  0.52730  1.0000
  H   H4        1.0  0.92695  0.80485  0.02729  1.0000
  H   H5        1.0  0.13530  0.18776  0.52868  1.0000
  H   H6        1.0  0.86470  0.31223  0.02868  1.0000
  H   H7        1.0  0.86471  0.81224  0.47132  1.0000
  H   H8        1.0  0.13529  0.68777  0.97132  1.0000
  H   H9        1.0  0.93163  0.17018  0.79459  1.0000
  H   H10       1.0  0.06837  0.32983  0.29460  1.0000
  H   H11       1.0  0.06837  0.82981  0.20540  1.0000
  H   H12       1.0  0.93163  0.67017  0.70540  1.0000
  H   H13       1.0  0.73072  0.29482  0.73760  1.0000
  H   H14       1.0  0.26929  0.20519  0.23760  1.0000
  H   H15       1.0  0.26928  0.70518  0.26240  1.0000
  H   H16       1.0  0.73072  0.79481  0.76239  1.0000
  H   H17       1.0  0.16312  0.15015  0.83974  1.0000
  H   H18       1.0  0.83688  0.34985  0.33974  1.0000
  H   H19       1.0  0.83688  0.84986  0.16026  1.0000
  H   H20       1.0  0.16312  0.65014  0.66026  1.0000
  H   H21       1.0  0.26861  0.03866  0.57462  1.0000
  H   H22       1.0  0.73139  0.46133  0.07462  1.0000
  H   H23       1.0  0.73139  0.96133  0.42538  1.0000
  H   H24       1.0  0.26861  0.53867  0.92538  1.0000
  H   H25       1.0  0.48639  0.96871  0.69091  1.0000
  H   H26       1.0  0.51361  0.53129  0.19092  1.0000
  H   H27       1.0  0.51361  0.03129  0.30909  1.0000
  H   H28       1.0  0.48639  0.46871  0.80909  1.0000
  C   C1        1.0  0.81412  0.30728  0.60070  1.0000
  C   C2        1.0  0.18588  0.19273  0.10071  1.0000
  C   C3        1.0  0.18589  0.69273  0.39930  1.0000
  C   C4        1.0  0.81411  0.80727  0.89929  1.0000
  C   C5        1.0  0.92828  0.27418  0.54307  1.0000
  C   C6        1.0  0.07172  0.22582  0.04307  1.0000
  C   C7        1.0  0.07172  0.72583  0.45693  1.0000
  C   C8        1.0  0.92828  0.77418  0.95693  1.0000
  C   C9        1.0  0.04491  0.20692  0.57473  1.0000
  C   C10       1.0  0.95509  0.29308  0.07474  1.0000
  C   C11       1.0  0.95509  0.79308  0.42526  1.0000
  C   C12       1.0  0.04490  0.70692  0.92526  1.0000
  C   C13       1.0  0.04791  0.17026  0.66552  1.0000
  C   C14       1.0  0.95209  0.32974  0.16552  1.0000
  C   C15       1.0  0.95210  0.82974  0.33448  1.0000
  C   C16       1.0  0.04790  0.67025  0.83448  1.0000
  C   C17       1.0  0.93320  0.20035  0.72397  1.0000
  C   C18       1.0  0.06680  0.29966  0.22397  1.0000
  C   C19       1.0  0.06681  0.79965  0.27603  1.0000
  C   C20       1.0  0.93319  0.70035  0.77603  1.0000
  C   C21       1.0  0.81793  0.26952  0.69162  1.0000
  C   C22       1.0  0.18208  0.23048  0.19162  1.0000
  C   C23       1.0  0.18208  0.73047  0.30838  1.0000
  C   C24       1.0  0.81793  0.76952  0.80838  1.0000
  C   C25       1.0  0.69281  0.38206  0.56518  1.0000
  C   C26       1.0  0.30720  0.11795  0.06518  1.0000
  C   C27       1.0  0.30720  0.61794  0.43482  1.0000
  C   C28       1.0  0.69280  0.88206  0.93482  1.0000
  C   C29       1.0  0.21949  0.10774  0.78435  1.0000
  C   C30       1.0  0.78051  0.39226  0.28435  1.0000
  C   C31       1.0  0.78051  0.89225  0.21565  1.0000
  C   C32       1.0  0.21949  0.60774  0.71565  1.0000
  C   C33       1.0  0.27690  0.04814  0.64660  1.0000
  C   C34       1.0  0.72310  0.45185  0.14660  1.0000
  C   C35       1.0  0.72310  0.95185  0.35340  1.0000
  C   C36       1.0  0.27690  0.54815  0.85340  1.0000
  C   C37       1.0  0.38504  0.01519  0.70497  1.0000
  C   C38       1.0  0.61496  0.48481  0.20497  1.0000
  C   C39       1.0  0.61496  0.98481  0.29503  1.0000
  C   C40       1.0  0.38504  0.51519  0.79504  1.0000
  N   N1        1.0  0.34795  0.05315  0.79069  1.0000
  N   N2        1.0  0.65205  0.44685  0.29070  1.0000
  N   N3        1.0  0.65205  0.94685  0.20931  1.0000
  N   N4        1.0  0.34795  0.55315  0.70931  1.0000
  N   N5        1.0  0.17205  0.10761  0.69771  1.0000
  N   N6        1.0  0.82795  0.39239  0.19771  1.0000
  N   N7        1.0  0.82795  0.89239  0.30229  1.0000
  N   N8        1.0  0.17205  0.60760  0.80229  1.0000
  Cl  Cl1       1.0  0.32887  0.16945  0.41027  1.0000
  Cl  Cl2       1.0  0.67113  0.33055  0.91027  1.0000
  Cl  Cl3       1.0  0.67113  0.83055  0.58973  1.0000
  Cl  Cl4       1.0  0.32887  0.66945  0.08973  1.0000
  O   O1        1.0  0.69591  0.41114  0.48131  1.0000
  O   O2        1.0  0.30409  0.08886  0.98131  1.0000
  O   O3        1.0  0.30410  0.58886  0.51869  1.0000
  O   O4        1.0  0.69590  0.91115  0.01869  1.0000
  O   O5        1.0  0.59308  0.41557  0.61965  1.0000
  O   O6        1.0  0.40692  0.08443  0.11966  1.0000
  O   O7        1.0  0.40692  0.58442  0.38035  1.0000
  O   O8        1.0  0.59307  0.91557  0.88034  1.0000
