data_image0
_chemical_formula_structural       Cd2H32C44N4O12
_chemical_formula_sum              "Cd2 H32 C44 N4 O12"
_cell_length_a       8.94918
_cell_length_b       10.9869
_cell_length_c       11.9039
_cell_angle_alpha    64.5125
_cell_angle_beta     75.3421
_cell_angle_gamma    89.3319

_space_group_name_H-M_alt    "P 1"
_space_group_IT_number       1

loop_
  _space_group_symop_operation_xyz
  'x, y, z'

loop_
  _atom_site_type_symbol
  _atom_site_label
  _atom_site_symmetry_multiplicity
  _atom_site_fract_x
  _atom_site_fract_y
  _atom_site_fract_z
  _atom_site_occupancy
  Cd  Cd1       1.0  0.49622  0.30694  0.59330  1.0000
  Cd  Cd2       1.0  0.50378  0.69307  0.40670  1.0000
  H   H1        1.0  0.86225  0.62905  0.60134  1.0000
  H   H2        1.0  0.13775  0.37095  0.39866  1.0000
  H   H3        1.0  0.67383  0.67889  0.63962  1.0000
  H   H4        1.0  0.32618  0.32112  0.36038  1.0000
  H   H5        1.0  0.76793  0.49665  0.02291  1.0000
  H   H6        1.0  0.23208  0.50335  0.97709  1.0000
  H   H7        1.0  0.45440  0.55140  0.78697  1.0000
  H   H8        1.0  0.54561  0.44860  0.21303  1.0000
  H   H9        1.0  0.65350  0.04116  0.36421  1.0000
  H   H10       1.0  0.34649  0.95884  0.63580  1.0000
  H   H11       1.0  0.68158  0.20638  0.23388  1.0000
  H   H12       1.0  0.31842  0.79361  0.76612  1.0000
  H   H13       1.0  0.15188  0.19207  0.29723  1.0000
  H   H14       1.0  0.84812  0.80793  0.70277  1.0000
  H   H15       1.0  0.72061  0.93807  0.53115  1.0000
  H   H16       1.0  0.27938  0.06193  0.46886  1.0000
  H   H17       1.0  0.21782  0.49447  0.65259  1.0000
  H   H18       1.0  0.78218  0.50554  0.34741  1.0000
  H   H19       1.0  0.00011  0.48451  0.83619  1.0000
  H   H20       1.0  0.99988  0.51549  0.16381  1.0000
  H   H21       1.0  0.94491  0.27542  0.05075  1.0000
  H   H22       1.0  0.05509  0.72458  0.94925  1.0000
  H   H23       1.0  0.00425  0.04226  0.17912  1.0000
  H   H24       1.0  0.99575  0.95773  0.82088  1.0000
  H   H25       1.0  0.15782  0.84793  0.19023  1.0000
  H   H26       1.0  0.84218  0.15207  0.80977  1.0000
  H   H27       1.0  0.36652  0.75146  0.08379  1.0000
  H   H28       1.0  0.63348  0.24854  0.91621  1.0000
  H   H29       1.0  0.58530  0.78586  0.88858  1.0000
  H   H30       1.0  0.41470  0.21415  0.11141  1.0000
  H   H31       1.0  0.63652  0.01162  0.69226  1.0000
  H   H32       1.0  0.36348  0.98838  0.30774  1.0000
  C   C1        1.0  0.67592  0.47966  0.64718  1.0000
  C   C2        1.0  0.32408  0.52034  0.35282  1.0000
  C   C3        1.0  0.74406  0.59333  0.66665  1.0000
  C   C4        1.0  0.25594  0.40667  0.33335  1.0000
  C   C5        1.0  0.62792  0.52696  0.89233  1.0000
  C   C6        1.0  0.37209  0.47304  0.10767  1.0000
  C   C7        1.0  0.64990  0.49722  0.01344  1.0000
  C   C8        1.0  0.35010  0.50278  0.98656  1.0000
  C   C9        1.0  0.47626  0.52951  0.87934  1.0000
  C   C10       1.0  0.52374  0.47049  0.12066  1.0000
  C   C11       1.0  0.62610  0.20293  0.42086  1.0000
  C   C12       1.0  0.37389  0.79707  0.57914  1.0000
  C   C13       1.0  0.70585  0.14592  0.32732  1.0000
  C   C14       1.0  0.29415  0.85407  0.67268  1.0000
  C   C15       1.0  0.92953  0.07559  0.40285  1.0000
  C   C16       1.0  0.07047  0.92441  0.59715  1.0000
  C   C17       1.0  0.08666  0.10675  0.38633  1.0000
  C   C18       1.0  0.91334  0.89325  0.61368  1.0000
  C   C19       1.0  0.84227  0.96777  0.51702  1.0000
  C   C20       1.0  0.15773  0.03222  0.48298  1.0000
  C   C21       1.0  0.18910  0.40436  0.74551  1.0000
  C   C22       1.0  0.81090  0.59564  0.25449  1.0000
  C   C23       1.0  0.06806  0.39888  0.85002  1.0000
  C   C24       1.0  0.93193  0.60112  0.14998  1.0000
  C   C25       1.0  0.03662  0.28356  0.96677  1.0000
  C   C26       1.0  0.96338  0.71644  0.03323  1.0000
  C   C27       1.0  0.12432  0.17294  0.97861  1.0000
  C   C28       1.0  0.87568  0.82707  0.02139  1.0000
  C   C29       1.0  0.09525  0.04891  0.09550  1.0000
  C   C30       1.0  0.90474  0.95109  0.90450  1.0000
  C   C31       1.0  0.17920  0.94264  0.10158  1.0000
  C   C32       1.0  0.82080  0.05737  0.89842  1.0000
  C   C33       1.0  0.30071  0.95344  0.99192  1.0000
  C   C34       1.0  0.69929  0.04656  0.00808  1.0000
  C   C35       1.0  0.39159  0.84645  0.99514  1.0000
  C   C36       1.0  0.60841  0.15355  0.00486  1.0000
  C   C37       1.0  0.51219  0.86594  0.88806  1.0000
  C   C38       1.0  0.48781  0.13406  0.11194  1.0000
  C   C39       1.0  0.54087  0.99170  0.77788  1.0000
  C   C40       1.0  0.45913  0.00830  0.22212  1.0000
  C   C41       1.0  0.33579  0.07615  0.87549  1.0000
  C   C42       1.0  0.66421  0.92385  0.12452  1.0000
  C   C43       1.0  0.24415  0.18740  0.86777  1.0000
  C   C44       1.0  0.75585  0.81260  0.13223  1.0000
  N   N1        1.0  0.27466  0.30221  0.75460  1.0000
  N   N2        1.0  0.72534  0.69779  0.24540  1.0000
  N   N3        1.0  0.45427  0.09246  0.77154  1.0000
  N   N4        1.0  0.54573  0.90754  0.22846  1.0000
  O   O1        1.0  0.67623  0.35750  0.72135  1.0000
  O   O2        1.0  0.32377  0.64250  0.27865  1.0000
  O   O3        1.0  0.61859  0.51797  0.54937  1.0000
  O   O4        1.0  0.38141  0.48203  0.45062  1.0000
  O   O5        1.0  0.76085  0.55265  0.79365  1.0000
  O   O6        1.0  0.23916  0.44735  0.20635  1.0000
  O   O7        1.0  0.47873  0.18017  0.46127  1.0000
  O   O8        1.0  0.52127  0.81983  0.53873  1.0000
  O   O9        1.0  0.70726  0.27075  0.45263  1.0000
  O   O10       1.0  0.29274  0.72925  0.54737  1.0000
  O   O11       1.0  0.87068  0.15492  0.30088  1.0000
  O   O12       1.0  0.12932  0.84508  0.69913  1.0000
