data_image0
_chemical_formula_structural       Zn4H28C40N8Cl4O8
_chemical_formula_sum              "Zn4 H28 C40 N8 Cl4 O8"
_cell_length_a       8.56469
_cell_length_b       8.45101
_cell_length_c       15.1136
_cell_angle_alpha    89.9992
_cell_angle_beta     89.9999
_cell_angle_gamma    109.804

_space_group_name_H-M_alt    "P 1"
_space_group_IT_number       1

loop_
  _space_group_symop_operation_xyz
  'x, y, z'

loop_
  _atom_site_type_symbol
  _atom_site_label
  _atom_site_symmetry_multiplicity
  _atom_site_fract_x
  _atom_site_fract_y
  _atom_site_fract_z
  _atom_site_occupancy
  Zn  Zn1       1.0  0.51755  0.41363  0.39625  1.0000
  Zn  Zn2       1.0  0.48244  0.08636  0.89625  1.0000
  Zn  Zn3       1.0  0.48245  0.58636  0.60375  1.0000
  Zn  Zn4       1.0  0.51756  0.91364  0.10375  1.0000
  H   H1        1.0  0.92364  0.31154  0.47200  1.0000
  H   H2        1.0  0.07636  0.18847  0.97200  1.0000
  H   H3        1.0  0.07637  0.68848  0.52801  1.0000
  H   H4        1.0  0.92365  0.81154  0.02800  1.0000
  H   H5        1.0  0.13211  0.19387  0.52687  1.0000
  H   H6        1.0  0.86789  0.30614  0.02688  1.0000
  H   H7        1.0  0.86790  0.80616  0.47313  1.0000
  H   H8        1.0  0.13211  0.69387  0.97312  1.0000
  H   H9        1.0  0.92887  0.17432  0.79112  1.0000
  H   H10       1.0  0.07114  0.32568  0.29113  1.0000
  H   H11       1.0  0.07113  0.82566  0.20888  1.0000
  H   H12       1.0  0.92885  0.67433  0.70887  1.0000
  H   H13       1.0  0.72865  0.29983  0.73517  1.0000
  H   H14       1.0  0.27135  0.20016  0.23517  1.0000
  H   H15       1.0  0.27134  0.70014  0.26483  1.0000
  H   H16       1.0  0.72864  0.79984  0.76483  1.0000
  H   H17       1.0  0.16367  0.15831  0.83491  1.0000
  H   H18       1.0  0.83633  0.34169  0.33492  1.0000
  H   H19       1.0  0.83633  0.84169  0.16509  1.0000
  H   H20       1.0  0.16367  0.65830  0.66508  1.0000
  H   H21       1.0  0.26012  0.03933  0.57171  1.0000
  H   H22       1.0  0.73989  0.46067  0.07172  1.0000
  H   H23       1.0  0.73989  0.96067  0.42829  1.0000
  H   H24       1.0  0.26010  0.53933  0.92828  1.0000
  H   H25       1.0  0.48072  0.97178  0.68607  1.0000
  H   H26       1.0  0.51928  0.52822  0.18607  1.0000
  H   H27       1.0  0.51928  0.02822  0.31393  1.0000
  H   H28       1.0  0.48072  0.47178  0.81393  1.0000
  C   C1        1.0  0.81125  0.31229  0.59924  1.0000
  C   C2        1.0  0.18875  0.18771  0.09925  1.0000
  C   C3        1.0  0.18875  0.68771  0.40076  1.0000
  C   C4        1.0  0.81124  0.81229  0.90075  1.0000
  C   C5        1.0  0.92512  0.28000  0.54171  1.0000
  C   C6        1.0  0.07488  0.22000  0.04172  1.0000
  C   C7        1.0  0.07489  0.72001  0.45829  1.0000
  C   C8        1.0  0.92512  0.78000  0.95828  1.0000
  C   C9        1.0  0.04171  0.21272  0.57267  1.0000
  C   C10       1.0  0.95830  0.28729  0.07268  1.0000
  C   C11       1.0  0.95831  0.78729  0.42733  1.0000
  C   C12       1.0  0.04170  0.71272  0.92732  1.0000
  C   C13       1.0  0.04441  0.17536  0.66264  1.0000
  C   C14       1.0  0.95560  0.32464  0.16265  1.0000
  C   C15       1.0  0.95560  0.82464  0.33736  1.0000
  C   C16       1.0  0.04440  0.67536  0.83735  1.0000
  C   C17       1.0  0.93038  0.20510  0.72111  1.0000
  C   C18       1.0  0.06963  0.29490  0.22112  1.0000
  C   C19       1.0  0.06962  0.79489  0.27889  1.0000
  C   C20       1.0  0.93037  0.70511  0.77888  1.0000
  C   C21       1.0  0.81540  0.27436  0.68938  1.0000
  C   C22       1.0  0.18461  0.22564  0.18939  1.0000
  C   C23       1.0  0.18460  0.72563  0.31062  1.0000
  C   C24       1.0  0.81539  0.77436  0.81061  1.0000
  C   C25       1.0  0.68922  0.38734  0.56457  1.0000
  C   C26       1.0  0.31078  0.11266  0.06457  1.0000
  C   C27       1.0  0.31077  0.61266  0.43543  1.0000
  C   C28       1.0  0.68922  0.88734  0.93543  1.0000
  C   C29       1.0  0.21803  0.11417  0.77981  1.0000
  C   C30       1.0  0.78197  0.38583  0.27982  1.0000
  C   C31       1.0  0.78197  0.88583  0.22019  1.0000
  C   C32       1.0  0.21803  0.61417  0.72018  1.0000
  C   C33       1.0  0.27035  0.05026  0.64309  1.0000
  C   C34       1.0  0.72966  0.44974  0.14310  1.0000
  C   C35       1.0  0.72965  0.94973  0.35691  1.0000
  C   C36       1.0  0.27034  0.55026  0.85690  1.0000
  C   C37       1.0  0.37990  0.01844  0.70046  1.0000
  C   C38       1.0  0.62010  0.48156  0.20046  1.0000
  C   C39       1.0  0.62010  0.98156  0.29954  1.0000
  C   C40       1.0  0.37989  0.51844  0.79954  1.0000
  N   N1        1.0  0.34558  0.05882  0.78549  1.0000
  N   N2        1.0  0.65442  0.44118  0.28549  1.0000
  N   N3        1.0  0.65442  0.94118  0.21451  1.0000
  N   N4        1.0  0.34558  0.55882  0.71451  1.0000
  N   N5        1.0  0.16812  0.11189  0.69418  1.0000
  N   N6        1.0  0.83188  0.38812  0.19419  1.0000
  N   N7        1.0  0.83188  0.88811  0.30582  1.0000
  N   N8        1.0  0.16811  0.61189  0.80581  1.0000
  Cl  Cl1       1.0  0.32485  0.15951  0.40849  1.0000
  Cl  Cl2       1.0  0.67515  0.34047  0.90849  1.0000
  Cl  Cl3       1.0  0.67516  0.84047  0.59151  1.0000
  Cl  Cl4       1.0  0.32484  0.65953  0.09151  1.0000
  O   O1        1.0  0.69615  0.42297  0.48222  1.0000
  O   O2        1.0  0.30385  0.07703  0.98222  1.0000
  O   O3        1.0  0.30385  0.57703  0.51779  1.0000
  O   O4        1.0  0.69615  0.92296  0.01778  1.0000
  O   O5        1.0  0.58721  0.41352  0.61951  1.0000
  O   O6        1.0  0.41279  0.08648  0.11951  1.0000
  O   O7        1.0  0.41278  0.58646  0.38049  1.0000
  O   O8        1.0  0.58719  0.91351  0.88049  1.0000
