data_image0
_chemical_formula_structural       Cd2H28C36S4N16O4
_chemical_formula_sum              "Cd2 H28 C36 S4 N16 O4"
_cell_length_a       7.65408
_cell_length_b       9.9095
_cell_length_c       13.882
_cell_angle_alpha    89.9996
_cell_angle_beta     106.072
_cell_angle_gamma    90.0007

_space_group_name_H-M_alt    "P 1"
_space_group_IT_number       1

loop_
  _space_group_symop_operation_xyz
  'x, y, z'

loop_
  _atom_site_type_symbol
  _atom_site_label
  _atom_site_symmetry_multiplicity
  _atom_site_fract_x
  _atom_site_fract_y
  _atom_site_fract_z
  _atom_site_occupancy
  Cd  Cd1       1.0  0.00000  0.49999  1.00000  1.0000
  Cd  Cd2       1.0  0.50000  0.00000  0.00000  1.0000
  H   H1        1.0  0.76196  0.58437  0.33071  1.0000
  H   H2        1.0  0.73803  0.08437  0.66928  1.0000
  H   H3        1.0  0.23803  0.41563  0.66928  1.0000
  H   H4        1.0  0.26198  0.91562  0.33072  1.0000
  H   H5        1.0  0.82109  0.63459  0.16544  1.0000
  H   H6        1.0  0.67890  0.13459  0.83455  1.0000
  H   H7        1.0  0.17890  0.36542  0.83456  1.0000
  H   H8        1.0  0.32111  0.86541  0.16545  1.0000
  H   H9        1.0  0.01348  0.24881  0.14330  1.0000
  H   H10       1.0  0.48652  0.74880  0.85670  1.0000
  H   H11       1.0  0.98652  0.75120  0.85670  1.0000
  H   H12       1.0  0.51346  0.25121  0.14330  1.0000
  H   H13       1.0  0.96481  0.18086  0.30803  1.0000
  H   H14       1.0  0.53519  0.68085  0.69198  1.0000
  H   H15       1.0  0.03519  0.81915  0.69197  1.0000
  H   H16       1.0  0.46480  0.31915  0.30803  1.0000
  H   H17       1.0  0.55548  0.45476  0.61553  1.0000
  H   H18       1.0  0.94452  0.95476  0.38447  1.0000
  H   H19       1.0  0.44452  0.54523  0.38447  1.0000
  H   H20       1.0  0.05548  0.04523  0.61553  1.0000
  H   H21       1.0  0.76958  0.53382  0.66625  1.0000
  H   H22       1.0  0.73043  0.03382  0.33375  1.0000
  H   H23       1.0  0.23042  0.46617  0.33375  1.0000
  H   H24       1.0  0.26958  0.96618  0.66625  1.0000
  H   H25       1.0  0.72413  0.37251  0.71224  1.0000
  H   H26       1.0  0.77587  0.87251  0.28776  1.0000
  H   H27       1.0  0.27587  0.62749  0.28776  1.0000
  H   H28       1.0  0.22413  0.12749  0.71224  1.0000
  C   C1        1.0  0.81926  0.50732  0.29210  1.0000
  C   C2        1.0  0.68074  0.00732  0.70790  1.0000
  C   C3        1.0  0.18074  0.49268  0.70790  1.0000
  C   C4        1.0  0.31927  0.99268  0.29210  1.0000
  C   C5        1.0  0.85182  0.53552  0.20029  1.0000
  C   C6        1.0  0.64817  0.03552  0.79971  1.0000
  C   C7        1.0  0.14817  0.46448  0.79971  1.0000
  C   C8        1.0  0.35183  0.96448  0.20029  1.0000
  C   C9        1.0  0.96018  0.31984  0.18824  1.0000
  C   C10       1.0  0.53982  0.81984  0.81177  1.0000
  C   C11       1.0  0.03982  0.68016  0.81176  1.0000
  C   C12       1.0  0.46017  0.18016  0.18823  1.0000
  C   C13       1.0  0.93260  0.28262  0.27924  1.0000
  C   C14       1.0  0.56740  0.78261  0.72076  1.0000
  C   C15       1.0  0.06739  0.71739  0.72076  1.0000
  C   C16       1.0  0.43259  0.21739  0.27924  1.0000
  C   C17       1.0  0.86343  0.37855  0.33362  1.0000
  C   C18       1.0  0.63656  0.87854  0.66638  1.0000
  C   C19       1.0  0.13656  0.62146  0.66638  1.0000
  C   C20       1.0  0.36344  0.12146  0.33362  1.0000
  C   C21       1.0  0.83988  0.34312  0.43067  1.0000
  C   C22       1.0  0.66012  0.84311  0.56933  1.0000
  C   C23       1.0  0.16013  0.65689  0.56933  1.0000
  C   C24       1.0  0.33988  0.15689  0.43068  1.0000
  C   C25       1.0  0.77075  0.36881  0.56944  1.0000
  C   C26       1.0  0.72925  0.86881  0.43056  1.0000
  C   C27       1.0  0.22925  0.63118  0.43056  1.0000
  C   C28       1.0  0.27076  0.13119  0.56944  1.0000
  C   C29       1.0  0.70184  0.43637  0.64570  1.0000
  C   C30       1.0  0.79816  0.93637  0.35430  1.0000
  C   C31       1.0  0.29816  0.56363  0.35430  1.0000
  C   C32       1.0  0.20184  0.06363  0.64571  1.0000
  C   C33       1.0  0.90330  0.82671  0.05439  1.0000
  C   C34       1.0  0.59670  0.32672  0.94561  1.0000
  C   C35       1.0  0.09670  0.17326  0.94561  1.0000
  C   C36       1.0  0.40330  0.67327  0.05439  1.0000
  S   S1        1.0  0.86075  0.96620  0.10581  1.0000
  S   S2        1.0  0.63925  0.46622  0.89419  1.0000
  S   S3        1.0  0.13925  0.03378  0.89420  1.0000
  S   S4        1.0  0.36075  0.53378  0.10581  1.0000
  N   N1        1.0  0.92332  0.44493  0.14998  1.0000
  N   N2        1.0  0.57668  0.94492  0.85002  1.0000
  N   N3        1.0  0.07668  0.55508  0.85002  1.0000
  N   N4        1.0  0.42332  0.05508  0.14998  1.0000
  N   N5        1.0  0.87833  0.22923  0.47957  1.0000
  N   N6        1.0  0.62166  0.72922  0.52043  1.0000
  N   N7        1.0  0.12167  0.77077  0.52043  1.0000
  N   N8        1.0  0.37834  0.27078  0.47957  1.0000
  N   N9        1.0  0.83416  0.24616  0.56955  1.0000
  N   N10       1.0  0.66583  0.74616  0.43045  1.0000
  N   N11       1.0  0.16584  0.75383  0.43044  1.0000
  N   N12       1.0  0.33417  0.25384  0.56956  1.0000
  N   N13       1.0  0.93631  0.72585  0.01716  1.0000
  N   N14       1.0  0.56370  0.22585  0.98284  1.0000
  N   N15       1.0  0.06369  0.27414  0.98284  1.0000
  N   N16       1.0  0.43630  0.77415  0.01716  1.0000
  O   O1        1.0  0.77120  0.43671  0.48336  1.0000
  O   O2        1.0  0.72881  0.93671  0.51664  1.0000
  O   O3        1.0  0.22881  0.56329  0.51664  1.0000
  O   O4        1.0  0.27120  0.06329  0.48336  1.0000
