data_image0
_chemical_formula_structural       Cd4H28C40S8N20O4
_chemical_formula_sum              "Cd4 H28 C40 S8 N20 O4"
_cell_length_a       10.0116
_cell_length_b       10.0116
_cell_length_c       14.2992
_cell_angle_alpha    104.015
_cell_angle_beta     104.015
_cell_angle_gamma    103.461

_space_group_name_H-M_alt    "P 1"
_space_group_IT_number       1

loop_
  _space_group_symop_operation_xyz
  'x, y, z'

loop_
  _atom_site_type_symbol
  _atom_site_label
  _atom_site_symmetry_multiplicity
  _atom_site_fract_x
  _atom_site_fract_y
  _atom_site_fract_z
  _atom_site_occupancy
  Cd  Cd1       1.0  0.29397  0.70603  0.75000  1.0000
  Cd  Cd2       1.0  0.70603  0.29397  0.25000  1.0000
  Cd  Cd3       1.0  0.50000  0.00000  0.50000  1.0000
  Cd  Cd4       1.0  0.00000  0.50000  0.00000  1.0000
  H   H1        1.0  0.83528  0.20856  0.60596  1.0000
  H   H2        1.0  0.79144  0.16472  0.89404  1.0000
  H   H3        1.0  0.16473  0.79145  0.39404  1.0000
  H   H4        1.0  0.20855  0.83528  0.10596  1.0000
  H   H5        1.0  0.66542  0.76162  0.49155  1.0000
  H   H6        1.0  0.23839  0.33459  0.00844  1.0000
  H   H7        1.0  0.33458  0.23839  0.50844  1.0000
  H   H8        1.0  0.76161  0.66541  0.99155  1.0000
  H   H9        1.0  0.90882  0.73046  0.56050  1.0000
  H   H10       1.0  0.26954  0.09118  0.93950  1.0000
  H   H11       1.0  0.09117  0.26954  0.43950  1.0000
  H   H12       1.0  0.73045  0.90882  0.06049  1.0000
  H   H13       1.0  0.12315  0.95229  0.65585  1.0000
  H   H14       1.0  0.04771  0.87685  0.84416  1.0000
  H   H15       1.0  0.87685  0.04771  0.34416  1.0000
  H   H16       1.0  0.95228  0.12315  0.15584  1.0000
  H   H17       1.0  0.50480  0.54376  0.88911  1.0000
  H   H18       1.0  0.45625  0.49520  0.61089  1.0000
  H   H19       1.0  0.49520  0.45625  0.11090  1.0000
  H   H20       1.0  0.54375  0.50480  0.38911  1.0000
  H   H21       1.0  0.53996  0.38123  0.82923  1.0000
  H   H22       1.0  0.61878  0.46004  0.67077  1.0000
  H   H23       1.0  0.46005  0.61878  0.17077  1.0000
  H   H24       1.0  0.38122  0.53995  0.32923  1.0000
  H   H25       1.0  0.45826  0.38374  0.92566  1.0000
  H   H26       1.0  0.61627  0.54174  0.57434  1.0000
  H   H27       1.0  0.54175  0.61627  0.07434  1.0000
  H   H28       1.0  0.38373  0.45826  0.42566  1.0000
  C   C1        1.0  0.85534  0.10428  0.59545  1.0000
  C   C2        1.0  0.89572  0.14465  0.90455  1.0000
  C   C3        1.0  0.14466  0.89572  0.40455  1.0000
  C   C4        1.0  0.10428  0.85534  0.09545  1.0000
  C   C5        1.0  0.76229  0.85441  0.53295  1.0000
  C   C6        1.0  0.14559  0.23771  0.96705  1.0000
  C   C7        1.0  0.23771  0.14560  0.46705  1.0000
  C   C8        1.0  0.85440  0.76229  0.03295  1.0000
  C   C9        1.0  0.89717  0.83818  0.57156  1.0000
  C   C10       1.0  0.16182  0.10283  0.92843  1.0000
  C   C11       1.0  0.10282  0.16182  0.42843  1.0000
  C   C12       1.0  0.83818  0.89717  0.07156  1.0000
  C   C13       1.0  0.01611  0.96140  0.62415  1.0000
  C   C14       1.0  0.03860  0.98389  0.87585  1.0000
  C   C15       1.0  0.98389  0.03860  0.37585  1.0000
  C   C16       1.0  0.96139  0.01611  0.12415  1.0000
  C   C17       1.0  0.99536  0.09746  0.63496  1.0000
  C   C18       1.0  0.90253  0.00464  0.86504  1.0000
  C   C19       1.0  0.00464  0.90254  0.36505  1.0000
  C   C20       1.0  0.09746  0.99536  0.13496  1.0000
  C   C21       1.0  0.11331  0.23210  0.68494  1.0000
  C   C22       1.0  0.76790  0.88669  0.81506  1.0000
  C   C23       1.0  0.88669  0.76790  0.31506  1.0000
  C   C24       1.0  0.23209  0.11331  0.18494  1.0000
  C   C25       1.0  0.32095  0.37750  0.78574  1.0000
  C   C26       1.0  0.62250  0.67905  0.71426  1.0000
  C   C27       1.0  0.67905  0.62250  0.21426  1.0000
  C   C28       1.0  0.37750  0.32095  0.28574  1.0000
  C   C29       1.0  0.46455  0.42522  0.86203  1.0000
  C   C30       1.0  0.57478  0.53545  0.63797  1.0000
  C   C31       1.0  0.53545  0.57478  0.13797  1.0000
  C   C32       1.0  0.42522  0.46455  0.36203  1.0000
  C   C33       1.0  0.42547  0.01846  0.72149  1.0000
  C   C34       1.0  0.98155  0.57453  0.77851  1.0000
  C   C35       1.0  0.57453  0.98154  0.27850  1.0000
  C   C36       1.0  0.01846  0.42546  0.22149  1.0000
  C   C37       1.0  0.32256  0.69450  0.52567  1.0000
  C   C38       1.0  0.30550  0.67745  0.97433  1.0000
  C   C39       1.0  0.67744  0.30550  0.47433  1.0000
  C   C40       1.0  0.69450  0.32256  0.02567  1.0000
  S   S1        1.0  0.54940  0.13764  0.70295  1.0000
  S   S2        1.0  0.86236  0.45060  0.79705  1.0000
  S   S3        1.0  0.45060  0.86236  0.29704  1.0000
  S   S4        1.0  0.13765  0.54940  0.20295  1.0000
  S   S5        1.0  0.19253  0.58122  0.54306  1.0000
  S   S6        1.0  0.41879  0.80746  0.95694  1.0000
  S   S7        1.0  0.80747  0.41879  0.45694  1.0000
  S   S8        1.0  0.58121  0.19253  0.04306  1.0000
  N   N1        1.0  0.74171  0.98506  0.54590  1.0000
  N   N2        1.0  0.01494  0.25829  0.95410  1.0000
  N   N3        1.0  0.25829  0.01495  0.45410  1.0000
  N   N4        1.0  0.98506  0.74171  0.04590  1.0000
  N   N5        1.0  0.11976  0.35874  0.67366  1.0000
  N   N6        1.0  0.64126  0.88024  0.82634  1.0000
  N   N7        1.0  0.88025  0.64126  0.32634  1.0000
  N   N8        1.0  0.35874  0.11976  0.17366  1.0000
  N   N9        1.0  0.25357  0.45195  0.73905  1.0000
  N   N10       1.0  0.54805  0.74643  0.76095  1.0000
  N   N11       1.0  0.74644  0.54805  0.26094  1.0000
  N   N12       1.0  0.45195  0.25356  0.23905  1.0000
  N   N13       1.0  0.33360  0.93355  0.73491  1.0000
  N   N14       1.0  0.06645  0.66641  0.76509  1.0000
  N   N15       1.0  0.66641  0.06645  0.26509  1.0000
  N   N16       1.0  0.93355  0.33359  0.23491  1.0000
  N   N17       1.0  0.41940  0.77358  0.51242  1.0000
  N   N18       1.0  0.22642  0.58060  0.98758  1.0000
  N   N19       1.0  0.58060  0.22642  0.48758  1.0000
  N   N20       1.0  0.77358  0.41940  0.01242  1.0000
  O   O1        1.0  0.23781  0.23589  0.75418  1.0000
  O   O2        1.0  0.76411  0.76219  0.74582  1.0000
  O   O3        1.0  0.76219  0.76411  0.24583  1.0000
  O   O4        1.0  0.23589  0.23781  0.25418  1.0000
