data_image0
_chemical_formula_structural       Cd2H18C24N18O4
_chemical_formula_sum              "Cd2 H18 C24 N18 O4"
_cell_length_a       7.92132
_cell_length_b       8.39543
_cell_length_c       13.0357
_cell_angle_alpha    108.774
_cell_angle_beta     103.451
_cell_angle_gamma    90.0629

_space_group_name_H-M_alt    "P 1"
_space_group_IT_number       1

loop_
  _space_group_symop_operation_xyz
  'x, y, z'

loop_
  _atom_site_type_symbol
  _atom_site_label
  _atom_site_symmetry_multiplicity
  _atom_site_fract_x
  _atom_site_fract_y
  _atom_site_fract_z
  _atom_site_occupancy
  Cd  Cd1       1.0  0.76719  0.54126  0.72464  1.0000
  Cd  Cd2       1.0  0.23304  0.81625  0.27542  1.0000
  H   H1        1.0  0.50886  0.64242  0.54587  1.0000
  H   H2        1.0  0.49083  0.09727  0.45429  1.0000
  H   H3        1.0  0.45430  0.70578  0.66048  1.0000
  H   H4        1.0  0.54555  0.04620  0.33974  1.0000
  H   H5        1.0  0.73974  0.79003  0.97385  1.0000
  H   H6        1.0  0.26091  0.81618  0.02661  1.0000
  H   H7        1.0  0.85878  0.89736  0.70858  1.0000
  H   H8        1.0  0.14063  0.18811  0.29146  1.0000
  H   H9        1.0  0.84410  0.20986  0.80011  1.0000
  H   H10       1.0  0.15483  0.40902  0.19976  1.0000
  H   H11       1.0  0.76971  0.31053  0.98488  1.0000
  H   H12       1.0  0.22982  0.32537  0.01517  1.0000
  H   H13       1.0  0.52909  0.49198  0.31178  1.0000
  H   H14       1.0  0.47093  0.17918  0.68782  1.0000
  H   H15       1.0  0.75903  0.52617  0.35991  1.0000
  H   H16       1.0  0.24093  0.16442  0.63972  1.0000
  H   H17       1.0  0.64058  0.41124  0.41847  1.0000
  H   H18       1.0  0.35956  0.99117  0.58147  1.0000
  C   C1        1.0  0.76378  0.88633  0.93811  1.0000
  C   C2        1.0  0.23648  0.94806  0.06219  1.0000
  C   C3        1.0  0.82843  0.94811  0.78996  1.0000
  C   C4        1.0  0.17108  0.15759  0.21012  1.0000
  C   C5        1.0  0.81937  0.12021  0.84043  1.0000
  C   C6        1.0  0.17995  0.27922  0.15958  1.0000
  C   C7        1.0  0.77998  0.17670  0.94430  1.0000
  C   C8        1.0  0.21964  0.23208  0.05579  1.0000
  C   C9        1.0  0.75321  0.05808  0.99523  1.0000
  C   C10       1.0  0.24682  0.06270  0.00499  1.0000
  C   C11       1.0  0.71305  0.10742  0.10379  1.0000
  C   C12       1.0  0.28716  0.00335  0.89646  1.0000
  C   C13       1.0  0.66658  0.27530  0.25724  1.0000
  C   C14       1.0  0.33373  0.01721  0.74286  1.0000
  C   C15       1.0  0.64753  0.43534  0.34175  1.0000
  C   C16       1.0  0.35259  0.09222  0.65805  1.0000
  C   C17       1.0  0.45528  0.49510  0.85492  1.0000
  C   C18       1.0  0.54524  0.64091  0.14489  1.0000
  C   C19       1.0  0.16500  0.48647  0.85847  1.0000
  C   C20       1.0  0.83536  0.62808  0.14110  1.0000
  C   C21       1.0  0.80693  0.16795  0.56109  1.0000
  C   C22       1.0  0.19311  0.60625  0.43871  1.0000
  C   C23       1.0  0.98601  0.02527  0.45193  1.0000
  C   C24       1.0  0.01369  0.57381  0.54802  1.0000
  N   N1        1.0  0.79969  0.83351  0.83779  1.0000
  N   N2        1.0  0.20028  0.99540  0.16243  1.0000
  N   N3        1.0  0.67325  0.01177  0.15785  1.0000
  N   N4        1.0  0.32728  0.85371  0.84274  1.0000
  N   N5        1.0  0.64397  0.12053  0.25666  1.0000
  N   N6        1.0  0.35652  0.86326  0.74382  1.0000
  N   N7        1.0  0.58131  0.48392  0.82038  1.0000
  N   N8        1.0  0.41931  0.66435  0.17953  1.0000
  N   N9        1.0  0.32961  0.50599  0.90346  1.0000
  N   N10       1.0  0.67072  0.60332  0.09621  1.0000
  N   N11       1.0  0.01136  0.46808  0.82939  1.0000
  N   N12       1.0  0.98900  0.63816  0.17008  1.0000
  N   N13       1.0  0.70752  0.26631  0.59297  1.0000
  N   N14       1.0  0.29274  0.67241  0.40668  1.0000
  N   N15       1.0  0.91129  0.05362  0.53371  1.0000
  N   N16       1.0  0.08830  0.51973  0.46624  1.0000
  N   N17       1.0  0.06495  0.99053  0.38257  1.0000
  N   N18       1.0  0.93487  0.60913  0.61744  1.0000
  O   O1        1.0  0.71163  0.27632  0.16224  1.0000
  O   O2        1.0  0.28849  0.11342  0.83771  1.0000
  O   O3        1.0  0.51893  0.61838  0.61537  1.0000
  O   O4        1.0  0.48056  0.00382  0.38473  1.0000
