data_image0
_chemical_formula_structural       Cd3H28C32N6O14
_chemical_formula_sum              "Cd3 H28 C32 N6 O14"
_cell_length_a       7.89323
_cell_length_b       8.73199
_cell_length_c       14.1978
_cell_angle_alpha    84.3951
_cell_angle_beta     80.0908
_cell_angle_gamma    72.4779

_space_group_name_H-M_alt    "P 1"
_space_group_IT_number       1

loop_
  _space_group_symop_operation_xyz
  'x, y, z'

loop_
  _atom_site_type_symbol
  _atom_site_label
  _atom_site_symmetry_multiplicity
  _atom_site_fract_x
  _atom_site_fract_y
  _atom_site_fract_z
  _atom_site_occupancy
  Cd  Cd1       1.0  0.50000  0.50000  1.00000  1.0000
  Cd  Cd2       1.0  0.84096  0.86249  0.82293  1.0000
  Cd  Cd3       1.0  0.15904  0.13750  0.17707  1.0000
  H   H1        1.0  0.41485  0.85700  0.95469  1.0000
  H   H2        1.0  0.58516  0.14301  0.04532  1.0000
  H   H3        1.0  0.24665  0.84056  0.03024  1.0000
  H   H4        1.0  0.75336  0.15945  0.96976  1.0000
  H   H5        1.0  0.41006  0.36089  0.49201  1.0000
  H   H6        1.0  0.58993  0.63910  0.50799  1.0000
  H   H7        1.0  0.82767  0.86047  0.60063  1.0000
  H   H8        1.0  0.17233  0.13953  0.39937  1.0000
  H   H9        1.0  0.01072  0.72431  0.45666  1.0000
  H   H10       1.0  0.98927  0.27569  0.54334  1.0000
  H   H11       1.0  0.34388  0.39521  0.64651  1.0000
  H   H12       1.0  0.65612  0.60479  0.35349  1.0000
  H   H13       1.0  0.13851  0.54112  0.78310  1.0000
  H   H14       1.0  0.86150  0.45888  0.21690  1.0000
  H   H15       1.0  0.23084  0.71086  0.16993  1.0000
  H   H16       1.0  0.76914  0.28913  0.83007  1.0000
  H   H17       1.0  0.16785  0.71941  0.34336  1.0000
  H   H18       1.0  0.83213  0.28059  0.65664  1.0000
  H   H19       1.0  0.53861  0.23729  0.35534  1.0000
  H   H20       1.0  0.46139  0.76271  0.64466  1.0000
  H   H21       1.0  0.59915  0.25823  0.17972  1.0000
  H   H22       1.0  0.40086  0.74178  0.82028  1.0000
  H   H23       1.0  0.34941  0.29590  0.80422  1.0000
  H   H24       1.0  0.65059  0.70409  0.19578  1.0000
  H   H25       1.0  0.29600  0.18288  0.72040  1.0000
  H   H26       1.0  0.70400  0.81713  0.27959  1.0000
  H   H27       1.0  0.98394  0.22534  0.99023  1.0000
  H   H28       1.0  0.01607  0.77465  0.00977  1.0000
  C   C1        1.0  0.94389  0.75580  0.60704  1.0000
  C   C2        1.0  0.05611  0.24420  0.39296  1.0000
  C   C3        1.0  0.04924  0.68017  0.52625  1.0000
  C   C4        1.0  0.95077  0.31982  0.47375  1.0000
  C   C5        1.0  0.19974  0.54740  0.53827  1.0000
  C   C6        1.0  0.80026  0.45259  0.46173  1.0000
  C   C7        1.0  0.22954  0.49719  0.63304  1.0000
  C   C8        1.0  0.77046  0.50281  0.36696  1.0000
  C   C9        1.0  0.11628  0.57804  0.70932  1.0000
  C   C10       1.0  0.88372  0.42196  0.29068  1.0000
  C   C11       1.0  0.29527  0.60656  0.21321  1.0000
  C   C12       1.0  0.70472  0.39344  0.78679  1.0000
  C   C13       1.0  0.25603  0.60933  0.31250  1.0000
  C   C14       1.0  0.74395  0.39067  0.68750  1.0000
  C   C15       1.0  0.34091  0.47427  0.36729  1.0000
  C   C16       1.0  0.65907  0.52573  0.63272  1.0000
  C   C17       1.0  0.46455  0.34485  0.31749  1.0000
  C   C18       1.0  0.53545  0.65515  0.68251  1.0000
  C   C19       1.0  0.49835  0.35488  0.21855  1.0000
  C   C20       1.0  0.50165  0.64513  0.78145  1.0000
  C   C21       1.0  0.50362  0.05515  0.79928  1.0000
  C   C22       1.0  0.49638  0.94485  0.20071  1.0000
  C   C23       1.0  0.32475  0.18174  0.79334  1.0000
  C   C24       1.0  0.67526  0.81826  0.20665  1.0000
  C   C25       1.0  0.16553  0.16546  0.86355  1.0000
  C   C26       1.0  0.83448  0.83455  0.13645  1.0000
  C   C27       1.0  0.07364  0.05026  0.83891  1.0000
  C   C28       1.0  0.92636  0.94973  0.16109  1.0000
  C   C29       1.0  0.10149  0.24630  0.94455  1.0000
  C   C30       1.0  0.89852  0.75370  0.05545  1.0000
  C   C31       1.0  0.18392  0.35264  0.98569  1.0000
  C   C32       1.0  0.81608  0.64735  0.01431  1.0000
  N   N1        1.0  0.97550  0.70770  0.69681  1.0000
  N   N2        1.0  0.02450  0.29230  0.30319  1.0000
  N   N3        1.0  0.32023  0.45955  0.46669  1.0000
  N   N4        1.0  0.67976  0.54045  0.53331  1.0000
  N   N5        1.0  0.41331  0.48325  0.16611  1.0000
  N   N6        1.0  0.58669  0.51675  0.83389  1.0000
  O   O1        1.0  0.53154  0.97261  0.87770  1.0000
  O   O2        1.0  0.46846  0.02740  0.12229  1.0000
  O   O3        1.0  0.62574  0.04323  0.72672  1.0000
  O   O4        1.0  0.37426  0.95676  0.27327  1.0000
  O   O5        1.0  0.92168  0.04653  0.89064  1.0000
  O   O6        1.0  0.07832  0.95347  0.10936  1.0000
  O   O7        1.0  0.14310  0.96237  0.76904  1.0000
  O   O8        1.0  0.85691  0.03763  0.23096  1.0000
  O   O9        1.0  0.26858  0.43890  0.93217  1.0000
  O   O10       1.0  0.73143  0.56109  0.06784  1.0000
  O   O11       1.0  0.16296  0.35138  0.07731  1.0000
  O   O12       1.0  0.83704  0.64862  0.92269  1.0000
  O   O13       1.0  0.35011  0.77930  0.98532  1.0000
  O   O14       1.0  0.64991  0.22071  0.01469  1.0000
