data_image0
_chemical_formula_structural       Zn4H48C16S8N8Cl8
_chemical_formula_sum              "Zn4 H48 C16 S8 N8 Cl8"
_cell_length_a       5.05629
_cell_length_b       10.2081
_cell_length_c       20.1148
_cell_angle_alpha    90.0001
_cell_angle_beta     90
_cell_angle_gamma    92.5027

_space_group_name_H-M_alt    "P 1"
_space_group_IT_number       1

loop_
  _space_group_symop_operation_xyz
  'x, y, z'

loop_
  _atom_site_type_symbol
  _atom_site_label
  _atom_site_symmetry_multiplicity
  _atom_site_fract_x
  _atom_site_fract_y
  _atom_site_fract_z
  _atom_site_occupancy
  Zn  Zn1       1.0  0.73288  0.65278  0.89926  1.0000
  Zn  Zn2       1.0  0.26712  0.84722  0.39926  1.0000
  Zn  Zn3       1.0  0.26712  0.34722  0.10074  1.0000
  Zn  Zn4       1.0  0.73288  0.15278  0.60074  1.0000
  H   H1        1.0  0.88431  0.62687  0.02050  1.0000
  H   H2        1.0  0.11569  0.87313  0.52050  1.0000
  H   H3        1.0  0.11569  0.37313  0.97950  1.0000
  H   H4        1.0  0.88431  0.12687  0.47950  1.0000
  H   H5        1.0  0.14671  0.64133  0.97150  1.0000
  H   H6        1.0  0.85329  0.85867  0.47150  1.0000
  H   H7        1.0  0.85329  0.35867  0.02850  1.0000
  H   H8        1.0  0.14671  0.14133  0.52850  1.0000
  H   H9        1.0  0.91147  0.80923  0.30768  1.0000
  H   H10       1.0  0.08853  0.69077  0.80768  1.0000
  H   H11       1.0  0.08853  0.19077  0.69232  1.0000
  H   H12       1.0  0.91147  0.30923  0.19232  1.0000
  H   H13       1.0  0.87964  0.95196  0.34268  1.0000
  H   H14       1.0  0.12035  0.54804  0.84268  1.0000
  H   H15       1.0  0.12036  0.04804  0.65732  1.0000
  H   H16       1.0  0.87965  0.45196  0.15732  1.0000
  H   H17       1.0  0.81744  0.85597  0.01768  1.0000
  H   H18       1.0  0.18256  0.64403  0.51768  1.0000
  H   H19       1.0  0.18255  0.14403  0.98232  1.0000
  H   H20       1.0  0.81745  0.35597  0.48232  1.0000
  H   H21       1.0  0.08572  0.87577  0.96096  1.0000
  H   H22       1.0  0.91428  0.62423  0.46096  1.0000
  H   H23       1.0  0.91428  0.12423  0.03904  1.0000
  H   H24       1.0  0.08572  0.37577  0.53904  1.0000
  H   H25       1.0  0.24895  0.93783  0.07282  1.0000
  H   H26       1.0  0.75106  0.56217  0.57282  1.0000
  H   H27       1.0  0.75105  0.06217  0.92718  1.0000
  H   H28       1.0  0.24895  0.43783  0.42718  1.0000
  H   H29       1.0  0.39476  0.79097  0.04802  1.0000
  H   H30       1.0  0.60524  0.70903  0.54802  1.0000
  H   H31       1.0  0.60524  0.20903  0.95198  1.0000
  H   H32       1.0  0.39476  0.29097  0.45198  1.0000
  H   H33       1.0  0.06866  0.05001  0.17225  1.0000
  H   H34       1.0  0.93133  0.44999  0.67225  1.0000
  H   H35       1.0  0.93134  0.94999  0.82775  1.0000
  H   H36       1.0  0.06867  0.55001  0.32775  1.0000
  H   H37       1.0  0.79960  0.04985  0.22919  1.0000
  H   H38       1.0  0.20039  0.45015  0.72919  1.0000
  H   H39       1.0  0.20040  0.95015  0.77081  1.0000
  H   H40       1.0  0.79961  0.54985  0.27081  1.0000
  H   H41       1.0  0.29902  0.88982  0.24580  1.0000
  H   H42       1.0  0.70098  0.61018  0.74580  1.0000
  H   H43       1.0  0.70098  0.11018  0.75420  1.0000
  H   H44       1.0  0.29902  0.38982  0.25420  1.0000
  H   H45       1.0  0.25909  0.04487  0.28333  1.0000
  H   H46       1.0  0.74091  0.45513  0.78333  1.0000
  H   H47       1.0  0.74091  0.95513  0.71667  1.0000
  H   H48       1.0  0.25909  0.54487  0.21667  1.0000
  C   C1        1.0  0.01017  0.81856  0.00372  1.0000
  C   C2        1.0  0.98983  0.68144  0.50372  1.0000
  C   C3        1.0  0.98983  0.18144  0.99628  1.0000
  C   C4        1.0  0.01017  0.31856  0.49628  1.0000
  C   C5        1.0  0.20570  0.83410  0.06081  1.0000
  C   C6        1.0  0.79430  0.66590  0.56081  1.0000
  C   C7        1.0  0.79430  0.16590  0.93919  1.0000
  C   C8        1.0  0.20570  0.33411  0.43919  1.0000
  C   C9        1.0  0.96221  0.99163  0.21042  1.0000
  C   C10       1.0  0.03779  0.50837  0.71042  1.0000
  C   C11       1.0  0.03779  0.00837  0.78958  1.0000
  C   C12       1.0  0.96221  0.49163  0.28958  1.0000
  C   C13       1.0  0.15156  0.95595  0.26537  1.0000
  C   C14       1.0  0.84844  0.54405  0.76537  1.0000
  C   C15       1.0  0.84844  0.04404  0.73463  1.0000
  C   C16       1.0  0.15156  0.45596  0.23463  1.0000
  S   S1        1.0  0.10512  0.74737  0.13663  1.0000
  S   S2        1.0  0.89488  0.75263  0.63663  1.0000
  S   S3        1.0  0.89488  0.25263  0.86337  1.0000
  S   S4        1.0  0.10512  0.24738  0.36337  1.0000
  S   S5        1.0  0.79475  0.84955  0.17075  1.0000
  S   S6        1.0  0.20524  0.65045  0.67075  1.0000
  S   S7        1.0  0.20525  0.15045  0.82925  1.0000
  S   S8        1.0  0.79476  0.34955  0.32925  1.0000
  N   N1        1.0  0.96711  0.68063  0.98180  1.0000
  N   N2        1.0  0.03289  0.81937  0.48180  1.0000
  N   N3        1.0  0.03289  0.31937  0.01820  1.0000
  N   N4        1.0  0.96711  0.18063  0.51820  1.0000
  N   N5        1.0  0.01858  0.89158  0.32300  1.0000
  N   N6        1.0  0.98142  0.60842  0.82300  1.0000
  N   N7        1.0  0.98142  0.10842  0.67700  1.0000
  N   N8        1.0  0.01858  0.39158  0.17700  1.0000
  Cl  Cl1       1.0  0.49532  0.82800  0.87673  1.0000
  Cl  Cl2       1.0  0.50468  0.67200  0.37673  1.0000
  Cl  Cl3       1.0  0.50468  0.17200  0.12327  1.0000
  Cl  Cl4       1.0  0.49532  0.32800  0.62327  1.0000
  Cl  Cl5       1.0  0.44943  0.47409  0.91171  1.0000
  Cl  Cl6       1.0  0.55057  0.02591  0.41171  1.0000
  Cl  Cl7       1.0  0.55057  0.52591  0.08829  1.0000
  Cl  Cl8       1.0  0.44943  0.97409  0.58829  1.0000
