data_image0
_chemical_formula_structural       Cd2H42C66N16O24
_chemical_formula_sum              "Cd2 H42 C66 N16 O24"
_cell_length_a       10.973
_cell_length_b       13.1212
_cell_length_c       13.8115
_cell_angle_alpha    93.5121
_cell_angle_beta     107.77
_cell_angle_gamma    99.0879

_space_group_name_H-M_alt    "P 1"
_space_group_IT_number       1

loop_
  _space_group_symop_operation_xyz
  'x, y, z'

loop_
  _atom_site_type_symbol
  _atom_site_label
  _atom_site_symmetry_multiplicity
  _atom_site_fract_x
  _atom_site_fract_y
  _atom_site_fract_z
  _atom_site_occupancy
  Cd  Cd1       1.0  0.52068  0.68317  0.34825  1.0000
  Cd  Cd2       1.0  0.47932  0.31683  0.65175  1.0000
  H   H1        1.0  0.43220  0.85556  0.46526  1.0000
  H   H2        1.0  0.56780  0.14444  0.53474  1.0000
  H   H3        1.0  0.25770  0.88621  0.53950  1.0000
  H   H4        1.0  0.74230  0.11379  0.46050  1.0000
  H   H5        1.0  0.09688  0.55786  0.46220  1.0000
  H   H6        1.0  0.90312  0.44214  0.53780  1.0000
  H   H7        1.0  0.27818  0.54005  0.39387  1.0000
  H   H8        1.0  0.72183  0.45995  0.60613  1.0000
  H   H9        1.0  0.01608  0.81154  0.51910  1.0000
  H   H10       1.0  0.98391  0.18847  0.48089  1.0000
  H   H11       1.0  0.96707  0.67361  0.50913  1.0000
  H   H12       1.0  0.03292  0.32639  0.49086  1.0000
  H   H13       1.0  0.09568  0.95756  0.90290  1.0000
  H   H14       1.0  0.90432  0.04244  0.09709  1.0000
  H   H15       1.0  0.04424  0.56445  0.88900  1.0000
  H   H16       1.0  0.95575  0.43555  0.11100  1.0000
  H   H17       1.0  0.12614  0.85940  0.28037  1.0000
  H   H18       1.0  0.87386  0.14060  0.71962  1.0000
  H   H19       1.0  0.13719  0.72432  0.27975  1.0000
  H   H20       1.0  0.86281  0.27568  0.72025  1.0000
  H   H21       1.0  0.91984  0.91672  0.27433  1.0000
  H   H22       1.0  0.08015  0.08328  0.72567  1.0000
  H   H23       1.0  0.70650  0.87136  0.30513  1.0000
  H   H24       1.0  0.29350  0.12864  0.69487  1.0000
  H   H25       1.0  0.72216  0.55740  0.28885  1.0000
  H   H26       1.0  0.27785  0.44260  0.71115  1.0000
  H   H27       1.0  0.93657  0.58887  0.25902  1.0000
  H   H28       1.0  0.06343  0.41113  0.74098  1.0000
  H   H29       1.0  0.59358  0.46880  0.40942  1.0000
  H   H30       1.0  0.40643  0.53120  0.59058  1.0000
  H   H31       1.0  0.51668  0.27633  0.36458  1.0000
  H   H32       1.0  0.48332  0.72366  0.63542  1.0000
  H   H33       1.0  0.20679  0.33994  0.11057  1.0000
  H   H34       1.0  0.79321  0.66006  0.88943  1.0000
  H   H35       1.0  0.29662  0.52978  0.16360  1.0000
  H   H36       1.0  0.70338  0.47022  0.83640  1.0000
  H   H37       1.0  0.31681  0.14008  0.28027  1.0000
  H   H38       1.0  0.68319  0.85991  0.71973  1.0000
  H   H39       1.0  0.19643  0.16224  0.16781  1.0000
  H   H40       1.0  0.80357  0.83776  0.83220  1.0000
  H   H41       1.0  0.68543  0.98480  0.15893  1.0000
  H   H42       1.0  0.31458  0.01520  0.84107  1.0000
  C   C1        1.0  0.35573  0.79200  0.46633  1.0000
  C   C2        1.0  0.64428  0.20799  0.53367  1.0000
  C   C3        1.0  0.25799  0.80849  0.50693  1.0000
  C   C4        1.0  0.74200  0.19151  0.49306  1.0000
  C   C5        1.0  0.16148  0.72425  0.50542  1.0000
  C   C6        1.0  0.83851  0.27574  0.49458  1.0000
  C   C7        1.0  0.16958  0.62598  0.46543  1.0000
  C   C8        1.0  0.83041  0.37402  0.53457  1.0000
  C   C9        1.0  0.27012  0.61578  0.42599  1.0000
  C   C10       1.0  0.72988  0.38423  0.57401  1.0000
  C   C11       1.0  0.04860  0.73910  0.54227  1.0000
  C   C12       1.0  0.95140  0.26090  0.45772  1.0000
  C   C13       1.0  0.09176  0.84003  0.71327  1.0000
  C   C14       1.0  0.90823  0.15998  0.28673  1.0000
  C   C15       1.0  0.08540  0.81065  0.81432  1.0000
  C   C16       1.0  0.91459  0.18935  0.18568  1.0000
  C   C17       1.0  0.08810  0.87357  0.90028  1.0000
  C   C18       1.0  0.91190  0.12643  0.09971  1.0000
  C   C19       1.0  0.07717  0.82061  0.98249  1.0000
  C   C20       1.0  0.92284  0.17940  0.01750  1.0000
  C   C21       1.0  0.06396  0.71210  0.97854  1.0000
  C   C22       1.0  0.93604  0.28791  0.02145  1.0000
  C   C23       1.0  0.05891  0.64888  0.89206  1.0000
  C   C24       1.0  0.94108  0.35113  0.10794  1.0000
  C   C25       1.0  0.07011  0.70190  0.80995  1.0000
  C   C26       1.0  0.92988  0.29811  0.19005  1.0000
  C   C27       1.0  0.06311  0.66017  0.70524  1.0000
  C   C28       1.0  0.93689  0.33984  0.29476  1.0000
  C   C29       1.0  0.07928  0.86238  0.08617  1.0000
  C   C30       1.0  0.92072  0.13762  0.91383  1.0000
  C   C31       1.0  0.05803  0.68214  0.07951  1.0000
  C   C32       1.0  0.94196  0.31787  0.92048  1.0000
  C   C33       1.0  0.07650  0.78020  0.24615  1.0000
  C   C34       1.0  0.92350  0.21980  0.75385  1.0000
  C   C35       1.0  0.94580  0.75601  0.26309  1.0000
  C   C36       1.0  0.05419  0.24399  0.73690  1.0000
  C   C37       1.0  0.87975  0.83575  0.27620  1.0000
  C   C38       1.0  0.12024  0.16425  0.72380  1.0000
  C   C39       1.0  0.76052  0.81134  0.29331  1.0000
  C   C40       1.0  0.23948  0.18866  0.70669  1.0000
  C   C41       1.0  0.76876  0.63592  0.28410  1.0000
  C   C42       1.0  0.23124  0.36408  0.71590  1.0000
  C   C43       1.0  0.88849  0.65389  0.26711  1.0000
  C   C44       1.0  0.11150  0.34611  0.73289  1.0000
  C   C45       1.0  0.50924  0.43682  0.34296  1.0000
  C   C46       1.0  0.49077  0.56317  0.65704  1.0000
  C   C47       1.0  0.46597  0.33031  0.31823  1.0000
  C   C48       1.0  0.53403  0.66969  0.68177  1.0000
  C   C49       1.0  0.35399  0.29293  0.23486  1.0000
  C   C50       1.0  0.64601  0.70707  0.76515  1.0000
  C   C51       1.0  0.29354  0.36546  0.17685  1.0000
  C   C52       1.0  0.70646  0.63454  0.82316  1.0000
  C   C53       1.0  0.34299  0.47106  0.20577  1.0000
  C   C54       1.0  0.65701  0.52893  0.79423  1.0000
  C   C55       1.0  0.30099  0.17759  0.20972  1.0000
  C   C56       1.0  0.69902  0.82240  0.79029  1.0000
  C   C57       1.0  0.48237  0.09333  0.18494  1.0000
  C   C58       1.0  0.51763  0.90666  0.81506  1.0000
  C   C59       1.0  0.50592  0.04292  0.09442  1.0000
  C   C60       1.0  0.49408  0.95708  0.90558  1.0000
  C   C61       1.0  0.60611  0.99134  0.09056  1.0000
  C   C62       1.0  0.39389  0.00866  0.90944  1.0000
  C   C63       1.0  0.40331  0.05151  0.00678  1.0000
  C   C64       1.0  0.59669  0.94849  0.99323  1.0000
  C   C65       1.0  0.31270  0.10862  0.03942  1.0000
  C   C66       1.0  0.68730  0.89138  0.96059  1.0000
  N   N1        1.0  0.36123  0.69745  0.42559  1.0000
  N   N2        1.0  0.63877  0.30255  0.57441  1.0000
  N   N3        1.0  0.07895  0.74665  0.65283  1.0000
  N   N4        1.0  0.92104  0.25335  0.34717  1.0000
  N   N5        1.0  0.06583  0.77466  0.13846  1.0000
  N   N6        1.0  0.93417  0.22535  0.86154  1.0000
  N   N7        1.0  0.70535  0.71298  0.29701  1.0000
  N   N8        1.0  0.29465  0.28702  0.70299  1.0000
  N   N9        1.0  0.44867  0.50652  0.28841  1.0000
  N   N10       1.0  0.55133  0.49347  0.71159  1.0000
  N   N11       1.0  0.36406  0.12826  0.14609  1.0000
  N   N12       1.0  0.63594  0.87174  0.85392  1.0000
  N   N13       1.0  0.72176  0.71879  0.54882  1.0000
  N   N14       1.0  0.27825  0.28121  0.45119  1.0000
  N   N15       1.0  0.39381  0.81272  0.20205  1.0000
  N   N16       1.0  0.60619  0.18727  0.79795  1.0000
  O   O1        1.0  0.10531  0.92625  0.68443  1.0000
  O   O2        1.0  0.89469  0.07375  0.31557  1.0000
  O   O3        1.0  0.04611  0.56967  0.66810  1.0000
  O   O4        1.0  0.95388  0.43033  0.33189  1.0000
  O   O5        1.0  0.09140  0.95201  0.12257  1.0000
  O   O6        1.0  0.90861  0.04800  0.87744  1.0000
  O   O7        1.0  0.04890  0.59580  0.10901  1.0000
  O   O8        1.0  0.95109  0.40420  0.89098  1.0000
  O   O9        1.0  0.54949  0.10555  0.27505  1.0000
  O   O10       1.0  0.45051  0.89445  0.72495  1.0000
  O   O11       1.0  0.21324  0.13480  0.98654  1.0000
  O   O12       1.0  0.78677  0.86520  0.01347  1.0000
  O   O13       1.0  0.68007  0.62669  0.50052  1.0000
  O   O14       1.0  0.31993  0.37331  0.49949  1.0000
  O   O15       1.0  0.66744  0.79268  0.51013  1.0000
  O   O16       1.0  0.33257  0.20732  0.48988  1.0000
  O   O17       1.0  0.81253  0.73482  0.63176  1.0000
  O   O18       1.0  0.18747  0.26517  0.36825  1.0000
  O   O19       1.0  0.35861  0.71399  0.18085  1.0000
  O   O20       1.0  0.64139  0.28600  0.81915  1.0000
  O   O21       1.0  0.48176  0.84901  0.28786  1.0000
  O   O22       1.0  0.51824  0.15099  0.71215  1.0000
  O   O23       1.0  0.34404  0.87262  0.14151  1.0000
  O   O24       1.0  0.65597  0.12737  0.85849  1.0000
