data_image0
_chemical_formula_structural       Mn3H30C36N24
_chemical_formula_sum              "Mn3 H30 C36 N24"
_cell_length_a       8.57504
_cell_length_b       11.0048
_cell_length_c       11.3873
_cell_angle_alpha    72.7499
_cell_angle_beta     71.304
_cell_angle_gamma    89.043

_space_group_name_H-M_alt    "P 1"
_space_group_IT_number       1

loop_
  _space_group_symop_operation_xyz
  'x, y, z'

loop_
  _atom_site_type_symbol
  _atom_site_label
  _atom_site_symmetry_multiplicity
  _atom_site_fract_x
  _atom_site_fract_y
  _atom_site_fract_z
  _atom_site_occupancy
  Mn  Mn1       1.0  0.11971  0.11300  0.36849  1.0000
  Mn  Mn2       1.0  0.87872  0.88536  0.63326  1.0000
  Mn  Mn3       1.0  0.50192  0.50164  0.99849  1.0000
  H   H1        1.0  0.88340  0.26191  0.22189  1.0000
  H   H2        1.0  0.11707  0.73764  0.77851  1.0000
  H   H3        1.0  0.71137  0.44598  0.21777  1.0000
  H   H4        1.0  0.28891  0.55352  0.78247  1.0000
  H   H5        1.0  0.82134  0.47439  0.55470  1.0000
  H   H6        1.0  0.17938  0.52588  0.44509  1.0000
  H   H7        1.0  0.99588  0.29438  0.53989  1.0000
  H   H8        1.0  0.00463  0.70568  0.46030  1.0000
  H   H9        1.0  0.65648  0.62589  0.47198  1.0000
  H   H10       1.0  0.34380  0.37387  0.52803  1.0000
  H   H11       1.0  0.58353  0.61472  0.22667  1.0000
  H   H12       1.0  0.41639  0.38478  0.77358  1.0000
  H   H13       1.0  0.37955  0.97916  0.48048  1.0000
  H   H14       1.0  0.62086  0.02056  0.51957  1.0000
  H   H15       1.0  0.55105  0.79635  0.47604  1.0000
  H   H16       1.0  0.44941  0.20337  0.52385  1.0000
  H   H17       1.0  0.40823  0.76621  0.15281  1.0000
  H   H18       1.0  0.59150  0.23320  0.84757  1.0000
  H   H19       1.0  0.24899  0.95723  0.16746  1.0000
  H   H20       1.0  0.75100  0.04238  0.83282  1.0000
  H   H21       1.0  0.12940  0.52147  0.11741  1.0000
  H   H22       1.0  0.87251  0.47919  0.88211  1.0000
  H   H23       1.0  0.92307  0.68258  0.13812  1.0000
  H   H24       1.0  0.07728  0.31716  0.86146  1.0000
  H   H25       1.0  0.30959  0.96976  0.85876  1.0000
  H   H26       1.0  0.68887  0.03135  0.14062  1.0000
  H   H27       1.0  0.49834  0.79906  0.85109  1.0000
  H   H28       1.0  0.50148  0.20303  0.14822  1.0000
  H   H29       1.0  0.85086  0.89806  0.06830  1.0000
  H   H30       1.0  0.14800  0.10177  0.93167  1.0000
  C   C1        1.0  0.86733  0.31298  0.29317  1.0000
  C   C2        1.0  0.13312  0.68671  0.70710  1.0000
  C   C3        1.0  0.77091  0.41558  0.29191  1.0000
  C   C4        1.0  0.22944  0.58407  0.70829  1.0000
  C   C5        1.0  0.75276  0.47918  0.38580  1.0000
  C   C6        1.0  0.24761  0.52060  0.61429  1.0000
  C   C7        1.0  0.83361  0.43147  0.47769  1.0000
  C   C8        1.0  0.16692  0.56855  0.52231  1.0000
  C   C9        1.0  0.93015  0.32976  0.47056  1.0000
  C   C10       1.0  0.07037  0.67024  0.52959  1.0000
  C   C11       1.0  0.65895  0.58957  0.39205  1.0000
  C   C12       1.0  0.34127  0.41015  0.60801  1.0000
  C   C13       1.0  0.58201  0.65010  0.30696  1.0000
  C   C14       1.0  0.41809  0.34950  0.69318  1.0000
  C   C15       1.0  0.39183  0.93002  0.40816  1.0000
  C   C16       1.0  0.60844  0.06964  0.59195  1.0000
  C   C17       1.0  0.48546  0.82654  0.40592  1.0000
  C   C18       1.0  0.51481  0.17312  0.59413  1.0000
  C   C19       1.0  0.49298  0.76255  0.31391  1.0000
  C   C20       1.0  0.50715  0.23705  0.68623  1.0000
  C   C21       1.0  0.40661  0.81183  0.22603  1.0000
  C   C22       1.0  0.59336  0.18770  0.77422  1.0000
  C   C23       1.0  0.31702  0.91712  0.23422  1.0000
  C   C24       1.0  0.68300  0.08245  0.76602  1.0000
  C   C25       1.0  0.16401  0.62206  0.06220  1.0000
  C   C26       1.0  0.83698  0.37866  0.93726  1.0000
  C   C27       1.0  0.04951  0.71194  0.07298  1.0000
  C   C28       1.0  0.95071  0.28827  0.92650  1.0000
  C   C29       1.0  0.09813  0.84183  0.00292  1.0000
  C   C30       1.0  0.90116  0.15852  0.99674  1.0000
  C   C31       1.0  0.26366  0.87221  0.92004  1.0000
  C   C32       1.0  0.73549  0.12879  0.07939  1.0000
  C   C33       1.0  0.37010  0.77613  0.91464  1.0000
  C   C34       1.0  0.62979  0.22538  0.08470  1.0000
  C   C35       1.0  0.97955  0.93631  0.01936  1.0000
  C   C36       1.0  0.01927  0.06368  0.98060  1.0000
  N   N1        1.0  0.16335  0.17752  0.15822  1.0000
  N   N2        1.0  0.83664  0.82155  0.84040  1.0000
  N   N3        1.0  0.24040  0.27175  0.07962  1.0000
  N   N4        1.0  0.75887  0.72783  0.91979  1.0000
  N   N5        1.0  0.31595  0.36530  0.99859  1.0000
  N   N6        1.0  0.68239  0.63469  0.00137  1.0000
  N   N7        1.0  0.31018  0.24580  0.36853  1.0000
  N   N8        1.0  0.69327  0.75420  0.63157  1.0000
  N   N9        1.0  0.35187  0.34844  0.28993  1.0000
  N   N10       1.0  0.64770  0.65211  0.71070  1.0000
  N   N11       1.0  0.39356  0.45141  0.21302  1.0000
  N   N12       1.0  0.60209  0.54971  0.78833  1.0000
  N   N13       1.0  0.07513  0.03078  0.57971  1.0000
  N   N14       1.0  0.92407  0.96855  0.42088  1.0000
  N   N15       1.0  0.09356  0.09569  0.64413  1.0000
  N   N16       1.0  0.90591  0.90374  0.35632  1.0000
  N   N17       1.0  0.11226  0.16119  0.70317  1.0000
  N   N18       1.0  0.88726  0.83809  0.29740  1.0000
  N   N19       1.0  0.94892  0.27068  0.37938  1.0000
  N   N20       1.0  0.05153  0.72917  0.62091  1.0000
  N   N21       1.0  0.32344  0.65230  0.98533  1.0000
  N   N22       1.0  0.67743  0.34911  0.01408  1.0000
  N   N23       1.0  0.30776  0.97581  0.32450  1.0000
  N   N24       1.0  0.69243  0.02383  0.67567  1.0000
