data_image0
_chemical_formula_structural       Cu6H36C18S6I6N12
_chemical_formula_sum              "Cu6 H36 C18 S6 I6 N12"
_cell_length_a       7.84882
_cell_length_b       11.9199
_cell_length_c       12.5464
_cell_angle_alpha    68.2343
_cell_angle_beta     72.9736
_cell_angle_gamma    88.5082

_space_group_name_H-M_alt    "P 1"
_space_group_IT_number       1

loop_
  _space_group_symop_operation_xyz
  'x, y, z'

loop_
  _atom_site_type_symbol
  _atom_site_label
  _atom_site_symmetry_multiplicity
  _atom_site_fract_x
  _atom_site_fract_y
  _atom_site_fract_z
  _atom_site_occupancy
  Cu  Cu1       1.0  0.46049  0.49190  0.90794  1.0000
  Cu  Cu2       1.0  0.53952  0.50810  0.09206  1.0000
  Cu  Cu3       1.0  0.65514  0.69508  0.74005  1.0000
  Cu  Cu4       1.0  0.34485  0.30491  0.25995  1.0000
  Cu  Cu5       1.0  0.43834  0.11870  0.05193  1.0000
  Cu  Cu6       1.0  0.56165  0.88130  0.94807  1.0000
  H   H1        1.0  0.11960  0.63251  0.95072  1.0000
  H   H2        1.0  0.88040  0.36749  0.04927  1.0000
  H   H3        1.0  0.06829  0.48103  0.30907  1.0000
  H   H4        1.0  0.93171  0.51897  0.69093  1.0000
  H   H5        1.0  0.98007  0.84844  0.57894  1.0000
  H   H6        1.0  0.01992  0.15156  0.42106  1.0000
  H   H7        1.0  0.93971  0.98893  0.83502  1.0000
  H   H8        1.0  0.06028  0.01106  0.16498  1.0000
  H   H9        1.0  0.61853  0.12187  0.80371  1.0000
  H   H10       1.0  0.38147  0.87813  0.19630  1.0000
  H   H11       1.0  0.57066  0.48265  0.66608  1.0000
  H   H12       1.0  0.42935  0.51735  0.33392  1.0000
  H   H13       1.0  0.81909  0.69109  0.07499  1.0000
  H   H14       1.0  0.18091  0.30891  0.92502  1.0000
  H   H15       1.0  0.00875  0.79198  0.04223  1.0000
  H   H16       1.0  0.99124  0.20802  0.95777  1.0000
  H   H17       1.0  0.99823  0.71127  0.24825  1.0000
  H   H18       1.0  0.00177  0.28873  0.75175  1.0000
  H   H19       1.0  0.80341  0.61467  0.28226  1.0000
  H   H20       1.0  0.19659  0.38533  0.71774  1.0000
  H   H21       1.0  0.30012  0.88341  0.58291  1.0000
  H   H22       1.0  0.69987  0.11659  0.41709  1.0000
  H   H23       1.0  0.23795  0.03021  0.50520  1.0000
  H   H24       1.0  0.76204  0.96979  0.49480  1.0000
  H   H25       1.0  0.25042  0.07742  0.67148  1.0000
  H   H26       1.0  0.74958  0.92258  0.32853  1.0000
  H   H27       1.0  0.25647  0.92147  0.76148  1.0000
  H   H28       1.0  0.74353  0.07852  0.23851  1.0000
  H   H29       1.0  0.52371  0.18473  0.61289  1.0000
  H   H30       1.0  0.47629  0.81527  0.38712  1.0000
  H   H31       1.0  0.76389  0.19651  0.56886  1.0000
  H   H32       1.0  0.23612  0.80349  0.43114  1.0000
  H   H33       1.0  0.78566  0.41145  0.51246  1.0000
  H   H34       1.0  0.21435  0.58854  0.48754  1.0000
  H   H35       1.0  0.56662  0.39878  0.49853  1.0000
  H   H36       1.0  0.43339  0.60122  0.50147  1.0000
  C   C1        1.0  0.11929  0.53264  0.12517  1.0000
  C   C2        1.0  0.88071  0.46736  0.87483  1.0000
  C   C3        1.0  0.95057  0.69727  0.08779  1.0000
  C   C4        1.0  0.04943  0.30272  0.91222  1.0000
  C   C5        1.0  0.94114  0.64539  0.22269  1.0000
  C   C6        1.0  0.05886  0.35461  0.77731  1.0000
  C   C7        1.0  0.90795  0.91813  0.71315  1.0000
  C   C8        1.0  0.09204  0.08187  0.28685  1.0000
  C   C9        1.0  0.20327  0.95031  0.59044  1.0000
  C   C10       1.0  0.79672  0.04969  0.40956  1.0000
  C   C11       1.0  0.19178  0.98466  0.69924  1.0000
  C   C12       1.0  0.80821  0.01533  0.30076  1.0000
  C   C13       1.0  0.58271  0.30292  0.76712  1.0000
  C   C14       1.0  0.41729  0.69708  0.23288  1.0000
  C   C15       1.0  0.64369  0.22938  0.61441  1.0000
  C   C16       1.0  0.35631  0.77061  0.38559  1.0000
  C   C17       1.0  0.64775  0.36853  0.56000  1.0000
  C   C18       1.0  0.35225  0.63147  0.44000  1.0000
  S   S1        1.0  0.25080  0.42094  0.10001  1.0000
  S   S2        1.0  0.74921  0.57907  0.89999  1.0000
  S   S3        1.0  0.67997  0.88211  0.76097  1.0000
  S   S4        1.0  0.32002  0.11789  0.23903  1.0000
  S   S5        1.0  0.53473  0.30666  0.90676  1.0000
  S   S6        1.0  0.46527  0.69334  0.09324  1.0000
  I   I1        1.0  0.32338  0.64567  0.75051  1.0000
  I   I2        1.0  0.67662  0.35434  0.24949  1.0000
  I   I3        1.0  0.83614  0.69277  0.52601  1.0000
  I   I4        1.0  0.16385  0.30722  0.47400  1.0000
  I   I5        1.0  0.26348  0.00145  0.96708  1.0000
  I   I6        1.0  0.73652  0.99856  0.03292  1.0000
  N   N1        1.0  0.06805  0.61841  0.04017  1.0000
  N   N2        1.0  0.93196  0.38159  0.95983  1.0000
  N   N3        1.0  0.04994  0.54217  0.23162  1.0000
  N   N4        1.0  0.95008  0.45783  0.76838  1.0000
  N   N5        1.0  0.02074  0.89768  0.62034  1.0000
  N   N6        1.0  0.97925  0.10233  0.37965  1.0000
  N   N7        1.0  0.99805  0.97476  0.75716  1.0000
  N   N8        1.0  0.00195  0.02524  0.24284  1.0000
  N   N9        1.0  0.63771  0.20708  0.73845  1.0000
  N   N10       1.0  0.36229  0.79292  0.26155  1.0000
  N   N11       1.0  0.57211  0.39614  0.66820  1.0000
  N   N12       1.0  0.42790  0.60386  0.33180  1.0000
