data_image0
_chemical_formula_structural       Cu6H36C18S6Br6N12
_chemical_formula_sum              "Cu6 H36 C18 S6 Br6 N12"
_cell_length_a       7.53235
_cell_length_b       11.8931
_cell_length_c       12.1269
_cell_angle_alpha    66.7025
_cell_angle_beta     75.1076
_cell_angle_gamma    87.5789

_space_group_name_H-M_alt    "P 1"
_space_group_IT_number       1

loop_
  _space_group_symop_operation_xyz
  'x, y, z'

loop_
  _atom_site_type_symbol
  _atom_site_label
  _atom_site_symmetry_multiplicity
  _atom_site_fract_x
  _atom_site_fract_y
  _atom_site_fract_z
  _atom_site_occupancy
  Cu  Cu1       1.0  0.54191  0.00770  0.09538  1.0000
  Cu  Cu2       1.0  0.45810  0.99231  0.90461  1.0000
  Cu  Cu3       1.0  0.35782  0.79480  0.26349  1.0000
  Cu  Cu4       1.0  0.64216  0.20520  0.73652  1.0000
  Cu  Cu5       1.0  0.54927  0.38021  0.95228  1.0000
  Cu  Cu6       1.0  0.45071  0.61979  0.04772  1.0000
  H   H1        1.0  0.86402  0.85467  0.06147  1.0000
  H   H2        1.0  0.13599  0.14534  0.93853  1.0000
  H   H3        1.0  0.95482  0.03560  0.68734  1.0000
  H   H4        1.0  0.04519  0.96440  0.31266  1.0000
  H   H5        1.0  0.02409  0.65737  0.41182  1.0000
  H   H6        1.0  0.97590  0.34263  0.58818  1.0000
  H   H7        1.0  0.07633  0.50208  0.16116  1.0000
  H   H8        1.0  0.92365  0.49793  0.83884  1.0000
  H   H9        1.0  0.44240  0.37299  0.20811  1.0000
  H   H10       1.0  0.55759  0.62700  0.79189  1.0000
  H   H11       1.0  0.35902  0.00209  0.35432  1.0000
  H   H12       1.0  0.64101  0.99790  0.64567  1.0000
  H   H13       1.0  0.94603  0.70419  0.95049  1.0000
  H   H14       1.0  0.05398  0.29582  0.04951  1.0000
  H   H15       1.0  0.15423  0.76442  0.95862  1.0000
  H   H16       1.0  0.84578  0.23558  0.04139  1.0000
  H   H17       1.0  0.22721  0.90154  0.74540  1.0000
  H   H18       1.0  0.77279  0.09846  0.25461  1.0000
  H   H19       1.0  0.06070  0.81050  0.72841  1.0000
  H   H20       1.0  0.93930  0.18950  0.27159  1.0000
  H   H21       1.0  0.76482  0.47257  0.48627  1.0000
  H   H22       1.0  0.23517  0.52743  0.51373  1.0000
  H   H23       1.0  0.69557  0.62095  0.40006  1.0000
  H   H24       1.0  0.30441  0.37904  0.59994  1.0000
  H   H25       1.0  0.75739  0.58583  0.21366  1.0000
  H   H26       1.0  0.24259  0.41416  0.78635  1.0000
  H   H27       1.0  0.74641  0.42721  0.31422  1.0000
  H   H28       1.0  0.25358  0.57279  0.68578  1.0000
  H   H29       1.0  0.25802  0.30445  0.44353  1.0000
  H   H30       1.0  0.74199  0.69553  0.55648  1.0000
  H   H31       1.0  0.49632  0.27281  0.42672  1.0000
  H   H32       1.0  0.50368  0.72719  0.57328  1.0000
  H   H33       1.0  0.37529  0.06322  0.53838  1.0000
  H   H34       1.0  0.62474  0.93677  0.46162  1.0000
  H   H35       1.0  0.16426  0.09768  0.49285  1.0000
  H   H36       1.0  0.83577  0.90230  0.50715  1.0000
  C   C1        1.0  0.88243  0.96829  0.87870  1.0000
  C   C2        1.0  0.11758  0.03172  0.12130  1.0000
  C   C3        1.0  0.03196  0.78832  0.92284  1.0000
  C   C4        1.0  0.96805  0.21168  0.07716  1.0000
  C   C5        1.0  0.08333  0.86357  0.78041  1.0000
  C   C6        1.0  0.91667  0.13643  0.21959  1.0000
  C   C7        1.0  0.10338  0.57776  0.28376  1.0000
  C   C8        1.0  0.89661  0.42224  0.71624  1.0000
  C   C9        1.0  0.79794  0.55323  0.39712  1.0000
  C   C10       1.0  0.20205  0.44677  0.60288  1.0000
  C   C11       1.0  0.81392  0.51763  0.28617  1.0000
  C   C12       1.0  0.18607  0.48237  0.71383  1.0000
  C   C13       1.0  0.41469  0.18857  0.24715  1.0000
  C   C14       1.0  0.58532  0.81142  0.75284  1.0000
  C   C15       1.0  0.36740  0.25428  0.40791  1.0000
  C   C16       1.0  0.63260  0.74571  0.59209  1.0000
  C   C17       1.0  0.31500  0.11569  0.46149  1.0000
  C   C18       1.0  0.68502  0.88430  0.53851  1.0000
  S   S1        1.0  0.74978  0.08282  0.90136  1.0000
  S   S2        1.0  0.25023  0.91719  0.09864  1.0000
  S   S3        1.0  0.33774  0.61016  0.24222  1.0000
  S   S4        1.0  0.66225  0.38984  0.75777  1.0000
  S   S5        1.0  0.46527  0.19117  0.10128  1.0000
  S   S6        1.0  0.53474  0.80883  0.89871  1.0000
  Br  Br1       1.0  0.67767  0.85288  0.25035  1.0000
  Br  Br2       1.0  0.32233  0.14712  0.74964  1.0000
  Br  Br3       1.0  0.17389  0.79665  0.46576  1.0000
  Br  Br4       1.0  0.82612  0.20335  0.53424  1.0000
  Br  Br5       1.0  0.73054  0.49211  0.02989  1.0000
  Br  Br6       1.0  0.26945  0.50788  0.97012  1.0000
  N   N1        1.0  0.92635  0.87374  0.96970  1.0000
  N   N2        1.0  0.07366  0.12627  0.03030  1.0000
  N   N3        1.0  0.95865  0.96364  0.76827  1.0000
  N   N4        1.0  0.04136  0.03637  0.23173  1.0000
  N   N5        1.0  0.98407  0.60652  0.37004  1.0000
  N   N6        1.0  0.01591  0.39349  0.62995  1.0000
  N   N7        1.0  0.01406  0.51681  0.23964  1.0000
  N   N8        1.0  0.98593  0.48319  0.76036  1.0000
  N   N9        1.0  0.39221  0.28806  0.27454  1.0000
  N   N10       1.0  0.60778  0.71194  0.72546  1.0000
  N   N11       1.0  0.38982  0.08589  0.35261  1.0000
  N   N12       1.0  0.61019  0.91410  0.64739  1.0000
