data_image0
_chemical_formula_structural       Ag2H22C38S2N6O8F6
_chemical_formula_sum              "Ag2 H22 C38 S2 N6 O8 F6"
_cell_length_a       8.53133
_cell_length_b       10.8504
_cell_length_c       11.1791
_cell_angle_alpha    100.604
_cell_angle_beta     102.423
_cell_angle_gamma    105.928

_space_group_name_H-M_alt    "P 1"
_space_group_IT_number       1

loop_
  _space_group_symop_operation_xyz
  'x, y, z'

loop_
  _atom_site_type_symbol
  _atom_site_label
  _atom_site_symmetry_multiplicity
  _atom_site_fract_x
  _atom_site_fract_y
  _atom_site_fract_z
  _atom_site_occupancy
  Ag  Ag1       1.0  0.42831  0.61657  0.24822  1.0000
  Ag  Ag2       1.0  0.57169  0.38342  0.75178  1.0000
  H   H1        1.0  0.36165  0.55793  0.79523  1.0000
  H   H2        1.0  0.63835  0.44207  0.20477  1.0000
  H   H3        1.0  0.08563  0.73649  0.44395  1.0000
  H   H4        1.0  0.91437  0.26351  0.55604  1.0000
  H   H5        1.0  0.02119  0.57644  0.21346  1.0000
  H   H6        1.0  0.97880  0.42356  0.78654  1.0000
  H   H7        1.0  0.12993  0.37211  0.23486  1.0000
  H   H8        1.0  0.87007  0.62788  0.76514  1.0000
  H   H9        1.0  0.35608  0.31820  0.28663  1.0000
  H   H10       1.0  0.64392  0.68179  0.71336  1.0000
  H   H11       1.0  0.38711  0.10574  0.19427  1.0000
  H   H12       1.0  0.61289  0.89426  0.80573  1.0000
  H   H13       1.0  0.27432  0.95984  0.51136  1.0000
  H   H14       1.0  0.72568  0.04017  0.48865  1.0000
  H   H15       1.0  0.24333  0.17588  0.60451  1.0000
  H   H16       1.0  0.75667  0.82412  0.39549  1.0000
  H   H17       1.0  0.33917  0.72520  0.92961  1.0000
  H   H18       1.0  0.66083  0.27479  0.07039  1.0000
  H   H19       1.0  0.30061  0.96792  0.98902  1.0000
  H   H20       1.0  0.69939  0.03208  0.01098  1.0000
  H   H21       1.0  0.19730  0.02272  0.75990  1.0000
  H   H22       1.0  0.80271  0.97728  0.24010  1.0000
  C   C1        1.0  0.20153  0.59241  0.51265  1.0000
  C   C2        1.0  0.79847  0.40759  0.48735  1.0000
  C   C3        1.0  0.12074  0.64783  0.42334  1.0000
  C   C4        1.0  0.87925  0.35216  0.57666  1.0000
  C   C5        1.0  0.08827  0.56398  0.30237  1.0000
  C   C6        1.0  0.91172  0.43602  0.69763  1.0000
  C   C7        1.0  0.14821  0.45544  0.31277  1.0000
  C   C8        1.0  0.85179  0.54456  0.68723  1.0000
  C   C9        1.0  0.21840  0.46997  0.44290  1.0000
  C   C10       1.0  0.78160  0.53003  0.55710  1.0000
  C   C11       1.0  0.28764  0.39191  0.51197  1.0000
  C   C12       1.0  0.71237  0.60809  0.48803  1.0000
  C   C13       1.0  0.30046  0.26284  0.45334  1.0000
  C   C14       1.0  0.69954  0.73716  0.54666  1.0000
  C   C15       1.0  0.33721  0.24066  0.33636  1.0000
  C   C16       1.0  0.66279  0.75934  0.66364  1.0000
  C   C17       1.0  0.35461  0.12068  0.28363  1.0000
  C   C18       1.0  0.64539  0.87932  0.71637  1.0000
  C   C19       1.0  0.33399  0.01978  0.34743  1.0000
  C   C20       1.0  0.66602  0.98022  0.65257  1.0000
  C   C21       1.0  0.35493  0.89821  0.29469  1.0000
  C   C22       1.0  0.64508  0.10179  0.70531  1.0000
  C   C23       1.0  0.29218  0.03915  0.46322  1.0000
  C   C24       1.0  0.70782  0.96085  0.53679  1.0000
  C   C25       1.0  0.27546  0.15980  0.51494  1.0000
  C   C26       1.0  0.72453  0.84020  0.48506  1.0000
  C   C27       1.0  0.25736  0.62518  0.64512  1.0000
  C   C28       1.0  0.74264  0.37482  0.35487  1.0000
  C   C29       1.0  0.25622  0.74021  0.73267  1.0000
  C   C30       1.0  0.74378  0.25979  0.26733  1.0000
  C   C31       1.0  0.29894  0.77977  0.86333  1.0000
  C   C32       1.0  0.70106  0.22023  0.13666  1.0000
  C   C33       1.0  0.27913  0.90678  0.89500  1.0000
  C   C34       1.0  0.72087  0.09322  0.10500  1.0000
  C   C35       1.0  0.22620  0.93738  0.78311  1.0000
  C   C36       1.0  0.77380  0.06262  0.21689  1.0000
  C   C37       1.0  0.08574  0.23645  0.93745  1.0000
  C   C38       1.0  0.91426  0.76355  0.06255  1.0000
  S   S1        1.0  0.30279  0.35684  0.97115  1.0000
  S   S2        1.0  0.69721  0.64316  0.02885  1.0000
  N   N1        1.0  0.37151  0.79788  0.25143  1.0000
  N   N2        1.0  0.62850  0.20213  0.74858  1.0000
  N   N3        1.0  0.34200  0.42954  0.63911  1.0000
  N   N4        1.0  0.65800  0.57046  0.36089  1.0000
  N   N5        1.0  0.32275  0.54129  0.69869  1.0000
  N   N6        1.0  0.67725  0.45871  0.30131  1.0000
  O   O1        1.0  0.21135  0.83706  0.68270  1.0000
  O   O2        1.0  0.78865  0.16294  0.31730  1.0000
  O   O3        1.0  0.36524  0.38971  0.11032  1.0000
  O   O4        1.0  0.63476  0.61029  0.88968  1.0000
  O   O5        1.0  0.38751  0.27913  0.90466  1.0000
  O   O6        1.0  0.61249  0.72087  0.09534  1.0000
  O   O7        1.0  0.27240  0.46608  0.92211  1.0000
  O   O8        1.0  0.72760  0.53392  0.07789  1.0000
  F   F1        1.0  0.98021  0.29529  0.98010  1.0000
  F   F2        1.0  0.01979  0.70471  0.01990  1.0000
  F   F3        1.0  0.01879  0.18296  0.80976  1.0000
  F   F4        1.0  0.98121  0.81704  0.19025  1.0000
  F   F5        1.0  0.08947  0.13514  0.99237  1.0000
  F   F6        1.0  0.91052  0.86486  0.00763  1.0000
