data_image0
_chemical_formula_structural       H12Pb2C16O14F8
_chemical_formula_sum              "H12 Pb2 C16 O14 F8"
_cell_length_a       7.38941
_cell_length_b       8.38903
_cell_length_c       10.6425
_cell_angle_alpha    77.886
_cell_angle_beta     74.038
_cell_angle_gamma    66.7802

_space_group_name_H-M_alt    "P 1"
_space_group_IT_number       1

loop_
  _space_group_symop_operation_xyz
  'x, y, z'

loop_
  _atom_site_type_symbol
  _atom_site_label
  _atom_site_symmetry_multiplicity
  _atom_site_fract_x
  _atom_site_fract_y
  _atom_site_fract_z
  _atom_site_occupancy
  H   H1        1.0  0.07586  0.13933  0.76517  1.0000
  H   H2        1.0  0.92413  0.86067  0.23483  1.0000
  H   H3        1.0  0.97773  0.22819  0.63942  1.0000
  H   H4        1.0  0.02226  0.77181  0.36058  1.0000
  H   H5        1.0  0.23623  0.53699  0.47362  1.0000
  H   H6        1.0  0.76376  0.46301  0.52638  1.0000
  H   H7        1.0  0.34413  0.61555  0.34471  1.0000
  H   H8        1.0  0.65587  0.38445  0.65529  1.0000
  H   H9        1.0  0.63497  0.61253  0.36594  1.0000
  H   H10       1.0  0.36503  0.38747  0.63407  1.0000
  H   H11       1.0  0.73164  0.73618  0.39589  1.0000
  H   H12       1.0  0.26835  0.26382  0.60412  1.0000
  Pb  Pb1       1.0  0.28909  0.84745  0.57601  1.0000
  Pb  Pb2       1.0  0.71091  0.15255  0.42399  1.0000
  C   C1        1.0  0.71750  0.88228  0.67396  1.0000
  C   C2        1.0  0.28250  0.11772  0.32604  1.0000
  C   C3        1.0  0.70321  0.76474  0.80187  1.0000
  C   C4        1.0  0.29679  0.23526  0.19813  1.0000
  C   C5        1.0  0.84455  0.59666  0.81396  1.0000
  C   C6        1.0  0.15546  0.40334  0.18604  1.0000
  C   C7        1.0  0.83525  0.48376  0.92956  1.0000
  C   C8        1.0  0.16475  0.51624  0.07044  1.0000
  C   C9        1.0  0.68462  0.53660  0.04235  1.0000
  C   C10       1.0  0.31539  0.46340  0.95765  1.0000
  C   C11       1.0  0.54127  0.70593  0.02878  1.0000
  C   C12       1.0  0.45873  0.29407  0.97122  1.0000
  C   C13       1.0  0.54863  0.81620  0.91126  1.0000
  C   C14       1.0  0.45137  0.18380  0.08874  1.0000
  C   C15       1.0  0.68027  0.41691  0.17001  1.0000
  C   C16       1.0  0.31974  0.58308  0.82998  1.0000
  O   O1        1.0  0.87449  0.91976  0.62913  1.0000
  O   O2        1.0  0.12551  0.08024  0.37087  1.0000
  O   O3        1.0  0.56800  0.93811  0.61887  1.0000
  O   O4        1.0  0.43199  0.06189  0.38113  1.0000
  O   O5        1.0  0.10778  0.15269  0.66923  1.0000
  O   O6        1.0  0.89221  0.84732  0.33077  1.0000
  O   O7        1.0  0.22257  0.65043  0.41660  1.0000
  O   O8        1.0  0.77743  0.34957  0.58341  1.0000
  O   O9        1.0  0.64795  0.66246  0.43839  1.0000
  O   O10       1.0  0.35205  0.33754  0.56161  1.0000
  O   O11       1.0  0.76658  0.25506  0.16558  1.0000
  O   O12       1.0  0.23342  0.74494  0.83442  1.0000
  O   O13       1.0  0.58982  0.48705  0.27750  1.0000
  O   O14       1.0  0.41018  0.51295  0.72250  1.0000
  F   F1        1.0  0.99439  0.53935  0.70869  1.0000
  F   F2        1.0  0.00561  0.46065  0.29131  1.0000
  F   F3        1.0  0.98037  0.32248  0.92970  1.0000
  F   F4        1.0  0.01964  0.67752  0.07030  1.0000
  F   F5        1.0  0.38403  0.76733  0.12934  1.0000
  F   F6        1.0  0.61597  0.23267  0.87067  1.0000
  F   F7        1.0  0.40337  0.97626  0.90511  1.0000
  F   F8        1.0  0.59663  0.02374  0.09489  1.0000
