data_image0
_chemical_formula_structural       CoH8C8O8F4
_chemical_formula_sum              "Co1 H8 C8 O8 F4"
_cell_length_a       5.11064
_cell_length_b       6.49233
_cell_length_c       9.22709
_cell_angle_alpha    73.256
_cell_angle_beta     88.73
_cell_angle_gamma    73.9367

_space_group_name_H-M_alt    "P 1"
_space_group_IT_number       1

loop_
  _space_group_symop_operation_xyz
  'x, y, z'

loop_
  _atom_site_type_symbol
  _atom_site_label
  _atom_site_symmetry_multiplicity
  _atom_site_fract_x
  _atom_site_fract_y
  _atom_site_fract_z
  _atom_site_occupancy
  Co  Co1       1.0  0.99999  0.00001  1.00000  1.0000
  H   H1        1.0  0.32162  0.65563  0.92710  1.0000
  H   H2        1.0  0.67835  0.34438  0.07288  1.0000
  H   H3        1.0  0.18633  0.59070  0.08451  1.0000
  H   H4        1.0  0.81366  0.40932  0.91549  1.0000
  H   H5        1.0  0.84793  0.82168  0.79699  1.0000
  H   H6        1.0  0.15205  0.17833  0.20301  1.0000
  H   H7        1.0  0.58318  0.00592  0.82747  1.0000
  H   H8        1.0  0.41681  0.99409  0.17253  1.0000
  C   C1        1.0  0.18382  0.36533  0.76264  1.0000
  C   C2        1.0  0.81616  0.63470  0.23737  1.0000
  C   C3        1.0  0.34275  0.43639  0.62650  1.0000
  C   C4        1.0  0.65728  0.56359  0.37351  1.0000
  C   C5        1.0  0.46156  0.61095  0.60824  1.0000
  C   C6        1.0  0.53850  0.38904  0.39176  1.0000
  C   C7        1.0  0.61830  0.67163  0.48662  1.0000
  C   C8        1.0  0.38171  0.32836  0.51340  1.0000
  O   O1        1.0  0.23713  0.15547  0.82819  1.0000
  O   O2        1.0  0.76285  0.84451  0.17182  1.0000
  O   O3        1.0  0.00940  0.51833  0.80111  1.0000
  O   O4        1.0  0.99063  0.48165  0.19888  1.0000
  O   O5        1.0  0.29187  0.69326  0.02237  1.0000
  O   O6        1.0  0.70812  0.30674  0.97762  1.0000
  O   O7        1.0  0.78562  0.95884  0.82848  1.0000
  O   O8        1.0  0.21435  0.04118  0.17152  1.0000
  F   F1        1.0  0.43058  0.72468  0.71290  1.0000
  F   F2        1.0  0.56946  0.27529  0.28711  1.0000
  F   F3        1.0  0.74014  0.83297  0.48202  1.0000
  F   F4        1.0  0.25988  0.16702  0.51799  1.0000
