data_image0
_chemical_formula_structural       ZnH8C8O8F4
_chemical_formula_sum              "Zn1 H8 C8 O8 F4"
_cell_length_a       5.1167
_cell_length_b       6.5668
_cell_length_c       9.18675
_cell_angle_alpha    73.8085
_cell_angle_beta     88.4135
_cell_angle_gamma    73.2615

_space_group_name_H-M_alt    "P 1"
_space_group_IT_number       1

loop_
  _space_group_symop_operation_xyz
  'x, y, z'

loop_
  _atom_site_type_symbol
  _atom_site_label
  _atom_site_symmetry_multiplicity
  _atom_site_fract_x
  _atom_site_fract_y
  _atom_site_fract_z
  _atom_site_occupancy
  Zn  Zn1       1.0  0.00000  1.00000  0.00000  1.0000
  H   H1        1.0  0.32032  0.65794  0.92663  1.0000
  H   H2        1.0  0.67968  0.34204  0.07338  1.0000
  H   H3        1.0  0.18593  0.59325  0.08456  1.0000
  H   H4        1.0  0.81406  0.40674  0.91544  1.0000
  H   H5        1.0  0.84530  0.82027  0.79656  1.0000
  H   H6        1.0  0.15471  0.17972  0.20345  1.0000
  H   H7        1.0  0.58631  0.01358  0.82086  1.0000
  H   H8        1.0  0.41370  0.98641  0.17915  1.0000
  C   C1        1.0  0.18314  0.36865  0.76289  1.0000
  C   C2        1.0  0.81686  0.63133  0.23711  1.0000
  C   C3        1.0  0.34136  0.43931  0.62633  1.0000
  C   C4        1.0  0.65864  0.56075  0.37368  1.0000
  C   C5        1.0  0.45711  0.61229  0.60825  1.0000
  C   C6        1.0  0.54284  0.38769  0.39177  1.0000
  C   C7        1.0  0.61520  0.67024  0.48669  1.0000
  C   C8        1.0  0.38482  0.32977  0.51328  1.0000
  O   O1        1.0  0.23998  0.16167  0.82735  1.0000
  O   O2        1.0  0.76003  0.83834  0.17264  1.0000
  O   O3        1.0  0.00477  0.51944  0.80269  1.0000
  O   O4        1.0  0.99521  0.48056  0.19731  1.0000
  O   O5        1.0  0.29204  0.69422  0.02306  1.0000
  O   O6        1.0  0.70796  0.30577  0.97694  1.0000
  O   O7        1.0  0.78874  0.96388  0.81932  1.0000
  O   O8        1.0  0.21127  0.03610  0.18068  1.0000
  F   F1        1.0  0.42224  0.72710  0.71296  1.0000
  F   F2        1.0  0.57777  0.27291  0.28703  1.0000
  F   F3        1.0  0.73360  0.83055  0.48196  1.0000
  F   F4        1.0  0.26640  0.16946  0.51804  1.0000
