data_image0
_chemical_formula_structural       Cu4H20C28N12
_chemical_formula_sum              "Cu4 H20 C28 N12"
_cell_length_a       7.88834
_cell_length_b       7.83435
_cell_length_c       13.1151
_cell_angle_alpha    90.0027
_cell_angle_beta     89.9979
_cell_angle_gamma    111.67

_space_group_name_H-M_alt    "P 1"
_space_group_IT_number       1

loop_
  _space_group_symop_operation_xyz
  'x, y, z'

loop_
  _atom_site_type_symbol
  _atom_site_label
  _atom_site_symmetry_multiplicity
  _atom_site_fract_x
  _atom_site_fract_y
  _atom_site_fract_z
  _atom_site_occupancy
  Cu  Cu1       1.0  0.50000  0.50002  0.75064  1.0000
  Cu  Cu2       1.0  0.50000  0.49996  0.24935  1.0000
  Cu  Cu3       1.0  0.49999  0.99998  0.50000  1.0000
  Cu  Cu4       1.0  0.00001  0.50000  1.00000  1.0000
  H   H1        1.0  0.79152  0.14816  0.65754  1.0000
  H   H2        1.0  0.20843  0.85183  0.65752  1.0000
  H   H3        1.0  0.85052  0.21208  0.84264  1.0000
  H   H4        1.0  0.14941  0.78788  0.84262  1.0000
  H   H5        1.0  0.20850  0.85185  0.34246  1.0000
  H   H6        1.0  0.79155  0.14817  0.34248  1.0000
  H   H7        1.0  0.14950  0.78794  0.15739  1.0000
  H   H8        1.0  0.85057  0.21212  0.15740  1.0000
  H   H9        1.0  0.12800  0.33540  0.66481  1.0000
  H   H10       1.0  0.87194  0.66458  0.66481  1.0000
  H   H11       1.0  0.66273  0.87342  0.83527  1.0000
  H   H12       1.0  0.33722  0.12661  0.83527  1.0000
  H   H13       1.0  0.87206  0.66464  0.33515  1.0000
  H   H14       1.0  0.12801  0.33537  0.33515  1.0000
  H   H15       1.0  0.33727  0.12658  0.16477  1.0000
  H   H16       1.0  0.66278  0.87341  0.16478  1.0000
  H   H17       1.0  0.29916  0.43162  0.49996  1.0000
  H   H18       1.0  0.70083  0.56837  0.49996  1.0000
  H   H19       1.0  0.56651  0.70126  0.00003  1.0000
  H   H20       1.0  0.43348  0.29874  0.00002  1.0000
  C   C1        1.0  0.48144  0.29495  0.66276  1.0000
  C   C2        1.0  0.51853  0.70504  0.66278  1.0000
  C   C3        1.0  0.70212  0.52070  0.83898  1.0000
  C   C4        1.0  0.29792  0.47924  0.83898  1.0000
  C   C5        1.0  0.51854  0.70504  0.33722  1.0000
  C   C6        1.0  0.48149  0.29495  0.33722  1.0000
  C   C7        1.0  0.29788  0.47930  0.16102  1.0000
  C   C8        1.0  0.70208  0.52074  0.16101  1.0000
  C   C9        1.0  0.87293  0.19308  0.58865  1.0000
  C   C10       1.0  0.12702  0.80690  0.58863  1.0000
  C   C11       1.0  0.80521  0.12998  0.91140  1.0000
  C   C12       1.0  0.19476  0.87001  0.91138  1.0000
  C   C13       1.0  0.12709  0.80690  0.41134  1.0000
  C   C14       1.0  0.87295  0.19311  0.41136  1.0000
  C   C15       1.0  0.19479  0.87002  0.08864  1.0000
  C   C16       1.0  0.80523  0.13000  0.08865  1.0000
  C   C17       1.0  0.05901  0.29684  0.59160  1.0000
  C   C18       1.0  0.94095  0.70316  0.59161  1.0000
  C   C19       1.0  0.70120  0.94289  0.90844  1.0000
  C   C20       1.0  0.29877  0.05710  0.90841  1.0000
  C   C21       1.0  0.94102  0.70315  0.40837  1.0000
  C   C22       1.0  0.05902  0.29686  0.40837  1.0000
  C   C23       1.0  0.29880  0.05711  0.09160  1.0000
  C   C24       1.0  0.70123  0.94291  0.09162  1.0000
  C   C25       1.0  0.15356  0.35006  0.49998  1.0000
  C   C26       1.0  0.84643  0.64994  0.49997  1.0000
  C   C27       1.0  0.64799  0.84778  0.00002  1.0000
  C   C28       1.0  0.35201  0.15223  0.00002  1.0000
  N   N1        1.0  0.47480  0.17385  0.60810  1.0000
  N   N2        1.0  0.52520  0.82615  0.60812  1.0000
  N   N3        1.0  0.82848  0.53207  0.88992  1.0000
  N   N4        1.0  0.17159  0.46794  0.88990  1.0000
  N   N5        1.0  0.52519  0.82613  0.39188  1.0000
  N   N6        1.0  0.47483  0.17388  0.39188  1.0000
  N   N7        1.0  0.17156  0.46794  0.11006  1.0000
  N   N8        1.0  0.82840  0.53205  0.11008  1.0000
  N   N9        1.0  0.78320  0.14379  0.50000  1.0000
  N   N10       1.0  0.21681  0.85620  0.50000  1.0000
  N   N11       1.0  0.85457  0.22033  0.00003  1.0000
  N   N12       1.0  0.14544  0.77967  1.00000  1.0000
