data_image0
_chemical_formula_structural       CdH42C46S2N8O6
_chemical_formula_sum              "Cd1 H42 C46 S2 N8 O6"
_cell_length_a       9.15556
_cell_length_b       10.492
_cell_length_c       11.4255
_cell_angle_alpha    95.3647
_cell_angle_beta     90.9514
_cell_angle_gamma    96.0877

_space_group_name_H-M_alt    "P 1"
_space_group_IT_number       1

loop_
  _space_group_symop_operation_xyz
  'x, y, z'

loop_
  _atom_site_type_symbol
  _atom_site_label
  _atom_site_symmetry_multiplicity
  _atom_site_fract_x
  _atom_site_fract_y
  _atom_site_fract_z
  _atom_site_occupancy
  Cd  Cd1       1.0  1.00000  0.00000  0.50000  1.0000
  H   H1        1.0  0.69660  0.17964  0.08297  1.0000
  H   H2        1.0  0.30340  0.82037  0.91703  1.0000
  H   H3        1.0  0.64167  0.05089  0.88887  1.0000
  H   H4        1.0  0.35833  0.94911  0.11113  1.0000
  H   H5        1.0  0.82116  0.91393  0.80221  1.0000
  H   H6        1.0  0.17884  0.08607  0.19779  1.0000
  H   H7        1.0  0.76137  0.19805  0.54487  1.0000
  H   H8        1.0  0.23862  0.80194  0.45514  1.0000
  H   H9        1.0  0.51049  0.21239  0.62768  1.0000
  H   H10       1.0  0.48951  0.78761  0.37232  1.0000
  H   H11       1.0  0.37901  0.01801  0.70635  1.0000
  H   H12       1.0  0.62099  0.98198  0.29365  1.0000
  H   H13       1.0  0.74914  0.81274  0.60196  1.0000
  H   H14       1.0  0.25086  0.18725  0.39805  1.0000
  H   H15       1.0  0.49990  0.62337  0.78849  1.0000
  H   H16       1.0  0.50010  0.37662  0.21151  1.0000
  H   H17       1.0  0.66983  0.68935  0.73866  1.0000
  H   H18       1.0  0.33017  0.31065  0.26135  1.0000
  H   H19       1.0  0.72286  0.49299  0.62551  1.0000
  H   H20       1.0  0.27715  0.50701  0.37449  1.0000
  H   H21       1.0  0.32353  0.65700  0.55625  1.0000
  H   H22       1.0  0.67648  0.34300  0.44375  1.0000
  H   H23       1.0  0.08263  0.10563  0.76065  1.0000
  H   H24       1.0  0.91737  0.89437  0.23935  1.0000
  H   H25       1.0  0.14065  0.52353  0.80745  1.0000
  H   H26       1.0  0.85935  0.47647  0.19255  1.0000
  H   H27       1.0  0.09385  0.52122  0.59569  1.0000
  H   H28       1.0  0.90615  0.47878  0.40431  1.0000
  H   H29       1.0  0.04654  0.30988  0.46983  1.0000
  H   H30       1.0  0.95346  0.69012  0.53017  1.0000
  H   H31       1.0  0.16037  0.38600  0.09482  1.0000
  H   H32       1.0  0.83964  0.61400  0.90518  1.0000
  H   H33       1.0  0.12255  0.49697  0.99519  1.0000
  H   H34       1.0  0.87744  0.50303  0.00481  1.0000
  H   H35       1.0  0.40314  0.28840  0.89670  1.0000
  H   H36       1.0  0.59686  0.71160  0.10330  1.0000
  H   H37       1.0  0.33035  0.63917  0.10374  1.0000
  H   H38       1.0  0.66965  0.36083  0.89626  1.0000
  H   H39       1.0  0.38107  0.79222  0.73062  1.0000
  H   H40       1.0  0.61893  0.20777  0.26938  1.0000
  H   H41       1.0  0.12788  0.21758  0.95173  1.0000
  H   H42       1.0  0.87212  0.78242  0.04827  1.0000
  C   C1        1.0  0.01636  0.03684  0.05606  1.0000
  C   C2        1.0  0.98364  0.96316  0.94394  1.0000
  C   C3        1.0  0.90792  0.11400  0.10424  1.0000
  C   C4        1.0  0.09208  0.88600  0.89575  1.0000
  C   C5        1.0  0.77644  0.11913  0.04476  1.0000
  C   C6        1.0  0.22356  0.88088  0.95523  1.0000
  C   C7        1.0  0.74573  0.04643  0.93533  1.0000
  C   C8        1.0  0.25427  0.95357  0.06467  1.0000
  C   C9        1.0  0.84633  0.96995  0.88630  1.0000
  C   C10       1.0  0.15367  0.03005  0.11370  1.0000
  C   C11       1.0  0.69964  0.11543  0.57856  1.0000
  C   C12       1.0  0.30035  0.88457  0.42144  1.0000
  C   C13       1.0  0.56062  0.12251  0.62601  1.0000
  C   C14       1.0  0.43938  0.87749  0.37399  1.0000
  C   C15       1.0  0.48816  0.01498  0.66971  1.0000
  C   C16       1.0  0.51183  0.98502  0.33029  1.0000
  C   C17       1.0  0.55599  0.89940  0.66666  1.0000
  C   C18       1.0  0.44401  0.10060  0.33334  1.0000
  C   C19       1.0  0.69321  0.89954  0.61174  1.0000
  C   C20       1.0  0.30679  0.10045  0.38826  1.0000
  C   C21       1.0  0.55159  0.67327  0.71652  1.0000
  C   C22       1.0  0.44841  0.32673  0.28348  1.0000
  C   C23       1.0  0.52619  0.58586  0.60284  1.0000
  C   C24       1.0  0.47381  0.41414  0.39716  1.0000
  C   C25       1.0  0.62418  0.49567  0.57099  1.0000
  C   C26       1.0  0.37582  0.50433  0.42901  1.0000
  C   C27       1.0  0.40196  0.58900  0.53058  1.0000
  C   C28       1.0  0.59804  0.41100  0.46942  1.0000
  C   C29       1.0  0.08554  0.20015  0.72776  1.0000
  C   C30       1.0  0.91446  0.79985  0.27224  1.0000
  C   C31       1.0  0.11229  0.31375  0.80510  1.0000
  C   C32       1.0  0.88771  0.68625  0.19491  1.0000
  C   C33       1.0  0.11680  0.43157  0.75484  1.0000
  C   C34       1.0  0.88320  0.56843  0.24516  1.0000
  C   C35       1.0  0.09094  0.43032  0.63461  1.0000
  C   C36       1.0  0.90906  0.56968  0.36539  1.0000
  C   C37       1.0  0.06414  0.31394  0.56466  1.0000
  C   C38       1.0  0.93587  0.68606  0.43534  1.0000
  C   C39       1.0  0.18502  0.41444  0.00631  1.0000
  C   C40       1.0  0.81498  0.58556  0.99369  1.0000
  C   C41       1.0  0.34795  0.45852  0.00017  1.0000
  C   C42       1.0  0.65205  0.54148  0.99983  1.0000
  C   C43       1.0  0.44530  0.38142  0.94227  1.0000
  C   C44       1.0  0.55470  0.61858  0.05773  1.0000
  C   C45       1.0  0.40458  0.57774  0.05767  1.0000
  C   C46       1.0  0.59542  0.42226  0.94233  1.0000
  S   S1        1.0  0.93560  0.20135  0.24659  1.0000
  S   S2        1.0  0.06440  0.79865  0.75341  1.0000
  N   N1        1.0  0.76243  0.00517  0.57112  1.0000
  N   N2        1.0  0.23757  0.99483  0.42888  1.0000
  N   N3        1.0  0.49195  0.79613  0.71815  1.0000
  N   N4        1.0  0.50805  0.20386  0.28185  1.0000
  N   N5        1.0  0.06242  0.20071  0.61183  1.0000
  N   N6        1.0  0.93758  0.79929  0.38817  1.0000
  N   N7        1.0  0.13032  0.30652  0.92357  1.0000
  N   N8        1.0  0.86968  0.69348  0.07643  1.0000
  O   O1        1.0  0.93484  0.09912  0.32735  1.0000
  O   O2        1.0  0.06515  0.90087  0.67265  1.0000
  O   O3        1.0  0.80918  0.27524  0.26287  1.0000
  O   O4        1.0  0.19081  0.72476  0.73713  1.0000
  O   O5        1.0  0.07602  0.28226  0.24776  1.0000
  O   O6        1.0  0.92398  0.71774  0.75224  1.0000
