data_image0
_chemical_formula_structural       CdH28C32S2N6O6
_chemical_formula_sum              "Cd1 H28 C32 S2 N6 O6"
_cell_length_a       8.71542
_cell_length_b       8.90723
_cell_length_c       11.1581
_cell_angle_alpha    64.9622
_cell_angle_beta     85.0151
_cell_angle_gamma    74.5421

_space_group_name_H-M_alt    "P 1"
_space_group_IT_number       1

loop_
  _space_group_symop_operation_xyz
  'x, y, z'

loop_
  _atom_site_type_symbol
  _atom_site_label
  _atom_site_symmetry_multiplicity
  _atom_site_fract_x
  _atom_site_fract_y
  _atom_site_fract_z
  _atom_site_occupancy
  Cd  Cd1       1.0  0.50000  0.00000  1.00000  1.0000
  H   H1        1.0  0.44828  0.24193  0.68866  1.0000
  H   H2        1.0  0.55171  0.75808  0.31133  1.0000
  H   H3        1.0  0.25356  0.50332  0.52718  1.0000
  H   H4        1.0  0.74643  0.49668  0.47282  1.0000
  H   H5        1.0  0.99448  0.61683  0.61126  1.0000
  H   H6        1.0  0.00552  0.38317  0.38874  1.0000
  H   H7        1.0  0.12442  0.18767  0.98916  1.0000
  H   H8        1.0  0.87558  0.81233  0.01084  1.0000
  H   H9        1.0  0.89881  0.40292  0.97719  1.0000
  H   H10       1.0  0.10119  0.59708  0.02282  1.0000
  H   H11       1.0  0.90571  0.61190  0.86167  1.0000
  H   H12       1.0  0.09429  0.38810  0.13833  1.0000
  H   H13       1.0  0.45849  0.54807  0.71743  1.0000
  H   H14       1.0  0.54151  0.45193  0.28257  1.0000
  H   H15       1.0  0.20785  0.72624  0.76469  1.0000
  H   H16       1.0  0.79215  0.27376  0.23531  1.0000
  H   H17       1.0  0.21999  0.88642  0.90028  1.0000
  H   H18       1.0  0.78000  0.11359  0.09972  1.0000
  H   H19       1.0  0.70872  0.68638  0.95713  1.0000
  H   H20       1.0  0.29128  0.31363  0.04287  1.0000
  H   H21       1.0  0.62891  0.95125  0.66261  1.0000
  H   H22       1.0  0.37110  0.04874  0.33740  1.0000
  H   H23       1.0  0.09836  0.14220  0.65080  1.0000
  H   H24       1.0  0.90164  0.85781  0.34920  1.0000
  H   H25       1.0  0.33821  0.15391  0.51520  1.0000
  H   H26       1.0  0.66179  0.84609  0.48481  1.0000
  H   H27       1.0  0.74822  0.42912  0.76348  1.0000
  H   H28       1.0  0.25178  0.57088  0.23652  1.0000
  C   C1        1.0  0.32995  0.29216  0.71784  1.0000
  C   C2        1.0  0.67004  0.70784  0.28216  1.0000
  C   C3        1.0  0.22319  0.43717  0.62987  1.0000
  C   C4        1.0  0.77680  0.56282  0.37013  1.0000
  C   C5        1.0  0.07827  0.50059  0.67671  1.0000
  C   C6        1.0  0.92173  0.49941  0.32328  1.0000
  C   C7        1.0  0.04203  0.41513  0.80897  1.0000
  C   C8        1.0  0.95797  0.58487  0.19103  1.0000
  C   C9        1.0  0.15196  0.26505  0.88778  1.0000
  C   C10       1.0  0.84804  0.73495  0.11221  1.0000
  C   C11       1.0  0.89644  0.48646  0.87009  1.0000
  C   C12       1.0  0.10356  0.51354  0.12992  1.0000
  C   C13       1.0  0.60768  0.60193  0.83242  1.0000
  C   C14       1.0  0.39232  0.39808  0.16758  1.0000
  C   C15       1.0  0.46090  0.61515  0.77912  1.0000
  C   C16       1.0  0.53911  0.38485  0.22088  1.0000
  C   C17       1.0  0.32180  0.71444  0.80545  1.0000
  C   C18       1.0  0.67820  0.28556  0.19455  1.0000
  C   C19       1.0  0.32714  0.80373  0.88166  1.0000
  C   C20       1.0  0.67286  0.19628  0.11833  1.0000
  C   C21       1.0  0.60098  0.69220  0.91146  1.0000
  C   C22       1.0  0.39902  0.30780  0.08854  1.0000
  C   C23       1.0  0.73405  0.95738  0.60231  1.0000
  C   C24       1.0  0.26595  0.04262  0.39769  1.0000
  C   C25       1.0  0.84922  0.02260  0.62634  1.0000
  C   C26       1.0  0.15079  0.97740  0.37366  1.0000
  C   C27       1.0  0.99082  0.03071  0.55119  1.0000
  C   C28       1.0  0.00919  0.96928  0.44882  1.0000
  C   C29       1.0  0.11225  0.09664  0.57317  1.0000
  C   C30       1.0  0.88776  0.90336  0.42683  1.0000
  C   C31       1.0  0.24621  0.10249  0.49783  1.0000
  C   C32       1.0  0.75379  0.89751  0.50217  1.0000
  S   S1        1.0  0.81369  0.10234  0.75189  1.0000
  S   S2        1.0  0.18631  0.89766  0.24811  1.0000
  N   N1        1.0  0.29473  0.20677  0.84465  1.0000
  N   N2        1.0  0.70526  0.79324  0.15535  1.0000
  N   N3        1.0  0.74902  0.51173  0.80552  1.0000
  N   N4        1.0  0.25098  0.48826  0.19448  1.0000
  N   N5        1.0  0.46629  0.79213  0.93248  1.0000
  N   N6        1.0  0.53370  0.20788  0.06752  1.0000
  O   O1        1.0  0.66971  0.05032  0.81720  1.0000
  O   O2        1.0  0.33029  0.94967  0.18280  1.0000
  O   O3        1.0  0.78341  0.28964  0.67905  1.0000
  O   O4        1.0  0.21660  0.71036  0.32094  1.0000
  O   O5        1.0  0.95375  0.02241  0.84088  1.0000
  O   O6        1.0  0.04625  0.97760  0.15912  1.0000
