data_image0
_chemical_formula_structural       Zn2H18C28N2O6
_chemical_formula_sum              "Zn2 H18 C28 N2 O6"
_cell_length_a       7.02693
_cell_length_b       9.46924
_cell_length_c       9.80014
_cell_angle_alpha    96.8378
_cell_angle_beta     90.0017
_cell_angle_gamma    90.0001

_space_group_name_H-M_alt    "P 1"
_space_group_IT_number       1

loop_
  _space_group_symop_operation_xyz
  'x, y, z'

loop_
  _atom_site_type_symbol
  _atom_site_label
  _atom_site_symmetry_multiplicity
  _atom_site_fract_x
  _atom_site_fract_y
  _atom_site_fract_z
  _atom_site_occupancy
  Zn  Zn1       1.0  0.88640  0.92553  0.30685  1.0000
  Zn  Zn2       1.0  0.38640  0.07448  0.69315  1.0000
  H   H1        1.0  0.87496  0.57619  0.95512  1.0000
  H   H2        1.0  0.37496  0.42381  0.04489  1.0000
  H   H3        1.0  0.90561  0.60058  0.70733  1.0000
  H   H4        1.0  0.40560  0.39940  0.29268  1.0000
  H   H5        1.0  0.97117  0.83976  0.63008  1.0000
  H   H6        1.0  0.47115  0.16022  0.36993  1.0000
  H   H7        1.0  0.98610  0.05186  0.80297  1.0000
  H   H8        1.0  0.48608  0.94813  0.19702  1.0000
  H   H9        1.0  0.99786  0.16058  0.01618  1.0000
  H   H10       1.0  0.49787  0.83942  0.98382  1.0000
  H   H11       1.0  0.10109  0.40166  0.57532  1.0000
  H   H12       1.0  0.60110  0.59834  0.42467  1.0000
  H   H13       1.0  0.99726  0.60977  0.46134  1.0000
  H   H14       1.0  0.49727  0.39024  0.53866  1.0000
  H   H15       1.0  0.85984  0.57130  0.22567  1.0000
  H   H16       1.0  0.35986  0.42870  0.77432  1.0000
  H   H17       1.0  0.81926  0.32536  0.10993  1.0000
  H   H18       1.0  0.31928  0.67463  0.89006  1.0000
  C   C1        1.0  0.94386  0.93707  0.97856  1.0000
  C   C2        1.0  0.44385  0.06293  0.02144  1.0000
  C   C3        1.0  0.91504  0.79887  0.02386  1.0000
  C   C4        1.0  0.41504  0.20113  0.97615  1.0000
  C   C5        1.0  0.90083  0.68000  0.92082  1.0000
  C   C6        1.0  0.40083  0.32000  0.07918  1.0000
  C   C7        1.0  0.91893  0.69453  0.78279  1.0000
  C   C8        1.0  0.41894  0.30546  0.21721  1.0000
  C   C9        1.0  0.95298  0.82865  0.73857  1.0000
  C   C10       1.0  0.45299  0.17134  0.26144  1.0000
  C   C11       1.0  0.96361  0.94660  0.83549  1.0000
  C   C12       1.0  0.46361  0.05339  0.16451  1.0000
  C   C13       1.0  0.95851  0.06759  0.06722  1.0000
  C   C14       1.0  0.45852  0.93241  0.93277  1.0000
  C   C15       1.0  0.94874  0.22477  0.27270  1.0000
  C   C16       1.0  0.44875  0.77523  0.72730  1.0000
  C   C17       1.0  0.02490  0.24587  0.40775  1.0000
  C   C18       1.0  0.52489  0.75414  0.59225  1.0000
  C   C19       1.0  0.03957  0.38618  0.47282  1.0000
  C   C20       1.0  0.53957  0.61383  0.52718  1.0000
  C   C21       1.0  0.98308  0.50226  0.40854  1.0000
  C   C22       1.0  0.48310  0.49774  0.59145  1.0000
  C   C23       1.0  0.90535  0.48048  0.27641  1.0000
  C   C24       1.0  0.40538  0.51953  0.72359  1.0000
  C   C25       1.0  0.88722  0.34295  0.21049  1.0000
  C   C26       1.0  0.38724  0.65706  0.78951  1.0000
  C   C27       1.0  0.10626  0.13119  0.48372  1.0000
  C   C28       1.0  0.60626  0.86882  0.51628  1.0000
  N   N1        1.0  0.93371  0.08734  0.20080  1.0000
  N   N2        1.0  0.43371  0.91267  0.79919  1.0000
  O   O1        1.0  0.90168  0.77631  0.15262  1.0000
  O   O2        1.0  0.40169  0.22369  0.84738  1.0000
  O   O3        1.0  0.07719  0.99857  0.45009  1.0000
  O   O4        1.0  0.57720  0.00144  0.54991  1.0000
  O   O5        1.0  0.20976  0.17621  0.58755  1.0000
  O   O6        1.0  0.70976  0.82381  0.41244  1.0000
