data_image0
_chemical_formula_structural       Zn4H36C48N8O16
_chemical_formula_sum              "Zn4 H36 C48 N8 O16"
_cell_length_a       10.4039
_cell_length_b       10.4039
_cell_length_c       11.1812
_cell_angle_alpha    96.1796
_cell_angle_beta     96.1796
_cell_angle_gamma    100.607

_space_group_name_H-M_alt    "P 1"
_space_group_IT_number       1

loop_
  _space_group_symop_operation_xyz
  'x, y, z'

loop_
  _atom_site_type_symbol
  _atom_site_label
  _atom_site_symmetry_multiplicity
  _atom_site_fract_x
  _atom_site_fract_y
  _atom_site_fract_z
  _atom_site_occupancy
  Zn  Zn1       1.0  0.57267  0.84650  0.81594  1.0000
  Zn  Zn2       1.0  0.15350  0.42733  0.68406  1.0000
  Zn  Zn3       1.0  0.42733  0.15350  0.18406  1.0000
  Zn  Zn4       1.0  0.84650  0.57267  0.31594  1.0000
  H   H1        1.0  0.55047  0.09660  0.67752  1.0000
  H   H2        1.0  0.90340  0.44953  0.82248  1.0000
  H   H3        1.0  0.44953  0.90340  0.32248  1.0000
  H   H4        1.0  0.09659  0.55047  0.17752  1.0000
  H   H5        1.0  0.67738  0.21844  0.53069  1.0000
  H   H6        1.0  0.78156  0.32262  0.96931  1.0000
  H   H7        1.0  0.32262  0.78156  0.46931  1.0000
  H   H8        1.0  0.21843  0.67738  0.03069  1.0000
  H   H9        1.0  0.89065  0.15623  0.48553  1.0000
  H   H10       1.0  0.84377  0.10934  0.01447  1.0000
  H   H11       1.0  0.10935  0.84377  0.51447  1.0000
  H   H12       1.0  0.15623  0.89066  0.98553  1.0000
  H   H13       1.0  0.95909  0.96302  0.57847  1.0000
  H   H14       1.0  0.03698  0.04091  0.92153  1.0000
  H   H15       1.0  0.04092  0.03698  0.42153  1.0000
  H   H16       1.0  0.96302  0.95909  0.07847  1.0000
  H   H17       1.0  0.91322  0.78401  0.70986  1.0000
  H   H18       1.0  0.21599  0.08678  0.79014  1.0000
  H   H19       1.0  0.08678  0.21599  0.29015  1.0000
  H   H20       1.0  0.78401  0.91322  0.20986  1.0000
  H   H21       1.0  0.77435  0.66864  0.95451  1.0000
  H   H22       1.0  0.33136  0.22565  0.54549  1.0000
  H   H23       1.0  0.22565  0.33136  0.04549  1.0000
  H   H24       1.0  0.66864  0.77435  0.45451  1.0000
  H   H25       1.0  0.87901  0.63910  0.84166  1.0000
  H   H26       1.0  0.36090  0.12099  0.65834  1.0000
  H   H27       1.0  0.12099  0.36090  0.15834  1.0000
  H   H28       1.0  0.63910  0.87901  0.34166  1.0000
  H   H29       1.0  0.70420  0.55628  0.61416  1.0000
  H   H30       1.0  0.44372  0.29580  0.88584  1.0000
  H   H31       1.0  0.29580  0.44372  0.38584  1.0000
  H   H32       1.0  0.55628  0.70420  0.11417  1.0000
  H   H33       1.0  0.62324  0.48057  0.97383  1.0000
  H   H34       1.0  0.51943  0.37676  0.52617  1.0000
  H   H35       1.0  0.37676  0.51943  0.02617  1.0000
  H   H36       1.0  0.48057  0.62324  0.47383  1.0000
  C   C1        1.0  0.64070  0.07010  0.65091  1.0000
  C   C2        1.0  0.92991  0.35930  0.84909  1.0000
  C   C3        1.0  0.35930  0.92990  0.34909  1.0000
  C   C4        1.0  0.07009  0.64070  0.15090  1.0000
  C   C5        1.0  0.71275  0.13828  0.57063  1.0000
  C   C6        1.0  0.86171  0.28725  0.92937  1.0000
  C   C7        1.0  0.28725  0.86171  0.42937  1.0000
  C   C8        1.0  0.13828  0.71275  0.07063  1.0000
  C   C9        1.0  0.82977  0.10138  0.54401  1.0000
  C   C10       1.0  0.89862  0.17023  0.95599  1.0000
  C   C11       1.0  0.17023  0.89862  0.45599  1.0000
  C   C12       1.0  0.10138  0.82977  0.04401  1.0000
  C   C13       1.0  0.86905  0.99655  0.59644  1.0000
  C   C14       1.0  0.00345  0.13095  0.90356  1.0000
  C   C15       1.0  0.13095  0.00345  0.40356  1.0000
  C   C16       1.0  0.99655  0.86905  0.09644  1.0000
  C   C17       1.0  0.79061  0.93265  0.67440  1.0000
  C   C18       1.0  0.06736  0.20938  0.82561  1.0000
  C   C19       1.0  0.20939  0.06735  0.32561  1.0000
  C   C20       1.0  0.93265  0.79062  0.17439  1.0000
  C   C21       1.0  0.82517  0.82113  0.73231  1.0000
  C   C22       1.0  0.17888  0.17483  0.76769  1.0000
  C   C23       1.0  0.17483  0.17888  0.26769  1.0000
  C   C24       1.0  0.82112  0.82517  0.23231  1.0000
  C   C25       1.0  0.77869  0.65222  0.85640  1.0000
  C   C26       1.0  0.34778  0.22131  0.64360  1.0000
  C   C27       1.0  0.22131  0.34778  0.14360  1.0000
  C   C28       1.0  0.65222  0.77869  0.35640  1.0000
  C   C29       1.0  0.67456  0.53299  0.80093  1.0000
  C   C30       1.0  0.46701  0.32544  0.69907  1.0000
  C   C31       1.0  0.32544  0.46701  0.19907  1.0000
  C   C32       1.0  0.53299  0.67456  0.30093  1.0000
  C   C33       1.0  0.64695  0.50098  0.67479  1.0000
  C   C34       1.0  0.49902  0.35305  0.82520  1.0000
  C   C35       1.0  0.35305  0.49902  0.32520  1.0000
  C   C36       1.0  0.50098  0.64695  0.17480  1.0000
  C   C37       1.0  0.60103  0.45749  0.87555  1.0000
  C   C38       1.0  0.54251  0.39897  0.62445  1.0000
  C   C39       1.0  0.39897  0.54251  0.12445  1.0000
  C   C40       1.0  0.45749  0.60103  0.37555  1.0000
  C   C41       1.0  0.55961  0.98849  0.04425  1.0000
  C   C42       1.0  0.01151  0.44039  0.45575  1.0000
  C   C43       1.0  0.44039  0.01151  0.95575  1.0000
  C   C44       1.0  0.98849  0.55961  0.54425  1.0000
  C   C45       1.0  0.36017  0.62806  0.81801  1.0000
  C   C46       1.0  0.37194  0.63983  0.68200  1.0000
  C   C47       1.0  0.63983  0.37194  0.18199  1.0000
  C   C48       1.0  0.62806  0.36017  0.31801  1.0000
  N   N1        1.0  0.67858  0.97024  0.70142  1.0000
  N   N2        1.0  0.02976  0.32142  0.79858  1.0000
  N   N3        1.0  0.32142  0.02976  0.29858  1.0000
  N   N4        1.0  0.97024  0.67858  0.20142  1.0000
  N   N5        1.0  0.74967  0.76758  0.80416  1.0000
  N   N6        1.0  0.23241  0.25033  0.69584  1.0000
  N   N7        1.0  0.25033  0.23242  0.19584  1.0000
  N   N8        1.0  0.76758  0.74967  0.30416  1.0000
  O   O1        1.0  0.64625  0.93566  0.99726  1.0000
  O   O2        1.0  0.06434  0.35375  0.50274  1.0000
  O   O3        1.0  0.35375  0.06434  0.00274  1.0000
  O   O4        1.0  0.93566  0.64625  0.49726  1.0000
  O   O5        1.0  0.56236  0.02432  0.15652  1.0000
  O   O6        1.0  0.97568  0.43764  0.34348  1.0000
  O   O7        1.0  0.43764  0.97568  0.84348  1.0000
  O   O8        1.0  0.02432  0.56236  0.65652  1.0000
  O   O9        1.0  0.44515  0.70475  0.89576  1.0000
  O   O10       1.0  0.29525  0.55485  0.60424  1.0000
  O   O11       1.0  0.55485  0.29525  0.10424  1.0000
  O   O12       1.0  0.70475  0.44515  0.39576  1.0000
  O   O13       1.0  0.26572  0.54260  0.84173  1.0000
  O   O14       1.0  0.45740  0.73428  0.65827  1.0000
  O   O15       1.0  0.73428  0.45740  0.15827  1.0000
  O   O16       1.0  0.54260  0.26572  0.34173  1.0000
