data_image0
_chemical_formula_structural       Cd2H44C48N8Cl4O12
_chemical_formula_sum              "Cd2 H44 C48 N8 Cl4 O12"
_cell_length_a       6.633
_cell_length_b       11.4261
_cell_length_c       17.9068
_cell_angle_alpha    103.877
_cell_angle_beta     89.9958
_cell_angle_gamma    106.846

_space_group_name_H-M_alt    "P 1"
_space_group_IT_number       1

loop_
  _space_group_symop_operation_xyz
  'x, y, z'

loop_
  _atom_site_type_symbol
  _atom_site_label
  _atom_site_symmetry_multiplicity
  _atom_site_fract_x
  _atom_site_fract_y
  _atom_site_fract_z
  _atom_site_occupancy
  Cd  Cd1       1.0  0.69752  0.00008  0.24993  1.0000
  Cd  Cd2       1.0  0.30247  0.99992  0.75007  1.0000
  H   H1        1.0  0.13816  0.96391  0.31691  1.0000
  H   H2        1.0  0.17447  0.03613  0.18296  1.0000
  H   H3        1.0  0.86183  0.03608  0.68309  1.0000
  H   H4        1.0  0.82553  0.96387  0.81704  1.0000
  H   H5        1.0  0.26969  0.30720  0.48942  1.0000
  H   H6        1.0  0.96330  0.69253  0.01072  1.0000
  H   H7        1.0  0.73033  0.69281  0.51057  1.0000
  H   H8        1.0  0.03669  0.30747  0.98928  1.0000
  H   H9        1.0  0.89698  0.27091  0.40192  1.0000
  H   H10       1.0  0.62676  0.72905  0.09816  1.0000
  H   H11       1.0  0.10303  0.72910  0.59808  1.0000
  H   H12       1.0  0.37324  0.27096  0.90184  1.0000
  H   H13       1.0  0.54705  0.19741  0.47196  1.0000
  H   H14       1.0  0.34988  0.80240  0.02783  1.0000
  H   H15       1.0  0.45296  0.80259  0.52804  1.0000
  H   H16       1.0  0.65011  0.19760  0.97217  1.0000
  H   H17       1.0  0.52551  0.07533  0.38696  1.0000
  H   H18       1.0  0.45060  0.92435  0.11285  1.0000
  H   H19       1.0  0.47449  0.92466  0.61303  1.0000
  H   H20       1.0  0.54939  0.07565  0.88715  1.0000
  H   H21       1.0  0.29336  0.91853  0.45147  1.0000
  H   H22       1.0  0.37464  0.08136  0.04861  1.0000
  H   H23       1.0  0.70664  0.08147  0.54853  1.0000
  H   H24       1.0  0.62535  0.91864  0.95140  1.0000
  H   H25       1.0  0.31239  0.04059  0.53596  1.0000
  H   H26       1.0  0.27189  0.95945  0.96402  1.0000
  H   H27       1.0  0.68762  0.95941  0.46404  1.0000
  H   H28       1.0  0.72809  0.04055  0.03598  1.0000
  H   H29       1.0  0.60554  0.48193  0.05619  1.0000
  H   H30       1.0  0.12411  0.51843  0.44387  1.0000
  H   H31       1.0  0.39447  0.51808  0.94381  1.0000
  H   H32       1.0  0.87589  0.48157  0.55613  1.0000
  H   H33       1.0  0.12356  0.43506  0.21894  1.0000
  H   H34       1.0  0.68917  0.56523  0.28099  1.0000
  H   H35       1.0  0.87644  0.56495  0.78106  1.0000
  H   H36       1.0  0.31083  0.43477  0.71902  1.0000
  H   H37       1.0  0.27421  0.28432  0.26316  1.0000
  H   H38       1.0  0.99035  0.71600  0.23680  1.0000
  H   H39       1.0  0.72578  0.71568  0.73683  1.0000
  H   H40       1.0  0.00965  0.28400  0.76320  1.0000
  H   H41       1.0  0.81938  0.26806  0.12300  1.0000
  H   H42       1.0  0.55166  0.73208  0.37692  1.0000
  H   H43       1.0  0.18062  0.73195  0.87700  1.0000
  H   H44       1.0  0.44834  0.26792  0.62308  1.0000
  C   C1        1.0  0.11627  0.05029  0.35231  1.0000
  C   C2        1.0  0.06628  0.94972  0.14761  1.0000
  C   C3        1.0  0.88372  0.94970  0.64769  1.0000
  C   C4        1.0  0.93372  0.05028  0.85239  1.0000
  C   C5        1.0  0.18342  0.23142  0.44127  1.0000
  C   C6        1.0  0.95266  0.76837  0.05884  1.0000
  C   C7        1.0  0.81659  0.76858  0.55873  1.0000
  C   C8        1.0  0.04733  0.23162  0.94116  1.0000
  C   C9        1.0  0.00034  0.21192  0.39786  1.0000
  C   C10       1.0  0.78903  0.78800  0.10223  1.0000
  C   C11       1.0  0.99966  0.78808  0.60215  1.0000
  C   C12       1.0  0.21096  0.21200  0.89777  1.0000
  C   C13       1.0  0.44485  0.10624  0.43808  1.0000
  C   C14       1.0  0.33887  0.89355  0.06181  1.0000
  C   C15       1.0  0.55515  0.89376  0.56192  1.0000
  C   C16       1.0  0.66112  0.10645  0.93819  1.0000
  C   C17       1.0  0.39799  0.00913  0.48614  1.0000
  C   C18       1.0  0.38886  0.99081  0.01385  1.0000
  C   C19       1.0  0.60202  0.99087  0.51385  1.0000
  C   C20       1.0  0.61113  0.00919  0.98615  1.0000
  C   C21       1.0  0.52128  0.29751  0.18520  1.0000
  C   C22       1.0  0.22420  0.70271  0.31475  1.0000
  C   C23       1.0  0.47872  0.70249  0.81479  1.0000
  C   C24       1.0  0.77580  0.29729  0.68525  1.0000
  C   C25       1.0  0.61764  0.35579  0.12713  1.0000
  C   C26       1.0  0.26225  0.64453  0.37289  1.0000
  C   C27       1.0  0.38237  0.64422  0.87287  1.0000
  C   C28       1.0  0.73775  0.35547  0.62711  1.0000
  C   C29       1.0  0.53239  0.43964  0.10166  1.0000
  C   C30       1.0  0.09323  0.56075  0.39839  1.0000
  C   C31       1.0  0.46762  0.56037  0.89834  1.0000
  C   C32       1.0  0.90678  0.43924  0.60161  1.0000
  C   C33       1.0  0.35571  0.46563  0.13499  1.0000
  C   C34       1.0  0.89065  0.53470  0.36502  1.0000
  C   C35       1.0  0.64430  0.53438  0.86501  1.0000
  C   C36       1.0  0.10936  0.46529  0.63498  1.0000
  C   C37       1.0  0.26093  0.41227  0.19387  1.0000
  C   C38       1.0  0.84928  0.58805  0.30610  1.0000
  C   C39       1.0  0.73908  0.58774  0.80613  1.0000
  C   C40       1.0  0.15072  0.41194  0.69390  1.0000
  C   C41       1.0  0.34502  0.32813  0.21787  1.0000
  C   C42       1.0  0.01743  0.67213  0.28208  1.0000
  C   C43       1.0  0.65498  0.67187  0.78213  1.0000
  C   C44       1.0  0.98257  0.32786  0.71792  1.0000
  C   C45       1.0  0.60398  0.20323  0.20829  1.0000
  C   C46       1.0  0.40118  0.79692  0.29169  1.0000
  C   C47       1.0  0.39601  0.79677  0.79171  1.0000
  C   C48       1.0  0.59882  0.20308  0.70831  1.0000
  N   N1        1.0  0.96010  0.09843  0.34275  1.0000
  N   N2        1.0  0.86204  0.90160  0.15720  1.0000
  N   N3        1.0  0.03990  0.90156  0.65725  1.0000
  N   N4        1.0  0.13796  0.09840  0.84280  1.0000
  N   N5        1.0  0.25420  0.12830  0.41147  1.0000
  N   N6        1.0  0.12633  0.87156  0.08853  1.0000
  N   N7        1.0  0.74580  0.87170  0.58853  1.0000
  N   N8        1.0  0.87366  0.12844  0.91147  1.0000
  Cl  Cl1       1.0  0.24640  0.56593  0.10125  1.0000
  Cl  Cl2       1.0  0.68106  0.43433  0.39866  1.0000
  Cl  Cl3       1.0  0.75361  0.43408  0.89875  1.0000
  Cl  Cl4       1.0  0.31895  0.56566  0.60134  1.0000
  O   O1        1.0  0.50529  0.14100  0.25453  1.0000
  O   O2        1.0  0.36466  0.85930  0.24552  1.0000
  O   O3        1.0  0.49468  0.85899  0.74546  1.0000
  O   O4        1.0  0.63534  0.14070  0.75448  1.0000
  O   O5        1.0  0.77159  0.18254  0.17873  1.0000
  O   O6        1.0  0.58945  0.81745  0.32117  1.0000
  O   O7        1.0  0.22841  0.81746  0.82127  1.0000
  O   O8        1.0  0.41054  0.18255  0.67883  1.0000
  O   O9        1.0  0.78833  0.33039  0.09466  1.0000
  O   O10       1.0  0.45831  0.66989  0.40534  1.0000
  O   O11       1.0  0.21166  0.66961  0.90534  1.0000
  O   O12       1.0  0.54170  0.33011  0.59466  1.0000
