data_image0
_chemical_formula_structural       Cd2H44C48Br4N8O12
_chemical_formula_sum              "Cd2 H44 C48 Br4 N8 O12"
_cell_length_a       11.3824
_cell_length_b       11.5315
_cell_length_c       12.0081
_cell_angle_alpha    89.4906
_cell_angle_beta     65.8865
_cell_angle_gamma    68.3178

_space_group_name_H-M_alt    "P 1"
_space_group_IT_number       1

loop_
  _space_group_symop_operation_xyz
  'x, y, z'

loop_
  _atom_site_type_symbol
  _atom_site_label
  _atom_site_symmetry_multiplicity
  _atom_site_fract_x
  _atom_site_fract_y
  _atom_site_fract_z
  _atom_site_occupancy
  Cd  Cd1       1.0  0.65935  0.08918  0.62017  1.0000
  Cd  Cd2       1.0  0.34062  0.91082  0.37987  1.0000
  H   H1        1.0  0.80453  0.98850  0.82143  1.0000
  H   H2        1.0  0.19548  0.01150  0.17857  1.0000
  H   H3        1.0  0.09614  0.15314  0.64320  1.0000
  H   H4        1.0  0.90385  0.84687  0.35679  1.0000
  H   H5        1.0  0.90551  0.20437  0.53919  1.0000
  H   H6        1.0  0.09448  0.79563  0.46081  1.0000
  H   H7        1.0  0.10111  0.89877  0.79658  1.0000
  H   H8        1.0  0.89890  0.10122  0.20341  1.0000
  H   H9        1.0  0.13076  0.03775  0.80312  1.0000
  H   H10       1.0  0.86923  0.96227  0.19687  1.0000
  H   H11       1.0  0.87135  0.99823  0.98810  1.0000
  H   H12       1.0  0.12865  0.00178  0.01190  1.0000
  H   H13       1.0  0.90509  0.13502  0.99670  1.0000
  H   H14       1.0  0.09491  0.86498  0.00329  1.0000
  H   H15       1.0  0.74888  0.79764  0.72263  1.0000
  H   H16       1.0  0.25111  0.20236  0.27738  1.0000
  H   H17       1.0  0.62999  0.90000  0.43333  1.0000
  H   H18       1.0  0.37001  0.09999  0.56667  1.0000
  H   H19       1.0  0.70176  0.64116  0.43333  1.0000
  H   H20       1.0  0.29823  0.35885  0.56667  1.0000
  H   H21       1.0  0.72402  0.51403  0.62783  1.0000
  H   H22       1.0  0.27599  0.48597  0.37217  1.0000
  H   H23       1.0  0.80489  0.56970  0.70116  1.0000
  H   H24       1.0  0.19513  0.43031  0.29884  1.0000
  H   H25       1.0  0.97653  0.38019  0.54040  1.0000
  H   H26       1.0  0.02347  0.61981  0.45959  1.0000
  H   H27       1.0  0.93573  0.45834  0.42526  1.0000
  H   H28       1.0  0.06427  0.54167  0.57474  1.0000
  H   H29       1.0  0.57781  0.60307  0.26769  1.0000
  H   H30       1.0  0.42220  0.39693  0.73230  1.0000
  H   H31       1.0  0.52498  0.52062  0.11024  1.0000
  H   H32       1.0  0.47503  0.47939  0.88975  1.0000
  H   H33       1.0  0.60558  0.16175  0.24136  1.0000
  H   H34       1.0  0.39442  0.83826  0.75863  1.0000
  H   H35       1.0  0.00544  0.26434  0.21758  1.0000
  H   H36       1.0  0.99456  0.73566  0.78242  1.0000
  H   H37       1.0  0.83529  0.38438  0.13560  1.0000
  H   H38       1.0  0.16470  0.61562  0.86439  1.0000
  H   H39       1.0  0.17702  0.30876  0.77240  1.0000
  H   H40       1.0  0.82297  0.69125  0.22760  1.0000
  H   H41       1.0  0.67812  0.40151  0.46995  1.0000
  H   H42       1.0  0.32188  0.59851  0.53009  1.0000
  H   H43       1.0  0.37403  0.11559  0.01117  1.0000
  H   H44       1.0  0.62596  0.88442  0.98880  1.0000
  C   C1        1.0  0.85784  0.03992  0.75790  1.0000
  C   C2        1.0  0.14217  0.96007  0.24209  1.0000
  C   C3        1.0  0.00795  0.12763  0.66319  1.0000
  C   C4        1.0  0.99206  0.87237  0.33681  1.0000
  C   C5        1.0  0.91428  0.15208  0.61278  1.0000
  C   C6        1.0  0.08571  0.84792  0.38722  1.0000
  C   C7        1.0  0.04822  0.00178  0.82712  1.0000
  C   C8        1.0  0.95178  0.99823  0.17287  1.0000
  C   C9        1.0  0.95586  0.03188  0.96590  1.0000
  C   C10       1.0  0.04414  0.96812  0.03409  1.0000
  C   C11       1.0  0.73001  0.79184  0.64151  1.0000
  C   C12       1.0  0.26998  0.20815  0.35849  1.0000
  C   C13       1.0  0.66824  0.84018  0.49161  1.0000
  C   C14       1.0  0.33176  0.15980  0.50838  1.0000
  C   C15       1.0  0.70538  0.71228  0.48885  1.0000
  C   C16       1.0  0.29462  0.28773  0.51115  1.0000
  C   C17       1.0  0.79963  0.55702  0.61302  1.0000
  C   C18       1.0  0.20038  0.44298  0.38698  1.0000
  C   C19       1.0  0.94458  0.47322  0.51159  1.0000
  C   C20       1.0  0.05542  0.52678  0.48841  1.0000
  C   C21       1.0  0.63168  0.30325  0.33318  1.0000
  C   C22       1.0  0.36833  0.69669  0.66687  1.0000
  C   C23       1.0  0.62598  0.42819  0.33906  1.0000
  C   C24       1.0  0.37402  0.57178  0.66095  1.0000
  C   C25       1.0  0.58451  0.50645  0.25998  1.0000
  C   C26       1.0  0.41550  0.49354  0.74003  1.0000
  C   C27       1.0  0.55508  0.46001  0.17251  1.0000
  C   C28       1.0  0.44492  0.53999  0.82748  1.0000
  C   C29       1.0  0.56623  0.33485  0.16391  1.0000
  C   C30       1.0  0.43377  0.66516  0.83609  1.0000
  C   C31       1.0  0.60169  0.25756  0.24435  1.0000
  C   C32       1.0  0.39832  0.74244  0.75568  1.0000
  C   C33       1.0  0.66363  0.22400  0.42348  1.0000
  C   C34       1.0  0.33640  0.77592  0.57655  1.0000
  C   C35       1.0  0.23474  0.23029  0.91461  1.0000
  C   C36       1.0  0.76525  0.76973  0.08539  1.0000
  C   C37       1.0  0.18646  0.21545  0.04056  1.0000
  C   C38       1.0  0.81354  0.78457  0.95945  1.0000
  C   C39       1.0  0.04216  0.27286  0.11980  1.0000
  C   C40       1.0  0.95783  0.72715  0.88021  1.0000
  C   C41       1.0  0.94704  0.34028  0.07418  1.0000
  C   C42       1.0  0.05295  0.65973  0.92583  1.0000
  C   C43       1.0  0.99554  0.35148  0.94881  1.0000
  C   C44       1.0  0.00444  0.64855  0.05119  1.0000
  C   C45       1.0  0.13778  0.29878  0.86957  1.0000
  C   C46       1.0  0.86221  0.70124  0.13043  1.0000
  C   C47       1.0  0.38754  0.17480  0.83091  1.0000
  C   C48       1.0  0.61244  0.82523  0.16910  1.0000
  Br  Br1       1.0  0.53260  0.26882  0.03988  1.0000
  Br  Br2       1.0  0.46742  0.73117  0.96010  1.0000
  Br  Br3       1.0  0.86236  0.44005  0.88718  1.0000
  Br  Br4       1.0  0.13763  0.55997  0.11282  1.0000
  N   N1        1.0  0.82143  0.09700  0.67281  1.0000
  N   N2        1.0  0.17858  0.90300  0.32718  1.0000
  N   N3        1.0  0.97117  0.05658  0.75427  1.0000
  N   N4        1.0  0.02882  0.94342  0.24572  1.0000
  N   N5        1.0  0.68437  0.88847  0.58689  1.0000
  N   N6        1.0  0.31563  0.11154  0.41313  1.0000
  N   N7        1.0  0.74416  0.68340  0.58416  1.0000
  N   N8        1.0  0.25584  0.31660  0.41585  1.0000
  O   O1        1.0  0.69068  0.27131  0.50307  1.0000
  O   O2        1.0  0.30930  0.72864  0.49698  1.0000
  O   O3        1.0  0.66111  0.11480  0.42403  1.0000
  O   O4        1.0  0.33894  0.88512  0.57592  1.0000
  O   O5        1.0  0.66060  0.47321  0.41907  1.0000
  O   O6        1.0  0.33940  0.52679  0.58092  1.0000
  O   O7        1.0  0.42693  0.19767  0.71983  1.0000
  O   O8        1.0  0.57306  0.80240  0.28020  1.0000
  O   O9        1.0  0.47347  0.10763  0.87245  1.0000
  O   O10       1.0  0.52651  0.89234  0.12753  1.0000
  O   O11       1.0  0.27669  0.14695  0.08596  1.0000
  O   O12       1.0  0.72333  0.85308  0.91403  1.0000
