data_image0
_chemical_formula_structural       U2H38C30N2O12
_chemical_formula_sum              "U2 H38 C30 N2 O12"
_cell_length_a       8.0228
_cell_length_b       9.39288
_cell_length_c       12.3014
_cell_angle_alpha    109.46
_cell_angle_beta     96.4633
_cell_angle_gamma    101.961

_space_group_name_H-M_alt    "P 1"
_space_group_IT_number       1

loop_
  _space_group_symop_operation_xyz
  'x, y, z'

loop_
  _atom_site_type_symbol
  _atom_site_label
  _atom_site_symmetry_multiplicity
  _atom_site_fract_x
  _atom_site_fract_y
  _atom_site_fract_z
  _atom_site_occupancy
  U   U1        1.0  0.32877  0.99378  0.68116  1.0000
  U   U2        1.0  0.67123  0.00621  0.31884  1.0000
  H   H1        1.0  0.92178  0.14510  0.92952  1.0000
  H   H2        1.0  0.07822  0.85490  0.07048  1.0000
  H   H3        1.0  0.79549  0.06497  0.78645  1.0000
  H   H4        1.0  0.20451  0.93503  0.21355  1.0000
  H   H5        1.0  0.79795  0.34489  0.90029  1.0000
  H   H6        1.0  0.20205  0.65511  0.09971  1.0000
  H   H7        1.0  0.02017  0.40504  0.89747  1.0000
  H   H8        1.0  0.97982  0.59496  0.10253  1.0000
  H   H9        1.0  0.94737  0.31010  0.67677  1.0000
  H   H10       1.0  0.05263  0.68990  0.32322  1.0000
  H   H11       1.0  0.72901  0.23590  0.67797  1.0000
  H   H12       1.0  0.27098  0.76410  0.32202  1.0000
  H   H13       1.0  0.69476  0.49720  0.78127  1.0000
  H   H14       1.0  0.30524  0.50280  0.21873  1.0000
  H   H15       1.0  0.91875  0.58360  0.80469  1.0000
  H   H16       1.0  0.08125  0.41640  0.19531  1.0000
  H   H17       1.0  0.84450  0.73615  0.50680  1.0000
  H   H18       1.0  0.15550  0.26385  0.49320  1.0000
  H   H19       1.0  0.64448  0.59450  0.45021  1.0000
  H   H20       1.0  0.35552  0.40551  0.54979  1.0000
  H   H21       1.0  0.60247  0.65607  0.66733  1.0000
  H   H22       1.0  0.39753  0.34393  0.33267  1.0000
  H   H23       1.0  0.82158  0.76476  0.71101  1.0000
  H   H24       1.0  0.17842  0.23524  0.28899  1.0000
  H   H25       1.0  0.90398  0.51792  0.59010  1.0000
  H   H26       1.0  0.09602  0.48208  0.40990  1.0000
  H   H27       1.0  0.68552  0.41462  0.55947  1.0000
  H   H28       1.0  0.31449  0.58538  0.44053  1.0000
  H   H29       1.0  0.16616  0.62656  0.66823  1.0000
  H   H30       1.0  0.83384  0.37344  0.33177  1.0000
  H   H31       1.0  0.58230  0.96926  0.90691  1.0000
  H   H32       1.0  0.41770  0.03074  0.09309  1.0000
  H   H33       1.0  0.21327  0.43072  0.75723  1.0000
  H   H34       1.0  0.78672  0.56928  0.24277  1.0000
  H   H35       1.0  0.64394  0.79317  0.00769  1.0000
  H   H36       1.0  0.35605  0.20682  0.99231  1.0000
  H   H37       1.0  0.37542  0.36267  0.89595  1.0000
  H   H38       1.0  0.62458  0.63733  0.10405  1.0000
  C   C1        1.0  0.06383  0.10384  0.79299  1.0000
  C   C2        1.0  0.93617  0.89616  0.20701  1.0000
  C   C3        1.0  0.91362  0.15473  0.84239  1.0000
  C   C4        1.0  0.08638  0.84527  0.15761  1.0000
  C   C5        1.0  0.89761  0.31666  0.84813  1.0000
  C   C6        1.0  0.10239  0.68334  0.15187  1.0000
  C   C7        1.0  0.84618  0.33007  0.72899  1.0000
  C   C8        1.0  0.15382  0.66993  0.27101  1.0000
  C   C9        1.0  0.81068  0.48793  0.74180  1.0000
  C   C10       1.0  0.18932  0.51207  0.25820  1.0000
  C   C11       1.0  0.62222  0.82408  0.52467  1.0000
  C   C12       1.0  0.37778  0.17592  0.47533  1.0000
  C   C13       1.0  0.71529  0.70044  0.52672  1.0000
  C   C14       1.0  0.28471  0.29956  0.47328  1.0000
  C   C15       1.0  0.72871  0.66564  0.63960  1.0000
  C   C16       1.0  0.27129  0.33436  0.36040  1.0000
  C   C17       1.0  0.78381  0.51528  0.62604  1.0000
  C   C18       1.0  0.21619  0.48472  0.37396  1.0000
  C   C19       1.0  0.26957  0.65811  0.74416  1.0000
  C   C20       1.0  0.73043  0.34189  0.25584  1.0000
  C   C21       1.0  0.50174  0.84967  0.87787  1.0000
  C   C22       1.0  0.49826  0.15033  0.12213  1.0000
  C   C23       1.0  0.29591  0.55013  0.79401  1.0000
  C   C24       1.0  0.70409  0.44987  0.20599  1.0000
  C   C25       1.0  0.53536  0.74977  0.93358  1.0000
  C   C26       1.0  0.46464  0.25023  0.06643  1.0000
  C   C27       1.0  0.42930  0.59562  0.89300  1.0000
  C   C28       1.0  0.57070  0.40439  0.10701  1.0000
  C   C29       1.0  0.44960  0.48279  0.94715  1.0000
  C   C30       1.0  0.55040  0.51721  0.05285  1.0000
  N   N1        1.0  0.36971  0.80642  0.78523  1.0000
  N   N2        1.0  0.63029  0.19358  0.21477  1.0000
  O   O1        1.0  0.49408  0.13925  0.80194  1.0000
  O   O2        1.0  0.50591  0.86075  0.19805  1.0000
  O   O3        1.0  0.16357  0.83848  0.56646  1.0000
  O   O4        1.0  0.83643  0.16152  0.43354  1.0000
  O   O5        1.0  0.13756  0.16428  0.72512  1.0000
  O   O6        1.0  0.86244  0.83572  0.27487  1.0000
  O   O7        1.0  0.11999  0.99655  0.81578  1.0000
  O   O8        1.0  0.88000  0.00345  0.18422  1.0000
  O   O9        1.0  0.55010  0.88320  0.60953  1.0000
  O   O10       1.0  0.44990  0.11680  0.39047  1.0000
  O   O11       1.0  0.61621  0.86393  0.43505  1.0000
  O   O12       1.0  0.38378  0.13607  0.56495  1.0000
