data_image0
_chemical_formula_structural       La2Ni3H30C24N6O24
_chemical_formula_sum              "La2 Ni3 H30 C24 N6 O24"
_cell_length_a       7.4691
_cell_length_b       13.3482
_cell_length_c       13.3478
_cell_angle_alpha    120
_cell_angle_beta     90.0001
_cell_angle_gamma    90.0018

_space_group_name_H-M_alt    "P 1"
_space_group_IT_number       1

loop_
  _space_group_symop_operation_xyz
  'x, y, z'

loop_
  _atom_site_type_symbol
  _atom_site_label
  _atom_site_symmetry_multiplicity
  _atom_site_fract_x
  _atom_site_fract_y
  _atom_site_fract_z
  _atom_site_occupancy
  La  La1       1.0  0.66168  0.33334  0.66668  1.0000
  La  La2       1.0  0.33832  0.66666  0.33333  1.0000
  Ni  Ni1       1.0  0.00000  0.50000  0.00000  1.0000
  Ni  Ni2       1.0  1.00000  0.00000  0.50000  1.0000
  Ni  Ni3       1.0  0.00000  0.50000  0.50000  1.0000
  H   H1        1.0  0.29309  0.26133  0.82033  1.0000
  H   H2        1.0  0.29311  0.17966  0.44098  1.0000
  H   H3        1.0  0.29310  0.55902  0.73868  1.0000
  H   H4        1.0  0.70692  0.73867  0.17967  1.0000
  H   H5        1.0  0.70689  0.82034  0.55902  1.0000
  H   H6        1.0  0.70689  0.44097  0.26132  1.0000
  H   H7        1.0  0.40766  0.34137  0.95352  1.0000
  H   H8        1.0  0.40764  0.04648  0.38785  1.0000
  H   H9        1.0  0.40764  0.61215  0.65861  1.0000
  H   H10       1.0  0.59234  0.65864  0.04649  1.0000
  H   H11       1.0  0.59236  0.95352  0.61216  1.0000
  H   H12       1.0  0.59236  0.38785  0.34139  1.0000
  H   H13       1.0  0.15810  0.36679  0.04951  1.0000
  H   H14       1.0  0.15808  0.95050  0.31727  1.0000
  H   H15       1.0  0.15808  0.68272  0.63321  1.0000
  H   H16       1.0  0.84189  0.63321  0.95049  1.0000
  H   H17       1.0  0.84192  0.04950  0.68273  1.0000
  H   H18       1.0  0.84192  0.31728  0.36679  1.0000
  H   H19       1.0  0.91171  0.25367  0.97383  1.0000
  H   H20       1.0  0.91169  0.02617  0.27984  1.0000
  H   H21       1.0  0.91172  0.72018  0.74636  1.0000
  H   H22       1.0  0.08828  0.74633  0.02617  1.0000
  H   H23       1.0  0.08831  0.97383  0.72017  1.0000
  H   H24       1.0  0.08828  0.27982  0.25364  1.0000
  H   H25       1.0  0.06813  0.17406  0.86070  1.0000
  H   H26       1.0  0.06811  0.13931  0.31336  1.0000
  H   H27       1.0  0.06816  0.68665  0.82596  1.0000
  H   H28       1.0  0.93187  0.82595  0.13931  1.0000
  H   H29       1.0  0.93189  0.86069  0.68664  1.0000
  H   H30       1.0  0.93184  0.31335  0.17404  1.0000
  C   C1        1.0  0.31525  0.44208  0.88062  1.0000
  C   C2        1.0  0.31525  0.11939  0.56145  1.0000
  C   C3        1.0  0.31521  0.43854  0.55793  1.0000
  C   C4        1.0  0.68475  0.55792  0.11938  1.0000
  C   C5        1.0  0.68475  0.88061  0.43855  1.0000
  C   C6        1.0  0.68479  0.56145  0.44207  1.0000
  C   C7        1.0  0.29081  0.34265  0.90387  1.0000
  C   C8        1.0  0.29080  0.09613  0.43878  1.0000
  C   C9        1.0  0.29079  0.56122  0.65735  1.0000
  C   C10       1.0  0.70919  0.65735  0.09614  1.0000
  C   C11       1.0  0.70920  0.90387  0.56123  1.0000
  C   C12       1.0  0.70921  0.43877  0.34265  1.0000
  C   C13       1.0  0.99781  0.25756  0.90916  1.0000
  C   C14       1.0  0.99778  0.09084  0.34840  1.0000
  C   C15       1.0  0.99781  0.65162  0.74246  1.0000
  C   C16       1.0  0.00219  0.74244  0.09084  1.0000
  C   C17       1.0  0.00221  0.90916  0.65160  1.0000
  C   C18       1.0  0.00219  0.34838  0.25754  1.0000
  C   C19       1.0  0.87398  0.27166  0.82588  1.0000
  C   C20       1.0  0.87396  0.17412  0.44579  1.0000
  C   C21       1.0  0.87397  0.55425  0.72838  1.0000
  C   C22       1.0  0.12603  0.72834  0.17412  1.0000
  C   C23       1.0  0.12603  0.82588  0.55421  1.0000
  C   C24       1.0  0.12603  0.44575  0.27162  1.0000
  N   N1        1.0  0.12390  0.35441  0.96870  1.0000
  N   N2        1.0  0.12389  0.03131  0.38571  1.0000
  N   N3        1.0  0.12388  0.61429  0.64560  1.0000
  N   N4        1.0  0.87610  0.64559  0.03131  1.0000
  N   N5        1.0  0.87611  0.96869  0.61429  1.0000
  N   N6        1.0  0.87612  0.38571  0.35440  1.0000
  O   O1        1.0  0.44917  0.44063  0.82205  1.0000
  O   O2        1.0  0.44917  0.17796  0.61855  1.0000
  O   O3        1.0  0.44911  0.38144  0.55940  1.0000
  O   O4        1.0  0.55083  0.55937  0.17795  1.0000
  O   O5        1.0  0.55083  0.82204  0.38145  1.0000
  O   O6        1.0  0.55089  0.61856  0.44060  1.0000
  O   O7        1.0  0.20037  0.52416  0.92211  1.0000
  O   O8        1.0  0.20039  0.07790  0.60206  1.0000
  O   O9        1.0  0.20033  0.39795  0.47585  1.0000
  O   O10       1.0  0.79963  0.47584  0.07789  1.0000
  O   O11       1.0  0.79961  0.92210  0.39794  1.0000
  O   O12       1.0  0.79967  0.60204  0.52415  1.0000
  O   O13       1.0  0.88813  0.36428  0.82010  1.0000
  O   O14       1.0  0.88812  0.17991  0.54419  1.0000
  O   O15       1.0  0.88814  0.45583  0.63578  1.0000
  O   O16       1.0  0.11188  0.63572  0.17990  1.0000
  O   O17       1.0  0.11188  0.82009  0.45581  1.0000
  O   O18       1.0  0.11186  0.54417  0.36422  1.0000
  O   O19       1.0  0.76023  0.19385  0.76796  1.0000
  O   O20       1.0  0.76021  0.23204  0.42589  1.0000
  O   O21       1.0  0.76021  0.57416  0.80620  1.0000
  O   O22       1.0  0.23978  0.80615  0.23204  1.0000
  O   O23       1.0  0.23978  0.76796  0.57411  1.0000
  O   O24       1.0  0.23979  0.42584  0.19380  1.0000
