data_image0
_chemical_formula_structural       Ag4H40C24N8O16
_chemical_formula_sum              "Ag4 H40 C24 N8 O16"
_cell_length_a       5.83757
_cell_length_b       8.32314
_cell_length_c       17.9725
_cell_angle_alpha    90.0001
_cell_angle_beta     90.0001
_cell_angle_gamma    91.2925

_space_group_name_H-M_alt    "P 1"
_space_group_IT_number       1

loop_
  _space_group_symop_operation_xyz
  'x, y, z'

loop_
  _atom_site_type_symbol
  _atom_site_label
  _atom_site_symmetry_multiplicity
  _atom_site_fract_x
  _atom_site_fract_y
  _atom_site_fract_z
  _atom_site_occupancy
  Ag  Ag1       1.0  0.63861  0.66876  0.69106  1.0000
  Ag  Ag2       1.0  0.36143  0.83126  0.19105  1.0000
  Ag  Ag3       1.0  0.36140  0.33127  0.30894  1.0000
  Ag  Ag4       1.0  0.63857  0.16872  0.80896  1.0000
  H   H1        1.0  0.25950  0.34572  0.69120  1.0000
  H   H2        1.0  0.74053  0.15429  0.19120  1.0000
  H   H3        1.0  0.74052  0.65432  0.30880  1.0000
  H   H4        1.0  0.25944  0.84566  0.80881  1.0000
  H   H5        1.0  0.95264  0.32524  0.69769  1.0000
  H   H6        1.0  0.04740  0.17477  0.19768  1.0000
  H   H7        1.0  0.04737  0.67477  0.30231  1.0000
  H   H8        1.0  0.95258  0.82521  0.80232  1.0000
  H   H9        1.0  0.11123  0.44753  0.76175  1.0000
  H   H10       1.0  0.88880  0.05248  0.26174  1.0000
  H   H11       1.0  0.88879  0.55250  0.23825  1.0000
  H   H12       1.0  0.11119  0.94746  0.73825  1.0000
  H   H13       1.0  0.77537  0.46004  0.59904  1.0000
  H   H14       1.0  0.22467  0.03993  0.09904  1.0000
  H   H15       1.0  0.22464  0.53996  0.40097  1.0000
  H   H16       1.0  0.77533  0.96004  0.90096  1.0000
  H   H17       1.0  0.69954  0.76049  0.44677  1.0000
  H   H18       1.0  0.30043  0.73956  0.94677  1.0000
  H   H19       1.0  0.30041  0.23956  0.55323  1.0000
  H   H20       1.0  0.69964  0.26040  0.05325  1.0000
  H   H21       1.0  0.52417  0.69654  0.52122  1.0000
  H   H22       1.0  0.47582  0.80343  0.02122  1.0000
  H   H23       1.0  0.47580  0.30345  0.47879  1.0000
  H   H24       1.0  0.52420  0.19661  0.97880  1.0000
  H   H25       1.0  0.67232  0.55228  0.46837  1.0000
  H   H26       1.0  0.32769  0.94776  0.96838  1.0000
  H   H27       1.0  0.32768  0.44776  0.53163  1.0000
  H   H28       1.0  0.67229  0.05223  0.03161  1.0000
  H   H29       1.0  0.98646  0.88625  0.43267  1.0000
  H   H30       1.0  0.01354  0.61375  0.93267  1.0000
  H   H31       1.0  0.01353  0.11377  0.56733  1.0000
  H   H32       1.0  0.98649  0.38624  0.06732  1.0000
  H   H33       1.0  0.24272  0.95134  0.47778  1.0000
  H   H34       1.0  0.75730  0.54866  0.97778  1.0000
  H   H35       1.0  0.75728  0.04869  0.52222  1.0000
  H   H36       1.0  0.24272  0.45131  0.02221  1.0000
  H   H37       1.0  0.16705  0.78927  0.58161  1.0000
  H   H38       1.0  0.83296  0.71073  0.08161  1.0000
  H   H39       1.0  0.83296  0.21075  0.41838  1.0000
  H   H40       1.0  0.16705  0.28925  0.91839  1.0000
  C   C1        1.0  0.10004  0.40826  0.70349  1.0000
  C   C2        1.0  0.89995  0.09176  0.20348  1.0000
  C   C3        1.0  0.89999  0.59179  0.29652  1.0000
  C   C4        1.0  0.10001  0.90820  0.79652  1.0000
  C   C5        1.0  0.08333  0.55179  0.65330  1.0000
  C   C6        1.0  0.91669  0.94821  0.15330  1.0000
  C   C7        1.0  0.91667  0.44822  0.34670  1.0000
  C   C8        1.0  0.08330  0.05176  0.84670  1.0000
  C   C9        1.0  0.88868  0.56562  0.60474  1.0000
  C   C10       1.0  0.11136  0.93440  0.10473  1.0000
  C   C11       1.0  0.11132  0.43442  0.39526  1.0000
  C   C12       1.0  0.88866  0.06558  0.89526  1.0000
  C   C13       1.0  0.87859  0.68246  0.54664  1.0000
  C   C14       1.0  0.12140  0.81752  0.04664  1.0000
  C   C15       1.0  0.12139  0.31755  0.45336  1.0000
  C   C16       1.0  0.87861  0.18245  0.95336  1.0000
  C   C17       1.0  0.68537  0.67351  0.49207  1.0000
  C   C18       1.0  0.31464  0.82647  0.99206  1.0000
  C   C19       1.0  0.31462  0.32649  0.50794  1.0000
  C   C20       1.0  0.68538  0.17352  0.00794  1.0000
  C   C21       1.0  0.05988  0.92418  0.48624  1.0000
  C   C22       1.0  0.94009  0.57582  0.98624  1.0000
  C   C23       1.0  0.94008  0.07583  0.51375  1.0000
  C   C24       1.0  0.05994  0.42414  0.01376  1.0000
  N   N1        1.0  0.04238  0.79540  0.54052  1.0000
  N   N2        1.0  0.95761  0.70460  0.04053  1.0000
  N   N3        1.0  0.95760  0.20462  0.45947  1.0000
  N   N4        1.0  0.04240  0.29538  0.95947  1.0000
  N   N5        1.0  0.55107  0.04089  0.65649  1.0000
  N   N6        1.0  0.44893  0.45915  0.15648  1.0000
  N   N7        1.0  0.44893  0.95914  0.34351  1.0000
  N   N8        1.0  0.55108  0.54085  0.84351  1.0000
  O   O1        1.0  0.24539  0.65705  0.65293  1.0000
  O   O2        1.0  0.75461  0.84298  0.15292  1.0000
  O   O3        1.0  0.75462  0.34299  0.34707  1.0000
  O   O4        1.0  0.24537  0.15700  0.84706  1.0000
  O   O5        1.0  0.62566  0.95353  0.71009  1.0000
  O   O6        1.0  0.37430  0.54651  0.21007  1.0000
  O   O7        1.0  0.37429  0.04649  0.28992  1.0000
  O   O8        1.0  0.62576  0.45350  0.78994  1.0000
  O   O9        1.0  0.47116  0.97657  0.59863  1.0000
  O   O10       1.0  0.52890  0.52345  0.09863  1.0000
  O   O11       1.0  0.52890  0.02345  0.40137  1.0000
  O   O12       1.0  0.47109  0.47653  0.90137  1.0000
  O   O13       1.0  0.56170  0.19215  0.66437  1.0000
  O   O14       1.0  0.43828  0.30789  0.16437  1.0000
  O   O15       1.0  0.43830  0.80788  0.33563  1.0000
  O   O16       1.0  0.56167  0.69211  0.83563  1.0000
