data_image0
_chemical_formula_structural       Ag4H56C32N8O16
_chemical_formula_sum              "Ag4 H56 C32 N8 O16"
_cell_length_a       8.44656
_cell_length_b       9.67805
_cell_length_c       14.025
_cell_angle_alpha    90.0002
_cell_angle_beta     98.2874
_cell_angle_gamma    89.9998

_space_group_name_H-M_alt    "P 1"
_space_group_IT_number       1

loop_
  _space_group_symop_operation_xyz
  'x, y, z'

loop_
  _atom_site_type_symbol
  _atom_site_label
  _atom_site_symmetry_multiplicity
  _atom_site_fract_x
  _atom_site_fract_y
  _atom_site_fract_z
  _atom_site_occupancy
  Ag  Ag1       1.0  0.89173  0.40407  0.83506  1.0000
  Ag  Ag2       1.0  0.60827  0.90407  0.66494  1.0000
  Ag  Ag3       1.0  0.10827  0.59593  0.16494  1.0000
  Ag  Ag4       1.0  0.39173  0.09593  0.33506  1.0000
  H   H1        1.0  0.36282  0.89386  0.98481  1.0000
  H   H2        1.0  0.13718  0.39386  0.51519  1.0000
  H   H3        1.0  0.63718  0.10614  0.01519  1.0000
  H   H4        1.0  0.86282  0.60614  0.48481  1.0000
  H   H5        1.0  0.44333  0.96333  0.09654  1.0000
  H   H6        1.0  0.05667  0.46334  0.40346  1.0000
  H   H7        1.0  0.55667  0.03667  0.90346  1.0000
  H   H8        1.0  0.94333  0.53667  0.59654  1.0000
  H   H9        1.0  0.62507  0.78999  0.96386  1.0000
  H   H10       1.0  0.87492  0.29000  0.53613  1.0000
  H   H11       1.0  0.37493  0.21000  0.03614  1.0000
  H   H12       1.0  0.12507  0.71000  0.46386  1.0000
  H   H13       1.0  0.71659  0.86431  0.07318  1.0000
  H   H14       1.0  0.78341  0.36431  0.42681  1.0000
  H   H15       1.0  0.28341  0.13570  0.92682  1.0000
  H   H16       1.0  0.21658  0.63570  0.57319  1.0000
  H   H17       1.0  0.53650  0.72583  0.16469  1.0000
  H   H18       1.0  0.96350  0.22582  0.33531  1.0000
  H   H19       1.0  0.46350  0.27417  0.83531  1.0000
  H   H20       1.0  0.03649  0.77418  0.66469  1.0000
  H   H21       1.0  0.43972  0.65571  0.05632  1.0000
  H   H22       1.0  0.06028  0.15571  0.44368  1.0000
  H   H23       1.0  0.56029  0.34429  0.94368  1.0000
  H   H24       1.0  0.93972  0.84429  0.55632  1.0000
  H   H25       1.0  0.77539  0.71507  0.27128  1.0000
  H   H26       1.0  0.72461  0.21507  0.22871  1.0000
  H   H27       1.0  0.22461  0.28493  0.72872  1.0000
  H   H28       1.0  0.27539  0.78493  0.77129  1.0000
  H   H29       1.0  0.84685  0.55576  0.32366  1.0000
  H   H30       1.0  0.65315  0.05576  0.17634  1.0000
  H   H31       1.0  0.15316  0.44424  0.67634  1.0000
  H   H32       1.0  0.34685  0.94424  0.82366  1.0000
  H   H33       1.0  0.63721  0.57953  0.28658  1.0000
  H   H34       1.0  0.86279  0.07952  0.21342  1.0000
  H   H35       1.0  0.36279  0.42047  0.71342  1.0000
  H   H36       1.0  0.13721  0.92047  0.78658  1.0000
  H   H37       1.0  0.95350  0.39680  0.22619  1.0000
  H   H38       1.0  0.54649  0.89680  0.27381  1.0000
  H   H39       1.0  0.04650  0.60320  0.77381  1.0000
  H   H40       1.0  0.45350  0.10320  0.72619  1.0000
  H   H41       1.0  0.94334  0.16282  0.05224  1.0000
  H   H42       1.0  0.55666  0.66282  0.44775  1.0000
  H   H43       1.0  0.05666  0.83718  0.94775  1.0000
  H   H44       1.0  0.44334  0.33718  0.55224  1.0000
  H   H45       1.0  0.09528  0.24289  0.13613  1.0000
  H   H46       1.0  0.40472  0.74290  0.36387  1.0000
  H   H47       1.0  0.90472  0.75711  0.86387  1.0000
  H   H48       1.0  0.59528  0.25710  0.63613  1.0000
  H   H49       1.0  0.08443  0.27114  0.00861  1.0000
  H   H50       1.0  0.41557  0.77114  0.49139  1.0000
  H   H51       1.0  0.91557  0.72886  0.99139  1.0000
  H   H52       1.0  0.58443  0.22886  0.50861  1.0000
  H   H53       1.0  0.69584  0.54209  0.03247  1.0000
  H   H54       1.0  0.80416  0.04209  0.46753  1.0000
  H   H55       1.0  0.30416  0.45791  0.96754  1.0000
  H   H56       1.0  0.19584  0.95791  0.53247  1.0000
  C   C1        1.0  0.47436  0.93545  0.02518  1.0000
  C   C2        1.0  0.02564  0.43545  0.47482  1.0000
  C   C3        1.0  0.52564  0.06455  0.97482  1.0000
  C   C4        1.0  0.97436  0.56455  0.52518  1.0000
  C   C5        1.0  0.60257  0.82313  0.03597  1.0000
  C   C6        1.0  0.89743  0.32313  0.46403  1.0000
  C   C7        1.0  0.39743  0.17687  0.96403  1.0000
  C   C8        1.0  0.10257  0.67687  0.53597  1.0000
  C   C9        1.0  0.55443  0.69755  0.09144  1.0000
  C   C10       1.0  0.94557  0.19755  0.40856  1.0000
  C   C11       1.0  0.44557  0.30245  0.90856  1.0000
  C   C12       1.0  0.05443  0.80245  0.59144  1.0000
  C   C13       1.0  0.75723  0.60271  0.26937  1.0000
  C   C14       1.0  0.74277  0.10270  0.23063  1.0000
  C   C15       1.0  0.24277  0.39730  0.73063  1.0000
  C   C16       1.0  0.25723  0.89730  0.76937  1.0000
  C   C17       1.0  0.77324  0.54654  0.17210  1.0000
  C   C18       1.0  0.72676  0.04654  0.32790  1.0000
  C   C19       1.0  0.22676  0.45346  0.82791  1.0000
  C   C20       1.0  0.27324  0.95346  0.67210  1.0000
  C   C21       1.0  0.89273  0.44562  0.16094  1.0000
  C   C22       1.0  0.60727  0.94562  0.33906  1.0000
  C   C23       1.0  0.10727  0.55438  0.83906  1.0000
  C   C24       1.0  0.39273  0.05438  0.66094  1.0000
  C   C25       1.0  0.90322  0.37768  0.07122  1.0000
  C   C26       1.0  0.59678  0.87769  0.42878  1.0000
  C   C27       1.0  0.09678  0.62231  0.92879  1.0000
  C   C28       1.0  0.40322  0.12231  0.57121  1.0000
  C   C29       1.0  0.01489  0.25727  0.06833  1.0000
  C   C30       1.0  0.48511  0.75728  0.43167  1.0000
  C   C31       1.0  0.98511  0.74272  0.93167  1.0000
  C   C32       1.0  0.51489  0.24272  0.56833  1.0000
  N   N1        1.0  0.67400  0.58888  0.09572  1.0000
  N   N2        1.0  0.82600  0.08889  0.40428  1.0000
  N   N3        1.0  0.32600  0.41112  0.90429  1.0000
  N   N4        1.0  0.17400  0.91112  0.59572  1.0000
  N   N5        1.0  0.61980  0.61110  0.72359  1.0000
  N   N6        1.0  0.88020  0.11110  0.77641  1.0000
  N   N7        1.0  0.38020  0.38890  0.27641  1.0000
  N   N8        1.0  0.11981  0.88890  0.22359  1.0000
  O   O1        1.0  0.81657  0.41464  0.99317  1.0000
  O   O2        1.0  0.68344  0.91464  0.50683  1.0000
  O   O3        1.0  0.18343  0.58536  0.00683  1.0000
  O   O4        1.0  0.31656  0.08536  0.49317  1.0000
  O   O5        1.0  0.48264  0.66304  0.69746  1.0000
  O   O6        1.0  0.01736  0.16304  0.80254  1.0000
  O   O7        1.0  0.51736  0.33696  0.30254  1.0000
  O   O8        1.0  0.98265  0.83696  0.19746  1.0000
  O   O9        1.0  0.74453  0.68314  0.71832  1.0000
  O   O10       1.0  0.75547  0.18314  0.78168  1.0000
  O   O11       1.0  0.25547  0.31686  0.28168  1.0000
  O   O12       1.0  0.24455  0.81687  0.21831  1.0000
  O   O13       1.0  0.63214  0.48794  0.75506  1.0000
  O   O14       1.0  0.86786  0.98794  0.74494  1.0000
  O   O15       1.0  0.36786  0.51206  0.24494  1.0000
  O   O16       1.0  0.13214  0.01206  0.25506  1.0000
