data_image0
_chemical_formula_structural       Zn2H32C40N8O8
_chemical_formula_sum              "Zn2 H32 C40 N8 O8"
_cell_length_a       7.04185
_cell_length_b       7.04179
_cell_length_c       19.624
_cell_angle_alpha    89.4521
_cell_angle_beta     89.4525
_cell_angle_gamma    114.607

_space_group_name_H-M_alt    "P 1"
_space_group_IT_number       1

loop_
  _space_group_symop_operation_xyz
  'x, y, z'

loop_
  _atom_site_type_symbol
  _atom_site_label
  _atom_site_symmetry_multiplicity
  _atom_site_fract_x
  _atom_site_fract_y
  _atom_site_fract_z
  _atom_site_occupancy
  Zn  Zn1       1.0  0.35315  0.64685  0.75000  1.0000
  Zn  Zn2       1.0  0.64685  0.35314  0.25000  1.0000
  H   H1        1.0  0.82030  0.90793  0.81390  1.0000
  H   H2        1.0  0.09207  0.17971  0.68610  1.0000
  H   H3        1.0  0.17969  0.09207  0.18611  1.0000
  H   H4        1.0  0.90792  0.82030  0.31389  1.0000
  H   H5        1.0  0.31439  0.34577  0.87455  1.0000
  H   H6        1.0  0.65424  0.68561  0.62545  1.0000
  H   H7        1.0  0.68560  0.65423  0.12545  1.0000
  H   H8        1.0  0.34577  0.31438  0.37455  1.0000
  H   H9        1.0  0.64418  0.42899  0.96529  1.0000
  H   H10       1.0  0.57100  0.35582  0.53471  1.0000
  H   H11       1.0  0.35581  0.57100  0.03471  1.0000
  H   H12       1.0  0.42900  0.64418  0.46529  1.0000
  H   H13       1.0  0.15469  0.90270  0.83068  1.0000
  H   H14       1.0  0.09729  0.84530  0.66932  1.0000
  H   H15       1.0  0.84529  0.09728  0.16932  1.0000
  H   H16       1.0  0.90272  0.15471  0.33068  1.0000
  H   H17       1.0  0.49964  0.04711  0.87989  1.0000
  H   H18       1.0  0.95289  0.50037  0.62010  1.0000
  H   H19       1.0  0.50036  0.95289  0.12010  1.0000
  H   H20       1.0  0.04712  0.49964  0.37990  1.0000
  H   H21       1.0  0.22112  0.84374  0.08055  1.0000
  H   H22       1.0  0.15627  0.77889  0.41945  1.0000
  H   H23       1.0  0.77890  0.15628  0.91945  1.0000
  H   H24       1.0  0.84372  0.22111  0.58054  1.0000
  H   H25       1.0  0.87913  0.69658  0.03051  1.0000
  H   H26       1.0  0.30341  0.12089  0.46949  1.0000
  H   H27       1.0  0.12089  0.30342  0.96949  1.0000
  H   H28       1.0  0.69657  0.87912  0.53050  1.0000
  H   H29       1.0  0.77761  0.35768  0.80710  1.0000
  H   H30       1.0  0.64233  0.22239  0.69290  1.0000
  H   H31       1.0  0.22238  0.64232  0.19289  1.0000
  H   H32       1.0  0.35766  0.77759  0.30710  1.0000
  C   C1        1.0  0.72622  0.76328  0.84103  1.0000
  C   C2        1.0  0.23671  0.27379  0.65897  1.0000
  C   C3        1.0  0.27377  0.23672  0.15898  1.0000
  C   C4        1.0  0.76327  0.72623  0.34102  1.0000
  C   C5        1.0  0.46757  0.47460  0.87680  1.0000
  C   C6        1.0  0.52541  0.53244  0.62321  1.0000
  C   C7        1.0  0.53243  0.52540  0.12321  1.0000
  C   C8        1.0  0.47460  0.46755  0.37679  1.0000
  C   C9        1.0  0.62775  0.51419  0.92130  1.0000
  C   C10       1.0  0.48581  0.37226  0.57870  1.0000
  C   C11       1.0  0.37225  0.48580  0.07870  1.0000
  C   C12       1.0  0.51420  0.62774  0.42130  1.0000
  C   C13       1.0  0.99310  0.78759  0.92702  1.0000
  C   C14       1.0  0.21241  0.00692  0.57298  1.0000
  C   C15       1.0  0.00691  0.21241  0.07298  1.0000
  C   C16       1.0  0.78759  0.99310  0.42702  1.0000
  C   C17       1.0  0.16937  0.89074  0.88552  1.0000
  C   C18       1.0  0.10925  0.83064  0.61448  1.0000
  C   C19       1.0  0.83062  0.10925  0.11448  1.0000
  C   C20       1.0  0.89075  0.16938  0.38552  1.0000
  C   C21       1.0  0.36643  0.97251  0.91435  1.0000
  C   C22       1.0  0.02749  0.63358  0.58565  1.0000
  C   C23       1.0  0.63357  0.02748  0.08565  1.0000
  C   C24       1.0  0.97252  0.36643  0.41435  1.0000
  C   C25       1.0  0.39467  0.95727  0.98486  1.0000
  C   C26       1.0  0.04274  0.60534  0.51514  1.0000
  C   C27       1.0  0.60533  0.04274  0.01513  1.0000
  C   C28       1.0  0.95727  0.39467  0.48487  1.0000
  C   C29       1.0  0.21314  0.85637  0.02545  1.0000
  C   C30       1.0  0.14363  0.78687  0.47455  1.0000
  C   C31       1.0  0.78688  0.14363  0.97455  1.0000
  C   C32       1.0  0.85636  0.21313  0.52544  1.0000
  C   C33       1.0  0.01546  0.77132  0.99722  1.0000
  C   C34       1.0  0.22867  0.98456  0.50278  1.0000
  C   C35       1.0  0.98456  0.22868  0.00278  1.0000
  C   C36       1.0  0.77131  0.01545  0.49722  1.0000
  C   C37       1.0  0.94465  0.38941  0.79837  1.0000
  C   C38       1.0  0.61060  0.05535  0.70163  1.0000
  C   C39       1.0  0.05535  0.61058  0.20163  1.0000
  C   C40       1.0  0.38941  0.94464  0.29837  1.0000
  N   N1        1.0  0.79112  0.69653  0.89801  1.0000
  N   N2        1.0  0.30347  0.20889  0.60199  1.0000
  N   N3        1.0  0.20888  0.30347  0.10199  1.0000
  N   N4        1.0  0.69652  0.79112  0.39801  1.0000
  N   N5        1.0  0.53041  0.63144  0.82752  1.0000
  N   N6        1.0  0.36856  0.46961  0.67248  1.0000
  N   N7        1.0  0.46959  0.36856  0.17249  1.0000
  N   N8        1.0  0.63143  0.53040  0.32751  1.0000
  O   O1        1.0  0.04978  0.56328  0.76637  1.0000
  O   O2        1.0  0.43671  0.95022  0.73363  1.0000
  O   O3        1.0  0.95021  0.43670  0.23363  1.0000
  O   O4        1.0  0.56328  0.04977  0.26637  1.0000
  O   O5        1.0  0.01122  0.26080  0.81918  1.0000
  O   O6        1.0  0.73923  0.98878  0.68084  1.0000
  O   O7        1.0  0.98877  0.73920  0.18083  1.0000
  O   O8        1.0  0.26080  0.01122  0.31918  1.0000
