data_image0
_chemical_formula_structural       Cu2H22C24I2N4
_chemical_formula_sum              "Cu2 H22 C24 I2 N4"
_cell_length_a       7.09487
_cell_length_b       8.63734
_cell_length_c       10.3923
_cell_angle_alpha    66.5091
_cell_angle_beta     88.3167
_cell_angle_gamma    76.6353

_space_group_name_H-M_alt    "P 1"
_space_group_IT_number       1

loop_
  _space_group_symop_operation_xyz
  'x, y, z'

loop_
  _atom_site_type_symbol
  _atom_site_label
  _atom_site_symmetry_multiplicity
  _atom_site_fract_x
  _atom_site_fract_y
  _atom_site_fract_z
  _atom_site_occupancy
  Cu  Cu1       1.0  0.42572  0.90033  0.09346  1.0000
  Cu  Cu2       1.0  0.57427  0.09967  0.90654  1.0000
  H   H1        1.0  0.20488  0.39234  0.67749  1.0000
  H   H2        1.0  0.79513  0.60766  0.32251  1.0000
  H   H3        1.0  0.16942  0.63071  0.76039  1.0000
  H   H4        1.0  0.83059  0.36930  0.23962  1.0000
  H   H5        1.0  0.19102  0.92506  0.59923  1.0000
  H   H6        1.0  0.80898  0.07494  0.40077  1.0000
  H   H7        1.0  0.26617  0.99151  0.34741  1.0000
  H   H8        1.0  0.73383  0.00849  0.65259  1.0000
  H   H9        1.0  0.25039  0.23144  0.54092  1.0000
  H   H10       1.0  0.74962  0.76856  0.45909  1.0000
  H   H11       1.0  0.41399  0.20806  0.41347  1.0000
  H   H12       1.0  0.58602  0.79194  0.58653  1.0000
  H   H13       1.0  0.15629  0.27254  0.37006  1.0000
  H   H14       1.0  0.84372  0.72745  0.62995  1.0000
  H   H15       1.0  0.28768  0.24988  0.06753  1.0000
  H   H16       1.0  0.71232  0.75013  0.93247  1.0000
  H   H17       1.0  0.00510  0.75777  0.04953  1.0000
  H   H18       1.0  0.99490  0.24223  0.95046  1.0000
  H   H19       1.0  0.45529  0.38238  0.17045  1.0000
  H   H20       1.0  0.54471  0.61762  0.82955  1.0000
  H   H21       1.0  0.42147  0.60445  0.05390  1.0000
  H   H22       1.0  0.57852  0.39555  0.94610  1.0000
  C   C1        1.0  0.27596  0.72866  0.37280  1.0000
  C   C2        1.0  0.72404  0.27134  0.62720  1.0000
  C   C3        1.0  0.25418  0.56168  0.46440  1.0000
  C   C4        1.0  0.74582  0.43832  0.53561  1.0000
  C   C5        1.0  0.21760  0.52150  0.60553  1.0000
  C   C6        1.0  0.78241  0.47850  0.39447  1.0000
  C   C7        1.0  0.19834  0.65584  0.65104  1.0000
  C   C8        1.0  0.80167  0.34416  0.34896  1.0000
  C   C9        1.0  0.21197  0.82403  0.55897  1.0000
  C   C10       1.0  0.78803  0.17597  0.44103  1.0000
  C   C11       1.0  0.25180  0.86278  0.41901  1.0000
  C   C12       1.0  0.74819  0.13722  0.58098  1.0000
  C   C13       1.0  0.31923  0.56852  0.25136  1.0000
  C   C14       1.0  0.68076  0.43148  0.74864  1.0000
  C   C15       1.0  0.27478  0.28354  0.42871  1.0000
  C   C16       1.0  0.72523  0.71645  0.57130  1.0000
  C   C17       1.0  0.16793  0.50399  0.06744  1.0000
  C   C18       1.0  0.83207  0.49601  0.93255  1.0000
  C   C19       1.0  0.16121  0.36029  0.03832  1.0000
  C   C20       1.0  0.83878  0.63971  0.96168  1.0000
  C   C21       1.0  0.00419  0.64399  0.02836  1.0000
  C   C22       1.0  0.99580  0.35601  0.97164  1.0000
  C   C23       1.0  0.35218  0.51056  0.13399  1.0000
  C   C24       1.0  0.64782  0.48944  0.86601  1.0000
  I   I1        1.0  0.29559  0.99485  0.83796  1.0000
  I   I2        1.0  0.70441  0.00515  0.16204  1.0000
  N   N1        1.0  0.31968  0.72757  0.24186  1.0000
  N   N2        1.0  0.68031  0.27242  0.75814  1.0000
  N   N3        1.0  0.28068  0.46456  0.38327  1.0000
  N   N4        1.0  0.71933  0.53543  0.61673  1.0000
