data_image0
_chemical_formula_structural       Cu2H44C48N8Cl4
_chemical_formula_sum              "Cu2 H44 C48 N8 Cl4"
_cell_length_a       5.40224
_cell_length_b       11.2876
_cell_length_c       17.0811
_cell_angle_alpha    89.9993
_cell_angle_beta     90.0004
_cell_angle_gamma    101.527

_space_group_name_H-M_alt    "P 1"
_space_group_IT_number       1

loop_
  _space_group_symop_operation_xyz
  'x, y, z'

loop_
  _atom_site_type_symbol
  _atom_site_label
  _atom_site_symmetry_multiplicity
  _atom_site_fract_x
  _atom_site_fract_y
  _atom_site_fract_z
  _atom_site_occupancy
  Cu  Cu1       1.0  1.00000  1.00000  0.50000  1.0000
  Cu  Cu2       1.0  0.50001  0.50000  0.00000  1.0000
  H   H1        1.0  0.42874  0.02637  0.36331  1.0000
  H   H2        1.0  0.07127  0.47362  0.86330  1.0000
  H   H3        1.0  0.57126  0.97362  0.63670  1.0000
  H   H4        1.0  0.92873  0.52638  0.13670  1.0000
  H   H5        1.0  0.56869  0.01814  0.22542  1.0000
  H   H6        1.0  0.93132  0.48185  0.72541  1.0000
  H   H7        1.0  0.43132  0.98185  0.77458  1.0000
  H   H8        1.0  0.06868  0.51815  0.27459  1.0000
  H   H9        1.0  0.30216  0.89044  0.12685  1.0000
  H   H10       1.0  0.19783  0.60956  0.62684  1.0000
  H   H11       1.0  0.69784  0.10955  0.87316  1.0000
  H   H12       1.0  0.80216  0.39044  0.37317  1.0000
  H   H13       1.0  0.89094  0.76014  0.16404  1.0000
  H   H14       1.0  0.60904  0.73986  0.66403  1.0000
  H   H15       1.0  0.10906  0.23985  0.83597  1.0000
  H   H16       1.0  0.39095  0.26015  0.33597  1.0000
  H   H17       1.0  0.52390  0.67714  0.22746  1.0000
  H   H18       1.0  0.97610  0.82287  0.72745  1.0000
  H   H19       1.0  0.47610  0.32286  0.77254  1.0000
  H   H20       1.0  0.02390  0.17713  0.27254  1.0000
  H   H21       1.0  0.32963  0.70373  0.30685  1.0000
  H   H22       1.0  0.17037  0.79627  0.80685  1.0000
  H   H23       1.0  0.67037  0.29627  0.69315  1.0000
  H   H24       1.0  0.82964  0.20373  0.19315  1.0000
  H   H25       1.0  0.50544  0.58464  0.31283  1.0000
  H   H26       1.0  0.99457  0.91536  0.81282  1.0000
  H   H27       1.0  0.49456  0.41536  0.68717  1.0000
  H   H28       1.0  0.00544  0.08464  0.18717  1.0000
  H   H29       1.0  0.14962  0.56635  0.42966  1.0000
  H   H30       1.0  0.35037  0.93365  0.92966  1.0000
  H   H31       1.0  0.85037  0.43365  0.57033  1.0000
  H   H32       1.0  0.64964  0.06636  0.07033  1.0000
  H   H33       1.0  0.88220  0.65069  0.53813  1.0000
  H   H34       1.0  0.61780  0.84931  0.03812  1.0000
  H   H35       1.0  0.11779  0.34931  0.46187  1.0000
  H   H36       1.0  0.38222  0.15069  0.96187  1.0000
  H   H37       1.0  0.35616  0.77222  0.44190  1.0000
  H   H38       1.0  0.14382  0.72778  0.94190  1.0000
  H   H39       1.0  0.64382  0.22778  0.55810  1.0000
  H   H40       1.0  0.85618  0.27222  0.05810  1.0000
  H   H41       1.0  0.59042  0.81146  0.51401  1.0000
  H   H42       1.0  0.90957  0.68855  0.01401  1.0000
  H   H43       1.0  0.40956  0.18854  0.48599  1.0000
  H   H44       1.0  0.09044  0.31146  0.98599  1.0000
  C   C1        1.0  0.73556  0.80069  0.40074  1.0000
  C   C2        1.0  0.76443  0.69932  0.90074  1.0000
  C   C3        1.0  0.26442  0.19931  0.59926  1.0000
  C   C4        1.0  0.23558  0.30068  0.09926  1.0000
  C   C5        1.0  0.93005  0.82179  0.28502  1.0000
  C   C6        1.0  0.56994  0.67822  0.78502  1.0000
  C   C7        1.0  0.06994  0.17822  0.71498  1.0000
  C   C8        1.0  0.43007  0.32178  0.21498  1.0000
  C   C9        1.0  0.07641  0.89791  0.34113  1.0000
  C   C10       1.0  0.42358  0.60210  0.84113  1.0000
  C   C11       1.0  0.92357  0.10210  0.65887  1.0000
  C   C12       1.0  0.57643  0.39790  0.15888  1.0000
  C   C13       1.0  0.30948  0.96968  0.32064  1.0000
  C   C14       1.0  0.19052  0.53032  0.82064  1.0000
  C   C15       1.0  0.69053  0.03032  0.67936  1.0000
  C   C16       1.0  0.80949  0.46968  0.17936  1.0000
  C   C17       1.0  0.38673  0.96452  0.24304  1.0000
  C   C18       1.0  0.11327  0.53548  0.74303  1.0000
  C   C19       1.0  0.61326  0.03548  0.75696  1.0000
  C   C20       1.0  0.88673  0.46452  0.25697  1.0000
  C   C21       1.0  0.23650  0.89133  0.18708  1.0000
  C   C22       1.0  0.26350  0.60867  0.68708  1.0000
  C   C23       1.0  0.76351  0.10867  0.81292  1.0000
  C   C24       1.0  0.73650  0.39133  0.31292  1.0000
  C   C25       1.0  0.00554  0.81801  0.20703  1.0000
  C   C26       1.0  0.49444  0.68199  0.70702  1.0000
  C   C27       1.0  0.99446  0.18199  0.79297  1.0000
  C   C28       1.0  0.50555  0.31800  0.29298  1.0000
  C   C29       1.0  0.50699  0.67631  0.29132  1.0000
  C   C30       1.0  0.99301  0.82370  0.79132  1.0000
  C   C31       1.0  0.49301  0.32369  0.70868  1.0000
  C   C32       1.0  0.00699  0.17630  0.20868  1.0000
  C   C33       1.0  0.51945  0.62333  0.48104  1.0000
  C   C34       1.0  0.98054  0.87667  0.98104  1.0000
  C   C35       1.0  0.48054  0.37667  0.51896  1.0000
  C   C36       1.0  0.01947  0.12334  0.01896  1.0000
  C   C37       1.0  0.30464  0.53758  0.46045  1.0000
  C   C38       1.0  0.19536  0.96242  0.96045  1.0000
  C   C39       1.0  0.69535  0.46242  0.53955  1.0000
  C   C40       1.0  0.80465  0.03758  0.03955  1.0000
  C   C41       1.0  0.71526  0.58425  0.52085  1.0000
  C   C42       1.0  0.78474  0.91575  0.02084  1.0000
  C   C43       1.0  0.28473  0.41575  0.47915  1.0000
  C   C44       1.0  0.21527  0.08425  0.97915  1.0000
  C   C45       1.0  0.54077  0.75612  0.46129  1.0000
  C   C46       1.0  0.95923  0.74388  0.96129  1.0000
  C   C47       1.0  0.45922  0.24388  0.53871  1.0000
  C   C48       1.0  0.04079  0.25612  0.03871  1.0000
  N   N1        1.0  0.71791  0.76142  0.32487  1.0000
  N   N2        1.0  0.78208  0.73858  0.82486  1.0000
  N   N3        1.0  0.28208  0.23858  0.67513  1.0000
  N   N4        1.0  0.21792  0.26142  0.17514  1.0000
  N   N5        1.0  0.94786  0.88302  0.41218  1.0000
  N   N6        1.0  0.55213  0.61699  0.91217  1.0000
  N   N7        1.0  0.05212  0.11699  0.58782  1.0000
  N   N8        1.0  0.44788  0.38301  0.08783  1.0000
  Cl  Cl1       1.0  0.88691  0.13921  0.41713  1.0000
  Cl  Cl2       1.0  0.61309  0.36079  0.91713  1.0000
  Cl  Cl3       1.0  0.11309  0.86078  0.58287  1.0000
  Cl  Cl4       1.0  0.38692  0.63921  0.08287  1.0000
