data_image0
_chemical_formula_structural       Cd3H36C30N6Cl6O2
_chemical_formula_sum              "Cd3 H36 C30 N6 Cl6 O2"
_cell_length_a       9.32487
_cell_length_b       10.2897
_cell_length_c       10.8201
_cell_angle_alpha    112.647
_cell_angle_beta     104.223
_cell_angle_gamma    96.607

_space_group_name_H-M_alt    "P 1"
_space_group_IT_number       1

loop_
  _space_group_symop_operation_xyz
  'x, y, z'

loop_
  _atom_site_type_symbol
  _atom_site_label
  _atom_site_symmetry_multiplicity
  _atom_site_fract_x
  _atom_site_fract_y
  _atom_site_fract_z
  _atom_site_occupancy
  Cd  Cd1       1.0  0.91776  0.29341  0.89690  1.0000
  Cd  Cd2       1.0  0.08223  0.70659  0.10310  1.0000
  Cd  Cd3       1.0  1.00000  0.00000  0.00000  1.0000
  H   H1        1.0  0.68855  0.83605  0.99730  1.0000
  H   H2        1.0  0.31145  0.16396  0.00270  1.0000
  H   H3        1.0  0.34863  0.57338  0.78791  1.0000
  H   H4        1.0  0.65139  0.42662  0.21211  1.0000
  H   H5        1.0  0.45675  0.70924  0.95798  1.0000
  H   H6        1.0  0.54326  0.29077  0.04204  1.0000
  H   H7        1.0  0.48522  0.52852  0.90253  1.0000
  H   H8        1.0  0.51479  0.47149  0.09749  1.0000
  H   H9        1.0  0.46356  0.48312  0.61547  1.0000
  H   H10       1.0  0.53646  0.51687  0.38455  1.0000
  H   H11       1.0  0.65963  0.48719  0.68453  1.0000
  H   H12       1.0  0.34038  0.51282  0.31549  1.0000
  H   H13       1.0  0.61046  0.61545  0.61863  1.0000
  H   H14       1.0  0.38954  0.38455  0.38138  1.0000
  H   H15       1.0  0.32315  0.09373  0.32401  1.0000
  H   H16       1.0  0.67687  0.90627  0.67598  1.0000
  H   H17       1.0  0.16264  0.11125  0.47615  1.0000
  H   H18       1.0  0.83736  0.88875  0.52383  1.0000
  H   H19       1.0  0.27319  0.20040  0.73599  1.0000
  H   H20       1.0  0.72680  0.79960  0.26400  1.0000
  H   H21       1.0  0.55671  0.26548  0.84931  1.0000
  H   H22       1.0  0.44328  0.73452  0.15068  1.0000
  H   H23       1.0  0.53047  0.07128  0.23653  1.0000
  H   H24       1.0  0.46954  0.92871  0.76346  1.0000
  H   H25       1.0  0.72662  0.06753  0.27557  1.0000
  H   H26       1.0  0.27339  0.93247  0.72443  1.0000
  H   H27       1.0  0.67283  0.23164  0.28844  1.0000
  H   H28       1.0  0.32718  0.76835  0.71156  1.0000
  H   H29       1.0  0.94685  0.14642  0.45885  1.0000
  H   H30       1.0  0.05315  0.85358  0.54115  1.0000
  H   H31       1.0  0.02279  0.25043  0.64447  1.0000
  H   H32       1.0  0.97721  0.74957  0.35553  1.0000
  H   H33       1.0  0.93193  0.51860  0.71323  1.0000
  H   H34       1.0  0.06807  0.48140  0.28677  1.0000
  H   H35       1.0  0.02143  0.26419  0.32928  1.0000
  H   H36       1.0  0.97856  0.73580  0.67072  1.0000
  C   C1        1.0  0.69408  0.76711  0.89217  1.0000
  C   C2        1.0  0.30592  0.23289  0.10784  1.0000
  C   C3        1.0  0.46091  0.61372  0.86865  1.0000
  C   C4        1.0  0.53911  0.38629  0.13137  1.0000
  C   C5        1.0  0.57757  0.55377  0.67430  1.0000
  C   C6        1.0  0.42244  0.44623  0.32572  1.0000
  C   C7        1.0  0.78536  0.21675  0.56227  1.0000
  C   C8        1.0  0.21464  0.78325  0.43772  1.0000
  C   C9        1.0  0.59743  0.21580  0.64973  1.0000
  C   C10       1.0  0.40257  0.78420  0.35026  1.0000
  C   C11       1.0  0.53250  0.16962  0.50264  1.0000
  C   C12       1.0  0.46750  0.83038  0.49735  1.0000
  C   C13       1.0  0.37532  0.13177  0.43734  1.0000
  C   C14       1.0  0.62468  0.86823  0.56265  1.0000
  C   C15       1.0  0.28540  0.14360  0.52501  1.0000
  C   C16       1.0  0.71459  0.85641  0.47497  1.0000
  C   C17       1.0  0.34861  0.19234  0.67194  1.0000
  C   C18       1.0  0.65138  0.80767  0.32804  1.0000
  C   C19       1.0  0.50556  0.22835  0.73613  1.0000
  C   C20       1.0  0.49443  0.77165  0.26386  1.0000
  C   C21       1.0  0.64579  0.13393  0.30457  1.0000
  C   C22       1.0  0.35421  0.86607  0.69542  1.0000
  C   C23       1.0  0.93938  0.24101  0.54811  1.0000
  C   C24       1.0  0.06061  0.75899  0.45189  1.0000
  C   C25       1.0  0.97310  0.37582  0.52406  1.0000
  C   C26       1.0  0.02688  0.62418  0.47593  1.0000
  C   C27       1.0  0.96117  0.50947  0.61904  1.0000
  C   C28       1.0  0.03882  0.49052  0.38095  1.0000
  C   C29       1.0  0.01226  0.36739  0.40473  1.0000
  C   C30       1.0  0.98773  0.63261  0.59527  1.0000
  N   N1        1.0  0.57670  0.65352  0.81247  1.0000
  N   N2        1.0  0.42331  0.34649  0.18754  1.0000
  N   N3        1.0  0.75486  0.24427  0.68304  1.0000
  N   N4        1.0  0.24513  0.75573  0.31695  1.0000
  N   N5        1.0  0.65466  0.17161  0.45084  1.0000
  N   N6        1.0  0.34534  0.82838  0.54915  1.0000
  Cl  Cl1       1.0  0.03199  0.05943  0.79037  1.0000
  Cl  Cl2       1.0  0.96800  0.94057  0.20963  1.0000
  Cl  Cl3       1.0  0.20583  0.84078  0.98733  1.0000
  Cl  Cl4       1.0  0.79416  0.15921  0.01267  1.0000
  Cl  Cl5       1.0  0.17303  0.46362  0.97092  1.0000
  Cl  Cl6       1.0  0.82697  0.53638  0.02909  1.0000
  O   O1        1.0  0.80411  0.79490  0.85112  1.0000
  O   O2        1.0  0.19589  0.20510  0.14888  1.0000
