data_image0
_chemical_formula_structural       Be2Cd2H40C44S4N8O8
_chemical_formula_sum              "Be2 Cd2 H40 C44 S4 N8 O8"
_cell_length_a       7.1404
_cell_length_b       11.8631
_cell_length_c       15.8871
_cell_angle_alpha    78.4742
_cell_angle_beta     78.5642
_cell_angle_gamma    76.4164

_space_group_name_H-M_alt    "P 1"
_space_group_IT_number       1

loop_
  _space_group_symop_operation_xyz
  'x, y, z'

loop_
  _atom_site_type_symbol
  _atom_site_label
  _atom_site_symmetry_multiplicity
  _atom_site_fract_x
  _atom_site_fract_y
  _atom_site_fract_z
  _atom_site_occupancy
  Be  Be1       1.0  0.38118  0.27468  0.49289  1.0000
  Be  Be2       1.0  0.61882  0.72532  0.50711  1.0000
  Cd  Cd1       1.0  0.46221  0.25293  0.02302  1.0000
  Cd  Cd2       1.0  0.53779  0.74708  0.97698  1.0000
  H   H1        1.0  0.61107  0.55316  0.36668  1.0000
  H   H2        1.0  0.38893  0.44684  0.63332  1.0000
  H   H3        1.0  0.74624  0.48973  0.27319  1.0000
  H   H4        1.0  0.25376  0.51027  0.72681  1.0000
  H   H5        1.0  0.85351  0.47105  0.36808  1.0000
  H   H6        1.0  0.14649  0.52895  0.63192  1.0000
  H   H7        1.0  0.66064  0.97741  0.40280  1.0000
  H   H8        1.0  0.33937  0.02259  0.59720  1.0000
  H   H9        1.0  0.87448  0.02856  0.34244  1.0000
  H   H10       1.0  0.12553  0.97144  0.65756  1.0000
  H   H11       1.0  0.66679  0.04594  0.29210  1.0000
  H   H12       1.0  0.33322  0.95406  0.70790  1.0000
  H   H13       1.0  0.37551  0.27827  0.23301  1.0000
  H   H14       1.0  0.62449  0.72173  0.76699  1.0000
  H   H15       1.0  0.10509  0.27890  0.35975  1.0000
  H   H16       1.0  0.89491  0.72110  0.64025  1.0000
  H   H17       1.0  0.74231  0.22913  0.18841  1.0000
  H   H18       1.0  0.25769  0.77087  0.81158  1.0000
  H   H19       1.0  0.02928  0.22258  0.07068  1.0000
  H   H20       1.0  0.97072  0.77742  0.92932  1.0000
  H   H21       1.0  0.35306  0.11884  0.77930  1.0000
  H   H22       1.0  0.64694  0.88115  0.22070  1.0000
  H   H23       1.0  0.33174  0.26761  0.78682  1.0000
  H   H24       1.0  0.66826  0.73239  0.21318  1.0000
  H   H25       1.0  0.55196  0.18933  0.73072  1.0000
  H   H26       1.0  0.44804  0.81067  0.26927  1.0000
  H   H27       1.0  0.73325  0.33176  0.64164  1.0000
  H   H28       1.0  0.26675  0.66824  0.35836  1.0000
  H   H29       1.0  0.78153  0.29290  0.53585  1.0000
  H   H30       1.0  0.21847  0.70710  0.46415  1.0000
  H   H31       1.0  0.78650  0.43717  0.54842  1.0000
  H   H32       1.0  0.21350  0.56283  0.45158  1.0000
  H   H33       1.0  0.70555  0.43121  0.89398  1.0000
  H   H34       1.0  0.29445  0.56879  0.10602  1.0000
  H   H35       1.0  0.93494  0.44755  0.75435  1.0000
  H   H36       1.0  0.06506  0.55245  0.24565  1.0000
  H   H37       1.0  0.97794  0.07702  0.75999  1.0000
  H   H38       1.0  0.02206  0.92299  0.24001  1.0000
  H   H39       1.0  0.74296  0.07593  0.89841  1.0000
  H   H40       1.0  0.25703  0.92407  0.10159  1.0000
  C   C1        1.0  0.71575  0.47744  0.34468  1.0000
  C   C2        1.0  0.28426  0.52256  0.65532  1.0000
  C   C3        1.0  0.63523  0.36919  0.38231  1.0000
  C   C4        1.0  0.36477  0.63081  0.61769  1.0000
  C   C5        1.0  0.72345  0.25996  0.35418  1.0000
  C   C6        1.0  0.27655  0.74004  0.64582  1.0000
  C   C7        1.0  0.63107  0.16238  0.38439  1.0000
  C   C8        1.0  0.36893  0.83762  0.61561  1.0000
  C   C9        1.0  0.71446  0.04651  0.35387  1.0000
  C   C10       1.0  0.28555  0.95349  0.64613  1.0000
  C   C11       1.0  0.23280  0.26572  0.22631  1.0000
  C   C12       1.0  0.76721  0.73428  0.77369  1.0000
  C   C13       1.0  0.08081  0.26719  0.29660  1.0000
  C   C14       1.0  0.91919  0.73281  0.70340  1.0000
  C   C15       1.0  0.89780  0.25329  0.28495  1.0000
  C   C16       1.0  0.10220  0.74671  0.71504  1.0000
  C   C17       1.0  0.88177  0.23633  0.20219  1.0000
  C   C18       1.0  0.11823  0.76367  0.79781  1.0000
  C   C19       1.0  0.04055  0.23504  0.13555  1.0000
  C   C20       1.0  0.95945  0.76496  0.86444  1.0000
  C   C21       1.0  0.39285  0.20166  0.74359  1.0000
  C   C22       1.0  0.60716  0.79834  0.25641  1.0000
  C   C23       1.0  0.31368  0.23619  0.65987  1.0000
  C   C24       1.0  0.68632  0.76381  0.34013  1.0000
  C   C25       1.0  0.10978  0.26865  0.65928  1.0000
  C   C26       1.0  0.89022  0.73134  0.34072  1.0000
  C   C27       1.0  0.03597  0.30664  0.57987  1.0000
  C   C28       1.0  0.96403  0.69336  0.42013  1.0000
  C   C29       1.0  0.82222  0.34395  0.57738  1.0000
  C   C30       1.0  0.17778  0.65605  0.42262  1.0000
  C   C31       1.0  0.76773  0.35480  0.86176  1.0000
  C   C32       1.0  0.23226  0.64520  0.13824  1.0000
  C   C33       1.0  0.89644  0.36323  0.78378  1.0000
  C   C34       1.0  0.10356  0.63677  0.21622  1.0000
  C   C35       1.0  0.97441  0.26350  0.74368  1.0000
  C   C36       1.0  0.02559  0.73650  0.25632  1.0000
  C   C37       1.0  0.92006  0.15804  0.78687  1.0000
  C   C38       1.0  0.07994  0.84196  0.21313  1.0000
  C   C39       1.0  0.78954  0.15664  0.86454  1.0000
  C   C40       1.0  0.21047  0.84335  0.13546  1.0000
  C   C41       1.0  0.69160  0.95474  0.05674  1.0000
  C   C42       1.0  0.30839  0.04526  0.94328  1.0000
  C   C43       1.0  0.33950  0.53773  0.92428  1.0000
  C   C44       1.0  0.66050  0.46228  0.07572  1.0000
  S   S1        1.0  0.71816  0.06202  0.10052  1.0000
  S   S2        1.0  0.28183  0.93797  0.89948  1.0000
  S   S3        1.0  0.23212  0.43178  0.92199  1.0000
  S   S4        1.0  0.76788  0.56823  0.07801  1.0000
  N   N1        1.0  0.21413  0.24998  0.14695  1.0000
  N   N2        1.0  0.78587  0.75002  0.85305  1.0000
  N   N3        1.0  0.71292  0.25358  0.90111  1.0000
  N   N4        1.0  0.28708  0.74642  0.09889  1.0000
  N   N5        1.0  0.67810  0.87430  0.02630  1.0000
  N   N6        1.0  0.32188  0.12569  0.97371  1.0000
  N   N7        1.0  0.41807  0.61567  0.92351  1.0000
  N   N8        1.0  0.58193  0.38433  0.07649  1.0000
  O   O1        1.0  0.48086  0.38259  0.44006  1.0000
  O   O2        1.0  0.51913  0.61741  0.55994  1.0000
  O   O3        1.0  0.47164  0.16670  0.43942  1.0000
  O   O4        1.0  0.52836  0.83330  0.56058  1.0000
  O   O5        1.0  0.43937  0.23606  0.58960  1.0000
  O   O6        1.0  0.56063  0.76394  0.41040  1.0000
  O   O7        1.0  0.14700  0.31176  0.50471  1.0000
  O   O8        1.0  0.85300  0.68824  0.49529  1.0000
