data_image0
_chemical_formula_structural       Mn2H28C28N16O8
_chemical_formula_sum              "Mn2 H28 C28 N16 O8"
_cell_length_a       8.11602
_cell_length_b       7.86534
_cell_length_c       12.8739
_cell_angle_alpha    89.9998
_cell_angle_beta     98.2744
_cell_angle_gamma    89.9998

_space_group_name_H-M_alt    "P 1"
_space_group_IT_number       1

loop_
  _space_group_symop_operation_xyz
  'x, y, z'

loop_
  _atom_site_type_symbol
  _atom_site_label
  _atom_site_symmetry_multiplicity
  _atom_site_fract_x
  _atom_site_fract_y
  _atom_site_fract_z
  _atom_site_occupancy
  Mn  Mn1       1.0  0.00470  0.00295  0.99887  1.0000
  Mn  Mn2       1.0  0.49533  0.50296  0.00114  1.0000
  H   H1        1.0  0.91944  0.36789  0.95060  1.0000
  H   H2        1.0  0.58056  0.86790  0.04940  1.0000
  H   H3        1.0  0.07515  0.62957  0.04428  1.0000
  H   H4        1.0  0.42487  0.12957  0.95573  1.0000
  H   H5        1.0  0.97323  0.58052  0.81689  1.0000
  H   H6        1.0  0.52676  0.08054  0.18311  1.0000
  H   H7        1.0  0.02197  0.41904  0.17878  1.0000
  H   H8        1.0  0.47806  0.91903  0.82123  1.0000
  H   H9        1.0  0.15016  0.17084  0.63974  1.0000
  H   H10       1.0  0.34983  0.67085  0.36026  1.0000
  H   H11       1.0  0.85609  0.83267  0.35762  1.0000
  H   H12       1.0  0.64389  0.33267  0.64237  1.0000
  H   H13       1.0  0.07989  0.97077  0.77788  1.0000
  H   H14       1.0  0.42011  0.47078  0.22212  1.0000
  H   H15       1.0  0.92900  0.03106  0.21946  1.0000
  H   H16       1.0  0.57098  0.53106  0.78054  1.0000
  H   H17       1.0  0.22842  0.84482  0.60485  1.0000
  H   H18       1.0  0.27158  0.34484  0.39516  1.0000
  H   H19       1.0  0.77082  0.16048  0.39204  1.0000
  H   H20       1.0  0.72917  0.66047  0.60796  1.0000
  H   H21       1.0  0.00939  0.89937  0.57955  1.0000
  H   H22       1.0  0.49061  0.39938  0.42045  1.0000
  H   H23       1.0  0.98903  0.10449  0.42191  1.0000
  H   H24       1.0  0.51095  0.60450  0.57809  1.0000
  H   H25       1.0  0.09704  0.74433  0.50016  1.0000
  H   H26       1.0  0.40296  0.24434  0.49984  1.0000
  H   H27       1.0  0.89802  0.26041  0.49897  1.0000
  H   H28       1.0  0.60197  0.76041  0.50103  1.0000
  C   C1        1.0  0.97084  0.32844  0.88095  1.0000
  C   C2        1.0  0.52916  0.82845  0.11904  1.0000
  C   C3        1.0  0.02794  0.67087  0.11500  1.0000
  C   C4        1.0  0.47208  0.17087  0.88501  1.0000
  C   C5        1.0  0.00096  0.44680  0.80624  1.0000
  C   C6        1.0  0.49904  0.94682  0.19375  1.0000
  C   C7        1.0  0.99819  0.55338  0.19032  1.0000
  C   C8        1.0  0.50184  0.05337  0.80969  1.0000
  C   C9        1.0  0.07130  0.39298  0.71872  1.0000
  C   C10       1.0  0.42870  0.89301  0.28128  1.0000
  C   C11       1.0  0.93113  0.60899  0.27862  1.0000
  C   C12       1.0  0.56889  0.10900  0.72139  1.0000
  C   C13       1.0  0.09838  0.21834  0.70762  1.0000
  C   C14       1.0  0.40162  0.71837  0.29238  1.0000
  C   C15       1.0  0.90633  0.78404  0.28949  1.0000
  C   C16       1.0  0.59367  0.28405  0.71052  1.0000
  C   C17       1.0  0.06168  0.10712  0.78448  1.0000
  C   C18       1.0  0.43832  0.60714  0.21552  1.0000
  C   C19       1.0  0.94391  0.89431  0.21235  1.0000
  C   C20       1.0  0.55608  0.39431  0.78766  1.0000
  C   C21       1.0  0.12039  0.51389  0.64025  1.0000
  C   C22       1.0  0.37961  0.01391  0.35975  1.0000
  C   C23       1.0  0.88078  0.48953  0.35755  1.0000
  C   C24       1.0  0.61923  0.98953  0.64245  1.0000
  C   C25       1.0  0.10180  0.79826  0.57883  1.0000
  C   C26       1.0  0.39820  0.29827  0.42117  1.0000
  C   C27       1.0  0.89691  0.20629  0.42063  1.0000
  C   C28       1.0  0.60308  0.70629  0.57937  1.0000
  N   N1        1.0  0.13149  0.17221  0.08835  1.0000
  N   N2        1.0  0.36852  0.67221  0.91163  1.0000
  N   N3        1.0  0.83786  0.81702  0.88595  1.0000
  N   N4        1.0  0.66212  0.31704  0.11404  1.0000
  N   N5        1.0  0.22682  0.27527  0.06184  1.0000
  N   N6        1.0  0.27319  0.77527  0.93815  1.0000
  N   N7        1.0  0.76585  0.71148  0.92768  1.0000
  N   N8        1.0  0.73415  0.21149  0.07233  1.0000
  N   N9        1.0  0.18676  0.88512  0.96106  1.0000
  N   N10       1.0  0.31323  0.38515  0.03895  1.0000
  N   N11       1.0  0.79501  0.09777  0.03105  1.0000
  N   N12       1.0  0.70500  0.59777  0.96896  1.0000
  N   N13       1.0  0.00539  0.16030  0.87355  1.0000
  N   N14       1.0  0.49460  0.66032  0.12644  1.0000
  N   N15       1.0  0.99830  0.83972  0.12299  1.0000
  N   N16       1.0  0.50170  0.33973  0.87702  1.0000
  O   O1        1.0  0.20716  0.47572  0.57310  1.0000
  O   O2        1.0  0.29284  0.97573  0.42690  1.0000
  O   O3        1.0  0.79099  0.52893  0.42279  1.0000
  O   O4        1.0  0.70902  0.02894  0.57721  1.0000
  O   O5        1.0  0.05832  0.67125  0.65158  1.0000
  O   O6        1.0  0.44167  0.17127  0.34841  1.0000
  O   O7        1.0  0.94504  0.33256  0.34890  1.0000
  O   O8        1.0  0.55497  0.83256  0.65110  1.0000
