data_image0
_chemical_formula_structural       Zn2H16C22N4O10
_chemical_formula_sum              "Zn2 H16 C22 N4 O10"
_cell_length_a       7.70221
_cell_length_b       8.47879
_cell_length_c       9.64533
_cell_angle_alpha    114.723
_cell_angle_beta     91.4754
_cell_angle_gamma    106.258

_space_group_name_H-M_alt    "P 1"
_space_group_IT_number       1

loop_
  _space_group_symop_operation_xyz
  'x, y, z'

loop_
  _atom_site_type_symbol
  _atom_site_label
  _atom_site_symmetry_multiplicity
  _atom_site_fract_x
  _atom_site_fract_y
  _atom_site_fract_z
  _atom_site_occupancy
  Zn  Zn1       1.0  0.25278  0.89180  0.70311  1.0000
  Zn  Zn2       1.0  0.74722  0.10821  0.29690  1.0000
  H   H1        1.0  0.32436  0.58549  0.61693  1.0000
  H   H2        1.0  0.67562  0.41451  0.38308  1.0000
  H   H3        1.0  0.51189  0.76406  0.72048  1.0000
  H   H4        1.0  0.48811  0.23594  0.27952  1.0000
  H   H5        1.0  0.89923  0.66629  0.85131  1.0000
  H   H6        1.0  0.10076  0.33372  0.14869  1.0000
  H   H7        1.0  0.17290  0.94649  0.32099  1.0000
  H   H8        1.0  0.82709  0.05350  0.67901  1.0000
  H   H9        1.0  0.70490  0.46403  0.18138  1.0000
  H   H10       1.0  0.29511  0.53596  0.81862  1.0000
  H   H11       1.0  0.68350  0.47727  0.69101  1.0000
  H   H12       1.0  0.31651  0.52273  0.30898  1.0000
  H   H13       1.0  0.41419  0.14470  0.53102  1.0000
  H   H14       1.0  0.58583  0.85530  0.46897  1.0000
  H   H15       1.0  0.52017  0.22844  0.99141  1.0000
  H   H16       1.0  0.47982  0.77157  0.00858  1.0000
  C   C1        1.0  0.78187  0.54974  0.00242  1.0000
  C   C2        1.0  0.21814  0.45025  0.99758  1.0000
  C   C3        1.0  0.90597  0.67641  0.96733  1.0000
  C   C4        1.0  0.09404  0.32359  0.03267  1.0000
  C   C5        1.0  0.04793  0.81962  0.08121  1.0000
  C   C6        1.0  0.95207  0.18040  0.91880  1.0000
  C   C7        1.0  0.06327  0.83582  0.23134  1.0000
  C   C8        1.0  0.93672  0.16418  0.76866  1.0000
  C   C9        1.0  0.93892  0.70674  0.26660  1.0000
  C   C10       1.0  0.06108  0.29326  0.73340  1.0000
  C   C11       1.0  0.79830  0.56346  0.15184  1.0000
  C   C12       1.0  0.20170  0.43654  0.84816  1.0000
  C   C13       1.0  0.18485  0.94208  0.02939  1.0000
  C   C14       1.0  0.81514  0.05793  0.97061  1.0000
  C   C15       1.0  0.95998  0.71706  0.42636  1.0000
  C   C16       1.0  0.04002  0.28294  0.57364  1.0000
  C   C17       1.0  0.61095  0.37850  0.73019  1.0000
  C   C18       1.0  0.38905  0.62150  0.26980  1.0000
  C   C19       1.0  0.47845  0.21196  0.65090  1.0000
  C   C20       1.0  0.52156  0.78804  0.34910  1.0000
  C   C21       1.0  0.53082  0.25152  0.88899  1.0000
  C   C22       1.0  0.46919  0.74848  0.11100  1.0000
  N   N1        1.0  0.43078  0.13482  0.75090  1.0000
  N   N2        1.0  0.56922  0.86519  0.24911  1.0000
  N   N3        1.0  0.64364  0.40233  0.88157  1.0000
  N   N4        1.0  0.35637  0.59766  0.11843  1.0000
  O   O1        1.0  0.15579  0.88190  0.88124  1.0000
  O   O2        1.0  0.84419  0.11811  0.11876  1.0000
  O   O3        1.0  0.31063  0.08210  0.12217  1.0000
  O   O4        1.0  0.68936  0.91789  0.87784  1.0000
  O   O5        1.0  0.10593  0.84303  0.51638  1.0000
  O   O6        1.0  0.89407  0.15696  0.48362  1.0000
  O   O7        1.0  0.84381  0.61000  0.46286  1.0000
  O   O8        1.0  0.15619  0.38999  0.53714  1.0000
  O   O9        1.0  0.39982  0.71547  0.64318  1.0000
  O   O10       1.0  0.60018  0.28452  0.35683  1.0000
