data_image0
_chemical_formula_structural       Ni4H40C64N16O16
_chemical_formula_sum              "Ni4 H40 C64 N16 O16"
_cell_length_a       8.41409
_cell_length_b       15.0178
_cell_length_c       15.0178
_cell_angle_alpha    89.9999
_cell_angle_beta     89.9999
_cell_angle_gamma    89.9999

_space_group_name_H-M_alt    "P 1"
_space_group_IT_number       1

loop_
  _space_group_symop_operation_xyz
  'x, y, z'

loop_
  _atom_site_type_symbol
  _atom_site_label
  _atom_site_symmetry_multiplicity
  _atom_site_fract_x
  _atom_site_fract_y
  _atom_site_fract_z
  _atom_site_occupancy
  Ni  Ni1       1.0  1.00000  0.74451  0.74451  1.0000
  Ni  Ni2       1.0  0.50000  0.25549  0.25549  1.0000
  Ni  Ni3       1.0  0.75000  0.75549  0.24451  1.0000
  Ni  Ni4       1.0  0.25000  0.24451  0.75549  1.0000
  H   H1        1.0  0.80297  0.72000  0.92115  1.0000
  H   H2        1.0  0.30297  0.28000  0.07885  1.0000
  H   H3        1.0  0.55297  0.57885  0.22000  1.0000
  H   H4        1.0  0.05297  0.42115  0.78001  1.0000
  H   H5        1.0  0.94703  0.78000  0.42115  1.0000
  H   H6        1.0  0.44703  0.22000  0.57885  1.0000
  H   H7        1.0  0.19703  0.92115  0.72000  1.0000
  H   H8        1.0  0.69703  0.07885  0.28000  1.0000
  H   H9        1.0  0.91138  0.72965  0.07544  1.0000
  H   H10       1.0  0.41139  0.27035  0.92456  1.0000
  H   H11       1.0  0.66138  0.42456  0.22965  1.0000
  H   H12       1.0  0.16139  0.57544  0.77035  1.0000
  H   H13       1.0  0.83861  0.77035  0.57544  1.0000
  H   H14       1.0  0.33862  0.22965  0.42456  1.0000
  H   H15       1.0  0.08862  0.07544  0.72965  1.0000
  H   H16       1.0  0.58862  0.92456  0.27035  1.0000
  H   H17       1.0  0.23444  0.73826  0.15253  1.0000
  H   H18       1.0  0.73445  0.26174  0.84747  1.0000
  H   H19       1.0  0.98444  0.34747  0.23827  1.0000
  H   H20       1.0  0.48444  0.65253  0.76173  1.0000
  H   H21       1.0  0.51555  0.76174  0.65253  1.0000
  H   H22       1.0  0.01556  0.23826  0.34747  1.0000
  H   H23       1.0  0.76556  0.15253  0.73826  1.0000
  H   H24       1.0  0.26556  0.84747  0.26174  1.0000
  H   H25       1.0  0.57884  0.78244  0.94424  1.0000
  H   H26       1.0  0.07885  0.21757  0.05576  1.0000
  H   H27       1.0  0.32884  0.55576  0.28244  1.0000
  H   H28       1.0  0.82885  0.44424  0.71756  1.0000
  H   H29       1.0  0.17115  0.71756  0.44424  1.0000
  H   H30       1.0  0.67116  0.28243  0.55576  1.0000
  H   H31       1.0  0.42115  0.94424  0.78244  1.0000
  H   H32       1.0  0.92115  0.05576  0.21757  1.0000
  H   H33       1.0  0.36727  0.77285  0.82703  1.0000
  H   H34       1.0  0.86727  0.22715  0.17297  1.0000
  H   H35       1.0  0.11727  0.67297  0.27285  1.0000
  H   H36       1.0  0.61728  0.32703  0.72715  1.0000
  H   H37       1.0  0.38273  0.72715  0.32703  1.0000
  H   H38       1.0  0.88273  0.27285  0.67297  1.0000
  H   H39       1.0  0.63273  0.82703  0.77285  1.0000
  H   H40       1.0  0.13273  0.17297  0.22715  1.0000
  C   C1        1.0  0.54960  0.75834  0.12130  1.0000
  C   C2        1.0  0.04961  0.24166  0.87870  1.0000
  C   C3        1.0  0.29961  0.37870  0.25834  1.0000
  C   C4        1.0  0.79961  0.62130  0.74166  1.0000
  C   C5        1.0  0.20039  0.74166  0.62130  1.0000
  C   C6        1.0  0.70039  0.25834  0.37870  1.0000
  C   C7        1.0  0.45040  0.12130  0.75834  1.0000
  C   C8        1.0  0.95039  0.87870  0.24166  1.0000
  C   C9        1.0  0.42010  0.75817  0.05410  1.0000
  C   C10       1.0  0.92010  0.24183  0.94590  1.0000
  C   C11       1.0  0.17010  0.44590  0.25817  1.0000
  C   C12       1.0  0.67010  0.55410  0.74183  1.0000
  C   C13       1.0  0.32990  0.74183  0.55410  1.0000
  C   C14       1.0  0.82990  0.25817  0.44590  1.0000
  C   C15       1.0  0.57990  0.05410  0.75817  1.0000
  C   C16       1.0  0.07990  0.94590  0.24183  1.0000
  C   C17       1.0  0.45601  0.76914  0.96268  1.0000
  C   C18       1.0  0.95602  0.23087  0.03732  1.0000
  C   C19       1.0  0.20602  0.53732  0.26914  1.0000
  C   C20       1.0  0.70602  0.46268  0.73086  1.0000
  C   C21       1.0  0.29398  0.73086  0.46268  1.0000
  C   C22       1.0  0.79398  0.26913  0.53733  1.0000
  C   C23       1.0  0.54398  0.96268  0.76914  1.0000
  C   C24       1.0  0.04398  0.03732  0.23086  1.0000
  C   C25       1.0  0.33979  0.76464  0.89726  1.0000
  C   C26       1.0  0.83979  0.23537  0.10274  1.0000
  C   C27       1.0  0.08979  0.60274  0.26464  1.0000
  C   C28       1.0  0.58979  0.39726  0.73536  1.0000
  C   C29       1.0  0.41021  0.73537  0.39726  1.0000
  C   C30       1.0  0.91021  0.26463  0.60274  1.0000
  C   C31       1.0  0.66021  0.89726  0.76464  1.0000
  C   C32       1.0  0.16021  0.10274  0.23536  1.0000
  C   C33       1.0  0.18285  0.74890  0.92459  1.0000
  C   C34       1.0  0.68285  0.25110  0.07541  1.0000
  C   C35       1.0  0.93285  0.57541  0.24890  1.0000
  C   C36       1.0  0.43285  0.42459  0.75110  1.0000
  C   C37       1.0  0.56714  0.75110  0.42459  1.0000
  C   C38       1.0  0.06715  0.24890  0.57541  1.0000
  C   C39       1.0  0.81715  0.92459  0.74890  1.0000
  C   C40       1.0  0.31715  0.07541  0.25110  1.0000
  C   C41       1.0  0.14691  0.74148  0.01674  1.0000
  C   C42       1.0  0.64691  0.25852  0.98326  1.0000
  C   C43       1.0  0.89691  0.48326  0.24148  1.0000
  C   C44       1.0  0.39691  0.51674  0.75852  1.0000
  C   C45       1.0  0.60309  0.75852  0.51674  1.0000
  C   C46       1.0  0.10309  0.24148  0.48326  1.0000
  C   C47       1.0  0.85309  0.01674  0.74148  1.0000
  C   C48       1.0  0.35309  0.98326  0.25852  1.0000
  C   C49       1.0  0.26331  0.74537  0.08236  1.0000
  C   C50       1.0  0.76332  0.25463  0.91764  1.0000
  C   C51       1.0  0.01332  0.41764  0.24537  1.0000
  C   C52       1.0  0.51332  0.58237  0.75463  1.0000
  C   C53       1.0  0.48668  0.75463  0.58236  1.0000
  C   C54       1.0  0.98668  0.24537  0.41764  1.0000
  C   C55       1.0  0.73668  0.08236  0.74537  1.0000
  C   C56       1.0  0.23668  0.91764  0.25463  1.0000
  C   C57       1.0  0.92776  0.72856  0.93674  1.0000
  C   C58       1.0  0.42777  0.27144  0.06326  1.0000
  C   C59       1.0  0.67777  0.56326  0.22856  1.0000
  C   C60       1.0  0.17777  0.43674  0.77144  1.0000
  C   C61       1.0  0.82223  0.77144  0.43674  1.0000
  C   C62       1.0  0.32223  0.22856  0.56326  1.0000
  C   C63       1.0  0.07224  0.93674  0.72856  1.0000
  C   C64       1.0  0.57223  0.06326  0.27144  1.0000
  N   N1        1.0  0.04207  0.73944  0.87648  1.0000
  N   N2        1.0  0.54207  0.26055  0.12352  1.0000
  N   N3        1.0  0.79207  0.62352  0.23945  1.0000
  N   N4        1.0  0.29208  0.37648  0.76055  1.0000
  N   N5        1.0  0.70792  0.76055  0.37648  1.0000
  N   N6        1.0  0.20793  0.23945  0.62352  1.0000
  N   N7        1.0  0.95793  0.87648  0.73945  1.0000
  N   N8        1.0  0.45793  0.12352  0.26055  1.0000
  N   N9        1.0  0.98430  0.72902  0.02104  1.0000
  N   N10       1.0  0.48430  0.27098  0.97896  1.0000
  N   N11       1.0  0.73430  0.47896  0.22902  1.0000
  N   N12       1.0  0.23430  0.52104  0.77098  1.0000
  N   N13       1.0  0.76570  0.77098  0.52104  1.0000
  N   N14       1.0  0.26570  0.22902  0.47896  1.0000
  N   N15       1.0  0.01570  0.02104  0.72902  1.0000
  N   N16       1.0  0.51570  0.97896  0.27098  1.0000
  O   O1        1.0  0.69545  0.76146  0.09819  1.0000
  O   O2        1.0  0.19546  0.23854  0.90180  1.0000
  O   O3        1.0  0.44545  0.40180  0.26146  1.0000
  O   O4        1.0  0.94545  0.59820  0.73854  1.0000
  O   O5        1.0  0.05454  0.73854  0.59820  1.0000
  O   O6        1.0  0.55455  0.26146  0.40180  1.0000
  O   O7        1.0  0.30455  0.09820  0.76146  1.0000
  O   O8        1.0  0.80455  0.90180  0.23854  1.0000
  O   O9        1.0  0.51429  0.75385  0.20461  1.0000
  O   O10       1.0  0.01430  0.24615  0.79539  1.0000
  O   O11       1.0  0.26429  0.29539  0.25385  1.0000
  O   O12       1.0  0.76430  0.70461  0.74615  1.0000
  O   O13       1.0  0.23570  0.74615  0.70461  1.0000
  O   O14       1.0  0.73570  0.25385  0.29539  1.0000
  O   O15       1.0  0.48571  0.20461  0.75385  1.0000
  O   O16       1.0  0.98571  0.79539  0.24615  1.0000
