data_image0
_chemical_formula_structural       CuH6C6N8O4
_chemical_formula_sum              "Cu1 H6 C6 N8 O4"
_cell_length_a       4.87822
_cell_length_b       7.11268
_cell_length_c       8.11045
_cell_angle_alpha    109.365
_cell_angle_beta     104.623
_cell_angle_gamma    97.4457

_space_group_name_H-M_alt    "P 1"
_space_group_IT_number       1

loop_
  _space_group_symop_operation_xyz
  'x, y, z'

loop_
  _atom_site_type_symbol
  _atom_site_label
  _atom_site_symmetry_multiplicity
  _atom_site_fract_x
  _atom_site_fract_y
  _atom_site_fract_z
  _atom_site_occupancy
  Cu  Cu1       1.0  1.00000  0.50000  1.00000  1.0000
  H   H1        1.0  0.94245  0.83854  0.35538  1.0000
  H   H2        1.0  0.05754  0.16146  0.64462  1.0000
  H   H3        1.0  0.81644  0.22834  0.24917  1.0000
  H   H4        1.0  0.18356  0.77166  0.75083  1.0000
  H   H5        1.0  0.74088  0.36738  0.45399  1.0000
  H   H6        1.0  0.25912  0.63262  0.54601  1.0000
  C   C1        1.0  0.11410  0.90227  0.31292  1.0000
  C   C2        1.0  0.88590  0.09773  0.68708  1.0000
  C   C3        1.0  0.64413  0.27538  0.30597  1.0000
  C   C4        1.0  0.35587  0.72463  0.69404  1.0000
  C   C5        1.0  0.50340  0.40998  0.21034  1.0000
  C   C6        1.0  0.49660  0.59002  0.78967  1.0000
  N   N1        1.0  0.26992  0.09510  0.38847  1.0000
  N   N2        1.0  0.73008  0.90490  0.61152  1.0000
  N   N3        1.0  0.44321  0.09342  0.28416  1.0000
  N   N4        1.0  0.55679  0.90658  0.71584  1.0000
  N   N5        1.0  0.40240  0.91313  0.15090  1.0000
  N   N6        1.0  0.59760  0.08687  0.84910  1.0000
  N   N7        1.0  0.19411  0.79092  0.16955  1.0000
  N   N8        1.0  0.80590  0.20908  0.83045  1.0000
  O   O1        1.0  0.22457  0.37568  0.16346  1.0000
  O   O2        1.0  0.77543  0.62432  0.83654  1.0000
  O   O3        1.0  0.67636  0.54086  0.19264  1.0000
  O   O4        1.0  0.32363  0.45914  0.80736  1.0000
