data_image0
_chemical_formula_structural       Na2H40C34N2O8
_chemical_formula_sum              "Na2 H40 C34 N2 O8"
_cell_length_a       5.69402
_cell_length_b       8.74457
_cell_length_c       16.5781
_cell_angle_alpha    92.6097
_cell_angle_beta     90.0021
_cell_angle_gamma    89.9997

_space_group_name_H-M_alt    "P 1"
_space_group_IT_number       1

loop_
  _space_group_symop_operation_xyz
  'x, y, z'

loop_
  _atom_site_type_symbol
  _atom_site_label
  _atom_site_symmetry_multiplicity
  _atom_site_fract_x
  _atom_site_fract_y
  _atom_site_fract_z
  _atom_site_occupancy
  Na  Na1       1.0  0.13061  0.41863  0.96991  1.0000
  Na  Na2       1.0  0.63060  0.58137  0.03010  1.0000
  H   H1        1.0  0.84696  0.46544  0.65283  1.0000
  H   H2        1.0  0.34694  0.53456  0.34719  1.0000
  H   H3        1.0  0.20796  0.60569  0.77353  1.0000
  H   H4        1.0  0.70795  0.39431  0.22646  1.0000
  H   H5        1.0  0.81979  0.69757  0.39947  1.0000
  H   H6        1.0  0.31980  0.30241  0.60054  1.0000
  H   H7        1.0  0.19710  0.86320  0.52418  1.0000
  H   H8        1.0  0.69710  0.13679  0.47581  1.0000
  H   H9        1.0  0.94227  0.56178  0.52053  1.0000
  H   H10       1.0  0.44228  0.43820  0.47949  1.0000
  H   H11       1.0  0.11193  0.77468  0.66254  1.0000
  H   H12       1.0  0.61193  0.22532  0.33745  1.0000
  H   H13       1.0  0.36771  0.22313  0.72541  1.0000
  H   H14       1.0  0.86774  0.77686  0.27459  1.0000
  H   H15       1.0  0.21367  0.34176  0.79744  1.0000
  H   H16       1.0  0.71367  0.65823  0.20256  1.0000
  H   H17       1.0  0.41335  0.20306  0.83079  1.0000
  H   H18       1.0  0.91334  0.79694  0.16920  1.0000
  H   H19       1.0  0.24499  0.00235  0.32361  1.0000
  H   H20       1.0  0.74499  0.99766  0.67638  1.0000
  H   H21       1.0  0.26912  0.05271  0.42930  1.0000
  H   H22       1.0  0.76910  0.94730  0.57070  1.0000
  H   H23       1.0  0.09245  0.89275  0.39584  1.0000
  H   H24       1.0  0.59243  0.10726  0.60416  1.0000
  H   H25       1.0  0.27410  0.90269  0.94298  1.0000
  H   H26       1.0  0.77411  0.09731  0.05703  1.0000
  H   H27       1.0  0.15245  0.74122  0.88723  1.0000
  H   H28       1.0  0.65248  0.25880  0.11277  1.0000
  H   H29       1.0  0.02989  0.80228  0.98253  1.0000
  H   H30       1.0  0.52990  0.19772  0.01747  1.0000
  H   H31       1.0  0.65783  0.96803  0.81372  1.0000
  H   H32       1.0  0.15787  0.03199  0.18628  1.0000
  H   H33       1.0  0.65502  0.80319  0.87339  1.0000
  H   H34       1.0  0.15502  0.19682  0.12661  1.0000
  H   H35       1.0  0.83879  0.80619  0.78655  1.0000
  H   H36       1.0  0.33881  0.19383  0.21345  1.0000
  H   H37       1.0  0.74787  0.34821  0.76679  1.0000
  H   H38       1.0  0.24788  0.65177  0.23322  1.0000
  H   H39       1.0  0.83825  0.16205  0.86913  1.0000
  H   H40       1.0  0.33827  0.83798  0.13088  1.0000
  C   C1        1.0  0.63366  0.62661  0.59048  1.0000
  C   C2        1.0  0.13365  0.37339  0.40952  1.0000
  C   C3        1.0  0.50197  0.78991  0.45481  1.0000
  C   C4        1.0  0.00197  0.21008  0.54520  1.0000
  C   C5        1.0  0.58101  0.40501  0.78309  1.0000
  C   C6        1.0  0.08102  0.59498  0.21691  1.0000
  C   C7        1.0  0.68630  0.53360  0.65580  1.0000
  C   C8        1.0  0.18629  0.46640  0.34420  1.0000
  C   C9        1.0  0.61533  0.48080  0.86798  1.0000
  C   C10       1.0  0.11533  0.51919  0.13203  1.0000
  C   C11       1.0  0.53404  0.52170  0.72020  1.0000
  C   C12       1.0  0.03404  0.47829  0.27979  1.0000
  C   C13       1.0  0.32739  0.61327  0.72240  1.0000
  C   C14       1.0  0.82739  0.38673  0.27759  1.0000
  C   C15       1.0  0.71364  0.70386  0.45418  1.0000
  C   C16       1.0  0.21364  0.29613  0.54583  1.0000
  C   C17       1.0  0.35933  0.79723  0.52267  1.0000
  C   C18       1.0  0.85933  0.20276  0.47732  1.0000
  C   C19       1.0  0.42056  0.71386  0.59131  1.0000
  C   C20       1.0  0.92057  0.28612  0.40868  1.0000
  C   C21       1.0  0.77936  0.62703  0.52100  1.0000
  C   C22       1.0  0.27935  0.37296  0.47901  1.0000
  C   C23       1.0  0.27385  0.70772  0.66047  1.0000
  C   C24       1.0  0.77386  0.29227  0.33952  1.0000
  C   C25       1.0  0.38286  0.28592  0.78404  1.0000
  C   C26       1.0  0.88287  0.71407  0.21596  1.0000
  C   C27       1.0  0.25367  0.95742  0.38402  1.0000
  C   C28       1.0  0.75366  0.04259  0.61598  1.0000
  C   C29       1.0  0.96960  0.09510  0.90201  1.0000
  C   C30       1.0  0.46961  0.90491  0.09799  1.0000
  C   C31       1.0  0.11226  0.84109  0.92700  1.0000
  C   C32       1.0  0.61228  0.15892  0.07300  1.0000
  C   C33       1.0  0.76646  0.87655  0.83732  1.0000
  C   C34       1.0  0.26648  0.12347  0.16268  1.0000
  N   N1        1.0  0.95423  0.94366  0.88661  1.0000
  N   N2        1.0  0.45425  0.05636  0.11339  1.0000
  O   O1        1.0  0.43324  0.52702  0.90651  1.0000
  O   O2        1.0  0.93323  0.47295  0.09349  1.0000
  O   O3        1.0  0.82250  0.49292  0.89571  1.0000
  O   O4        1.0  0.32250  0.50707  0.10429  1.0000
  O   O5        1.0  0.45683  0.86115  0.38460  1.0000
  O   O6        1.0  0.95682  0.13885  0.61540  1.0000
  O   O7        1.0  0.11654  0.15854  0.94836  1.0000
  O   O8        1.0  0.61655  0.84147  0.05165  1.0000
