data_image0
_chemical_formula_structural       MnH28C24N8O4
_chemical_formula_sum              "Mn1 H28 C24 N8 O4"
_cell_length_a       8.48457
_cell_length_b       9.19729
_cell_length_c       9.55775
_cell_angle_alpha    71.7869
_cell_angle_beta     64.7916
_cell_angle_gamma    79.5602

_space_group_name_H-M_alt    "P 1"
_space_group_IT_number       1

loop_
  _space_group_symop_operation_xyz
  'x, y, z'

loop_
  _atom_site_type_symbol
  _atom_site_label
  _atom_site_symmetry_multiplicity
  _atom_site_fract_x
  _atom_site_fract_y
  _atom_site_fract_z
  _atom_site_occupancy
  Mn  Mn1       1.0  1.00000  0.00000  0.00000  1.0000
  H   H1        1.0  0.60628  0.94024  0.10098  1.0000
  H   H2        1.0  0.39372  0.05977  0.89902  1.0000
  H   H3        1.0  0.91126  0.79125  0.36049  1.0000
  H   H4        1.0  0.08874  0.20875  0.63952  1.0000
  H   H5        1.0  0.39892  0.78351  0.36691  1.0000
  H   H6        1.0  0.60108  0.21650  0.63309  1.0000
  H   H7        1.0  0.67723  0.62184  0.64814  1.0000
  H   H8        1.0  0.32277  0.37816  0.35186  1.0000
  H   H9        1.0  0.51489  0.54574  0.62539  1.0000
  H   H10       1.0  0.48510  0.45426  0.37460  1.0000
  H   H11       1.0  0.46823  0.71601  0.68802  1.0000
  H   H12       1.0  0.53176  0.28400  0.31198  1.0000
  H   H13       1.0  0.76313  0.02126  0.81795  1.0000
  H   H14       1.0  0.23687  0.97873  0.18205  1.0000
  H   H15       1.0  0.17738  0.71828  0.82671  1.0000
  H   H16       1.0  0.82262  0.28172  0.17330  1.0000
  H   H17       1.0  0.80491  0.88350  0.60365  1.0000
  H   H18       1.0  0.19510  0.11649  0.39635  1.0000
  H   H19       1.0  0.20249  0.55951  0.61585  1.0000
  H   H20       1.0  0.79752  0.44049  0.38415  1.0000
  H   H21       1.0  0.13470  0.67084  0.46032  1.0000
  H   H22       1.0  0.86531  0.32916  0.53968  1.0000
  H   H23       1.0  0.99188  0.54295  0.63013  1.0000
  H   H24       1.0  0.00812  0.45705  0.36988  1.0000
  H   H25       1.0  0.18577  0.53349  0.04517  1.0000
  H   H26       1.0  0.81423  0.46651  0.95483  1.0000
  H   H27       1.0  0.64393  0.70808  0.00747  1.0000
  H   H28       1.0  0.35607  0.29192  0.99253  1.0000
  C   C1        1.0  0.79457  0.80559  0.33669  1.0000
  C   C2        1.0  0.20542  0.19441  0.66331  1.0000
  C   C3        1.0  0.62924  0.74688  0.43715  1.0000
  C   C4        1.0  0.37075  0.25312  0.56285  1.0000
  C   C5        1.0  0.53226  0.79965  0.34264  1.0000
  C   C6        1.0  0.46773  0.20035  0.65736  1.0000
  C   C7        1.0  0.56979  0.65285  0.60739  1.0000
  C   C8        1.0  0.43020  0.34715  0.39261  1.0000
  C   C9        1.0  0.07597  0.77728  0.78582  1.0000
  C   C10       1.0  0.92403  0.22273  0.21418  1.0000
  C   C11       1.0  0.02230  0.74927  0.67619  1.0000
  C   C12       1.0  0.97771  0.25073  0.32381  1.0000
  C   C13       1.0  0.88718  0.85955  0.67028  1.0000
  C   C14       1.0  0.11283  0.14044  0.32972  1.0000
  C   C15       1.0  0.09133  0.62522  0.59119  1.0000
  C   C16       1.0  0.90867  0.37478  0.40881  1.0000
  C   C17       1.0  0.30875  0.78565  0.05153  1.0000
  C   C18       1.0  0.69125  0.21435  0.94847  1.0000
  C   C19       1.0  0.40422  0.63689  0.02875  1.0000
  C   C20       1.0  0.59578  0.36311  0.97124  1.0000
  C   C21       1.0  0.32359  0.51855  0.02460  1.0000
  C   C22       1.0  0.67641  0.48144  0.97539  1.0000
  C   C23       1.0  0.58161  0.61632  0.00447  1.0000
  C   C24       1.0  0.41838  0.38368  0.99553  1.0000
  N   N1        1.0  0.79836  0.88897  0.19156  1.0000
  N   N2        1.0  0.20164  0.11103  0.80844  1.0000
  N   N3        1.0  0.63730  0.88297  0.19797  1.0000
  N   N4        1.0  0.36270  0.11703  0.80202  1.0000
  N   N5        1.0  0.97995  0.89554  0.84322  1.0000
  N   N6        1.0  0.02006  0.10446  0.15678  1.0000
  N   N7        1.0  0.86689  0.94470  0.76997  1.0000
  N   N8        1.0  0.13312  0.05530  0.23003  1.0000
  O   O1        1.0  0.15887  0.81217  0.04266  1.0000
  O   O2        1.0  0.84113  0.18782  0.95734  1.0000
  O   O3        1.0  0.38250  0.88047  0.07463  1.0000
  O   O4        1.0  0.61750  0.11953  0.92537  1.0000
