data_image0
_chemical_formula_structural       Zn2H60C60N16O12
_chemical_formula_sum              "Zn2 H60 C60 N16 O12"
_cell_length_a       9.01635
_cell_length_b       13.4815
_cell_length_c       13.0938
_cell_angle_alpha    81.5272
_cell_angle_beta     69.8493
_cell_angle_gamma    70.4554

_space_group_name_H-M_alt    "P 1"
_space_group_IT_number       1

loop_
  _space_group_symop_operation_xyz
  'x, y, z'

loop_
  _atom_site_type_symbol
  _atom_site_label
  _atom_site_symmetry_multiplicity
  _atom_site_fract_x
  _atom_site_fract_y
  _atom_site_fract_z
  _atom_site_occupancy
  Zn  Zn1       1.0  0.93843  0.25008  0.25035  1.0000
  Zn  Zn2       1.0  0.06157  0.74992  0.74965  1.0000
  H   H1        1.0  0.08554  0.35384  0.35180  1.0000
  H   H2        1.0  0.29130  0.14665  0.14908  1.0000
  H   H3        1.0  0.91446  0.64615  0.64820  1.0000
  H   H4        1.0  0.70870  0.85335  0.85092  1.0000
  H   H5        1.0  0.17318  0.33856  0.22588  1.0000
  H   H6        1.0  0.23768  0.16213  0.27500  1.0000
  H   H7        1.0  0.82681  0.66145  0.77412  1.0000
  H   H8        1.0  0.76232  0.83787  0.72500  1.0000
  H   H9        1.0  0.34300  0.19887  0.86439  1.0000
  H   H10       1.0  0.90662  0.30085  0.63592  1.0000
  H   H11       1.0  0.65699  0.80113  0.13562  1.0000
  H   H12       1.0  0.09338  0.69915  0.36407  1.0000
  H   H13       1.0  0.37546  0.08059  0.56651  1.0000
  H   H14       1.0  0.52252  0.41939  0.93366  1.0000
  H   H15       1.0  0.62454  0.91941  0.43350  1.0000
  H   H16       1.0  0.47749  0.58061  0.06634  1.0000
  H   H17       1.0  0.21076  0.35973  0.04496  1.0000
  H   H18       1.0  0.11519  0.14024  0.45545  1.0000
  H   H19       1.0  0.78925  0.64027  0.95504  1.0000
  H   H20       1.0  0.88480  0.85976  0.54455  1.0000
  H   H21       1.0  0.17750  0.41275  0.61774  1.0000
  H   H22       1.0  0.70758  0.08724  0.88259  1.0000
  H   H23       1.0  0.82251  0.58725  0.38226  1.0000
  H   H24       1.0  0.29243  0.91276  0.11740  1.0000
  H   H25       1.0  0.30997  0.41471  0.84254  1.0000
  H   H26       1.0  0.06723  0.08501  0.65785  1.0000
  H   H27       1.0  0.69003  0.58529  0.15747  1.0000
  H   H28       1.0  0.93276  0.91499  0.34215  1.0000
  H   H29       1.0  0.14584  0.48168  0.78744  1.0000
  H   H30       1.0  0.91490  0.01815  0.71299  1.0000
  H   H31       1.0  0.85416  0.51833  0.21256  1.0000
  H   H32       1.0  0.08509  0.98185  0.28701  1.0000
  H   H33       1.0  0.52467  0.96688  0.70549  1.0000
  H   H34       1.0  0.69736  0.53293  0.79472  1.0000
  H   H35       1.0  0.47532  0.03312  0.29451  1.0000
  H   H36       1.0  0.30265  0.46707  0.20528  1.0000
  H   H37       1.0  0.45815  0.01643  0.83798  1.0000
  H   H38       1.0  0.81326  0.48325  0.66229  1.0000
  H   H39       1.0  0.54185  0.98357  0.16203  1.0000
  H   H40       1.0  0.18674  0.51675  0.33770  1.0000
  H   H41       1.0  0.90444  0.37891  0.85604  1.0000
  H   H42       1.0  0.63934  0.12073  0.64466  1.0000
  H   H43       1.0  0.09555  0.62110  0.14397  1.0000
  H   H44       1.0  0.36065  0.87927  0.35534  1.0000
  H   H45       1.0  0.77224  0.29891  0.06207  1.0000
  H   H46       1.0  0.63254  0.20134  0.43889  1.0000
  H   H47       1.0  0.22774  0.70111  0.93794  1.0000
  H   H48       1.0  0.36745  0.79865  0.56111  1.0000
  H   H49       1.0  0.40940  0.83364  0.70042  1.0000
  H   H50       1.0  0.44431  0.66655  0.79907  1.0000
  H   H51       1.0  0.59059  0.16636  0.29958  1.0000
  H   H52       1.0  0.55569  0.33345  0.20093  1.0000
  H   H53       1.0  0.08943  0.08239  0.90859  1.0000
  H   H54       1.0  0.58104  0.41716  0.59181  1.0000
  H   H55       1.0  0.91056  0.91761  0.09142  1.0000
  H   H56       1.0  0.41897  0.58284  0.40819  1.0000
  H   H57       1.0  0.91821  0.94290  0.91275  1.0000
  H   H58       1.0  0.27478  0.55678  0.58716  1.0000
  H   H59       1.0  0.08178  0.05711  0.08724  1.0000
  H   H60       1.0  0.72523  0.44322  0.41283  1.0000
  C   C1        1.0  0.24382  0.26567  0.47173  1.0000
  C   C2        1.0  0.48114  0.23445  0.02862  1.0000
  C   C3        1.0  0.75618  0.73433  0.52828  1.0000
  C   C4        1.0  0.51887  0.76555  0.97138  1.0000
  C   C5        1.0  0.32515  0.21366  0.78436  1.0000
  C   C6        1.0  0.82337  0.28616  0.71593  1.0000
  C   C7        1.0  0.67484  0.78635  0.21565  1.0000
  C   C8        1.0  0.17663  0.71384  0.28406  1.0000
  C   C9        1.0  0.26112  0.31700  0.74706  1.0000
  C   C10       1.0  0.82513  0.18285  0.75328  1.0000
  C   C11       1.0  0.73888  0.68300  0.25295  1.0000
  C   C12       1.0  0.17487  0.81715  0.24671  1.0000
  C   C13       1.0  0.34221  0.14632  0.61823  1.0000
  C   C14       1.0  0.60674  0.35365  0.88193  1.0000
  C   C15       1.0  0.65779  0.85368  0.38177  1.0000
  C   C16       1.0  0.39327  0.64635  0.11806  1.0000
  C   C17       1.0  0.27796  0.24862  0.57985  1.0000
  C   C18       1.0  0.60620  0.25140  0.92037  1.0000
  C   C19       1.0  0.72204  0.75138  0.42016  1.0000
  C   C20       1.0  0.39381  0.74861  0.07963  1.0000
  C   C21       1.0  0.10738  0.35413  0.02390  1.0000
  C   C22       1.0  0.98510  0.14586  0.47662  1.0000
  C   C23       1.0  0.89262  0.64587  0.97610  1.0000
  C   C24       1.0  0.01490  0.85412  0.52338  1.0000
  C   C25       1.0  0.36273  0.12826  0.72152  1.0000
  C   C26       1.0  0.71268  0.37161  0.77868  1.0000
  C   C27       1.0  0.63726  0.87174  0.27849  1.0000
  C   C28       1.0  0.28732  0.62839  0.22131  1.0000
  C   C29       1.0  0.23496  0.33365  0.64600  1.0000
  C   C30       1.0  0.71435  0.16630  0.85430  1.0000
  C   C31       1.0  0.76505  0.66636  0.35400  1.0000
  C   C32       1.0  0.28565  0.83370  0.14569  1.0000
  C   C33       1.0  0.20571  0.40650  0.82294  1.0000
  C   C34       1.0  0.93512  0.09329  0.67748  1.0000
  C   C35       1.0  0.79429  0.59350  0.17707  1.0000
  C   C36       1.0  0.06488  0.90670  0.32251  1.0000
  C   C37       1.0  0.42008  0.01751  0.76653  1.0000
  C   C38       1.0  0.70459  0.48232  0.73363  1.0000
  C   C39       1.0  0.57991  0.98249  0.23348  1.0000
  C   C40       1.0  0.29542  0.51768  0.26636  1.0000
  C   C41       1.0  0.94343  0.36535  0.92738  1.0000
  C   C42       1.0  0.73597  0.13444  0.57328  1.0000
  C   C43       1.0  0.05657  0.63465  0.07263  1.0000
  C   C44       1.0  0.26403  0.86555  0.42672  1.0000
  C   C45       1.0  0.88135  0.32475  0.02944  1.0000
  C   C46       1.0  0.73506  0.17534  0.47136  1.0000
  C   C47       1.0  0.11864  0.67525  0.97057  1.0000
  C   C48       1.0  0.26493  0.82465  0.52864  1.0000
  C   C49       1.0  0.29522  0.87969  0.75736  1.0000
  C   C50       1.0  0.43312  0.62041  0.74225  1.0000
  C   C51       1.0  0.70477  0.12031  0.24264  1.0000
  C   C52       1.0  0.56688  0.37959  0.25775  1.0000
  C   C53       1.0  0.12869  0.00883  0.86877  1.0000
  C   C54       1.0  0.50700  0.49089  0.63135  1.0000
  C   C55       1.0  0.87130  0.99117  0.13123  1.0000
  C   C56       1.0  0.49301  0.50912  0.36865  1.0000
  C   C57       1.0  0.04574  0.93975  0.86919  1.0000
  C   C58       1.0  0.35553  0.56005  0.63067  1.0000
  C   C59       1.0  0.95426  0.06026  0.13080  1.0000
  C   C60       1.0  0.64448  0.43996  0.36933  1.0000
  N   N1        1.0  0.08628  0.38355  0.92483  1.0000
  N   N2        1.0  0.89459  0.11619  0.57564  1.0000
  N   N3        1.0  0.91372  0.61645  0.07517  1.0000
  N   N4        1.0  0.10540  0.88380  0.42436  1.0000
  N   N5        1.0  0.98465  0.31800  0.08927  1.0000
  N   N6        1.0  0.89137  0.18221  0.41143  1.0000
  N   N7        1.0  0.01535  0.68201  0.91073  1.0000
  N   N8        1.0  0.10863  0.81778  0.58857  1.0000
  N   N9        1.0  0.28668  0.96913  0.79778  1.0000
  N   N10       1.0  0.55428  0.53079  0.70216  1.0000
  N   N11       1.0  0.71332  0.03088  0.20222  1.0000
  N   N12       1.0  0.44573  0.46922  0.29784  1.0000
  N   N13       1.0  0.14985  0.86008  0.79905  1.0000
  N   N14       1.0  0.30990  0.63996  0.70051  1.0000
  N   N15       1.0  0.85014  0.13992  0.20094  1.0000
  N   N16       1.0  0.69010  0.36003  0.29950  1.0000
  O   O1        1.0  0.06179  0.36027  0.27960  1.0000
  O   O2        1.0  0.20163  0.14046  0.22130  1.0000
  O   O3        1.0  0.93821  0.63973  0.72041  1.0000
  O   O4        1.0  0.79837  0.85954  0.77869  1.0000
  O   O5        1.0  0.32489  0.19397  0.40224  1.0000
  O   O6        1.0  0.42083  0.30639  0.09783  1.0000
  O   O7        1.0  0.67511  0.80602  0.59777  1.0000
  O   O8        1.0  0.57919  0.69361  0.90216  1.0000
  O   O9        1.0  0.12916  0.34902  0.46131  1.0000
  O   O10       1.0  0.43979  0.15091  0.03946  1.0000
  O   O11       1.0  0.87085  0.65097  0.53869  1.0000
  O   O12       1.0  0.56023  0.84908  0.96055  1.0000
