data_image0
_chemical_formula_structural       Ag4H26C48O8F28
_chemical_formula_sum              "Ag4 H26 C48 O8 F28"
_cell_length_a       10.8069
_cell_length_b       11.1036
_cell_length_c       12.4377
_cell_angle_alpha    102.191
_cell_angle_beta     99.1252
_cell_angle_gamma    115.003

_space_group_name_H-M_alt    "P 1"
_space_group_IT_number       1

loop_
  _space_group_symop_operation_xyz
  'x, y, z'

loop_
  _atom_site_type_symbol
  _atom_site_label
  _atom_site_symmetry_multiplicity
  _atom_site_fract_x
  _atom_site_fract_y
  _atom_site_fract_z
  _atom_site_occupancy
  Ag  Ag1       1.0  0.88768  0.57296  0.43271  1.0000
  Ag  Ag2       1.0  0.11232  0.42704  0.56729  1.0000
  Ag  Ag3       1.0  0.68863  0.63789  0.53983  1.0000
  Ag  Ag4       1.0  0.31137  0.36211  0.46017  1.0000
  H   H1        1.0  0.79496  0.74984  0.30365  1.0000
  H   H2        1.0  0.20504  0.25016  0.69635  1.0000
  H   H3        1.0  0.69098  0.83706  0.44292  1.0000
  H   H4        1.0  0.30902  0.16294  0.55708  1.0000
  H   H5        1.0  0.06294  0.96092  0.71681  1.0000
  H   H6        1.0  0.93706  0.03908  0.28319  1.0000
  H   H7        1.0  0.17065  0.88185  0.57586  1.0000
  H   H8        1.0  0.82935  0.11815  0.42414  1.0000
  H   H9        1.0  0.16360  0.79843  0.36520  1.0000
  H   H10       1.0  0.83640  0.20157  0.63480  1.0000
  H   H11       1.0  0.01393  0.76211  0.25683  1.0000
  H   H12       1.0  0.98607  0.23789  0.74317  1.0000
  H   H13       1.0  0.72144  0.97699  0.63815  1.0000
  H   H14       1.0  0.27856  0.02301  0.36184  1.0000
  H   H15       1.0  0.86515  0.01789  0.75425  1.0000
  H   H16       1.0  0.13485  0.98211  0.24575  1.0000
  H   H17       1.0  0.59079  0.97315  0.19847  1.0000
  H   H18       1.0  0.40921  0.02685  0.80152  1.0000
  H   H19       1.0  0.38007  0.61063  0.30523  1.0000
  H   H20       1.0  0.61993  0.38937  0.69477  1.0000
  H   H21       1.0  0.48105  0.71578  0.16175  1.0000
  H   H22       1.0  0.51895  0.28421  0.83825  1.0000
  H   H23       1.0  0.32584  0.63803  0.49221  1.0000
  H   H24       1.0  0.67416  0.36197  0.50779  1.0000
  H   H25       1.0  0.66361  0.21053  0.32646  1.0000
  H   H26       1.0  0.33639  0.78947  0.67354  1.0000
  C   C1        1.0  0.85321  0.79178  0.39428  1.0000
  C   C2        1.0  0.14679  0.20822  0.60572  1.0000
  C   C3        1.0  0.79111  0.83720  0.47515  1.0000
  C   C4        1.0  0.20889  0.16280  0.52485  1.0000
  C   C5        1.0  0.87224  0.91330  0.59063  1.0000
  C   C6        1.0  0.12776  0.08670  0.40936  1.0000
  C   C7        1.0  0.00302  0.91363  0.62646  1.0000
  C   C8        1.0  0.99698  0.08637  0.37354  1.0000
  C   C9        1.0  0.06357  0.86818  0.54709  1.0000
  C   C10       1.0  0.93643  0.13182  0.45291  1.0000
  C   C11       1.0  0.99607  0.81932  0.42751  1.0000
  C   C12       1.0  0.00392  0.18068  0.57249  1.0000
  C   C13       1.0  0.08315  0.83146  0.34250  1.0000
  C   C14       1.0  0.91685  0.16854  0.65750  1.0000
  C   C15       1.0  0.83635  0.01328  0.66426  1.0000
  C   C16       1.0  0.16365  0.98672  0.33574  1.0000
  C   C17       1.0  0.55496  0.40189  0.29845  1.0000
  C   C18       1.0  0.44504  0.59811  0.70155  1.0000
  C   C19       1.0  0.92097  0.57895  0.68870  1.0000
  C   C20       1.0  0.07903  0.42105  0.31130  1.0000
  C   C21       1.0  0.43470  0.28271  0.19150  1.0000
  C   C22       1.0  0.56530  0.71729  0.80850  1.0000
  C   C23       1.0  0.40035  0.33909  0.09227  1.0000
  C   C24       1.0  0.59965  0.66091  0.90773  1.0000
  C   C25       1.0  0.27356  0.23119  0.98505  1.0000
  C   C26       1.0  0.72644  0.76881  0.01495  1.0000
  C   C27       1.0  0.99690  0.58490  0.80915  1.0000
  C   C28       1.0  0.00310  0.41510  0.19085  1.0000
  C   C29       1.0  0.11622  0.73629  0.87880  1.0000
  C   C30       1.0  0.88378  0.26371  0.12120  1.0000
  C   C31       1.0  0.19991  0.75736  0.00171  1.0000
  C   C32       1.0  0.80009  0.24264  0.99829  1.0000
  C   C33       1.0  0.54771  0.92738  0.26210  1.0000
  C   C34       1.0  0.45229  0.07262  0.73790  1.0000
  C   C35       1.0  0.55439  0.01602  0.36453  1.0000
  C   C36       1.0  0.44560  0.98398  0.63547  1.0000
  C   C37       1.0  0.49656  0.95615  0.44755  1.0000
  C   C38       1.0  0.50344  0.04385  0.55245  1.0000
  C   C39       1.0  0.43219  0.80800  0.42517  1.0000
  C   C40       1.0  0.56781  0.19199  0.57483  1.0000
  C   C41       1.0  0.42825  0.72341  0.32171  1.0000
  C   C42       1.0  0.57175  0.27659  0.67829  1.0000
  C   C43       1.0  0.48580  0.78308  0.24157  1.0000
  C   C44       1.0  0.51420  0.21692  0.75843  1.0000
  C   C45       1.0  0.37494  0.75113  0.50996  1.0000
  C   C46       1.0  0.62506  0.24886  0.49003  1.0000
  C   C47       1.0  0.61892  0.16499  0.38950  1.0000
  C   C48       1.0  0.38108  0.83501  0.61050  1.0000
  O   O1        1.0  0.67798  0.43614  0.28892  1.0000
  O   O2        1.0  0.32202  0.56386  0.71108  1.0000
  O   O3        1.0  0.51561  0.45000  0.38042  1.0000
  O   O4        1.0  0.48439  0.55000  0.61958  1.0000
  O   O5        1.0  0.82248  0.61022  0.68825  1.0000
  O   O6        1.0  0.17752  0.38978  0.31175  1.0000
  O   O7        1.0  0.96935  0.54709  0.60682  1.0000
  O   O8        1.0  0.03066  0.45292  0.39318  1.0000
  F   F1        1.0  0.31176  0.21466  0.22059  1.0000
  F   F2        1.0  0.68825  0.78534  0.77941  1.0000
  F   F3        1.0  0.47614  0.18535  0.14998  1.0000
  F   F4        1.0  0.52386  0.81465  0.85002  1.0000
  F   F5        1.0  0.37026  0.44455  0.13429  1.0000
  F   F6        1.0  0.62974  0.55545  0.86571  1.0000
  F   F7        1.0  0.51803  0.39263  0.05405  1.0000
  F   F8        1.0  0.48197  0.60737  0.94595  1.0000
  F   F9        1.0  0.25995  0.29758  0.90719  1.0000
  F   F10       1.0  0.74005  0.70242  0.09281  1.0000
  F   F11       1.0  0.29823  0.12584  0.93496  1.0000
  F   F12       1.0  0.70177  0.87416  0.06504  1.0000
  F   F13       1.0  0.14962  0.17580  0.01154  1.0000
  F   F14       1.0  0.85038  0.82420  0.98846  1.0000
  F   F15       1.0  0.90118  0.54213  0.87088  1.0000
  F   F16       1.0  0.09882  0.45787  0.12912  1.0000
  F   F17       1.0  0.05762  0.49791  0.79904  1.0000
  F   F18       1.0  0.94238  0.50209  0.20096  1.0000
  F   F19       1.0  0.05798  0.82457  0.88984  1.0000
  F   F20       1.0  0.94202  0.17543  0.11016  1.0000
  F   F21       1.0  0.21338  0.77809  0.81800  1.0000
  F   F22       1.0  0.78662  0.22191  0.18200  1.0000
  F   F23       1.0  0.30196  0.89261  0.04799  1.0000
  F   F24       1.0  0.69804  0.10739  0.95202  1.0000
  F   F25       1.0  0.11266  0.72900  0.07034  1.0000
  F   F26       1.0  0.88733  0.27100  0.92966  1.0000
  F   F27       1.0  0.26237  0.67474  0.99838  1.0000
  F   F28       1.0  0.73763  0.32525  0.00162  1.0000
