data_image0
_chemical_formula_structural       Ag4H16C32O8F28
_chemical_formula_sum              "Ag4 H16 C32 O8 F28"
_cell_length_a       9.6836
_cell_length_b       9.93501
_cell_length_c       15.0503
_cell_angle_alpha    105.118
_cell_angle_beta     93.5445
_cell_angle_gamma    117.573

_space_group_name_H-M_alt    "P 1"
_space_group_IT_number       1

loop_
  _space_group_symop_operation_xyz
  'x, y, z'

loop_
  _atom_site_type_symbol
  _atom_site_label
  _atom_site_symmetry_multiplicity
  _atom_site_fract_x
  _atom_site_fract_y
  _atom_site_fract_z
  _atom_site_occupancy
  Ag  Ag1       1.0  0.11369  0.04007  0.40664  1.0000
  Ag  Ag2       1.0  0.88631  0.95993  0.59336  1.0000
  Ag  Ag3       1.0  0.39322  0.01909  0.40070  1.0000
  Ag  Ag4       1.0  0.60678  0.98091  0.59929  1.0000
  H   H1        1.0  0.25966  0.25681  0.31953  1.0000
  H   H2        1.0  0.74034  0.74319  0.68047  1.0000
  H   H3        1.0  0.51689  0.26410  0.33630  1.0000
  H   H4        1.0  0.48311  0.73590  0.66370  1.0000
  H   H5        1.0  0.56812  0.39913  0.63800  1.0000
  H   H6        1.0  0.43188  0.60086  0.36200  1.0000
  H   H7        1.0  0.30825  0.39044  0.62160  1.0000
  H   H8        1.0  0.69175  0.60955  0.37840  1.0000
  H   H9        1.0  0.07285  0.36509  0.51005  1.0000
  H   H10       1.0  0.92715  0.63491  0.48995  1.0000
  H   H11       1.0  0.09125  0.35568  0.39261  1.0000
  H   H12       1.0  0.90875  0.64432  0.60739  1.0000
  H   H13       1.0  0.77152  0.36044  0.43509  1.0000
  H   H14       1.0  0.22848  0.63956  0.56491  1.0000
  H   H15       1.0  0.78446  0.36869  0.55462  1.0000
  H   H16       1.0  0.21554  0.63131  0.44538  1.0000
  C   C1        1.0  0.31584  0.27105  0.38914  1.0000
  C   C2        1.0  0.68416  0.72895  0.61086  1.0000
  C   C3        1.0  0.46613  0.27492  0.39895  1.0000
  C   C4        1.0  0.53387  0.72508  0.60105  1.0000
  C   C5        1.0  0.56628  0.34023  0.48901  1.0000
  C   C6        1.0  0.43372  0.65977  0.51099  1.0000
  C   C7        1.0  0.49836  0.36440  0.56805  1.0000
  C   C8        1.0  0.50164  0.63560  0.43195  1.0000
  C   C9        1.0  0.35276  0.35947  0.55902  1.0000
  C   C10       1.0  0.64724  0.64053  0.44098  1.0000
  C   C11       1.0  0.26619  0.33005  0.46995  1.0000
  C   C12       1.0  0.73382  0.66995  0.53005  1.0000
  C   C13       1.0  0.15900  0.40139  0.46503  1.0000
  C   C14       1.0  0.84100  0.59861  0.53497  1.0000
  C   C15       1.0  0.74383  0.40764  0.50168  1.0000
  C   C16       1.0  0.25617  0.59236  0.49832  1.0000
  C   C17       1.0  0.07120  0.70329  0.31071  1.0000
  C   C18       1.0  0.92881  0.29671  0.68929  1.0000
  C   C19       1.0  0.96855  0.52043  0.25369  1.0000
  C   C20       1.0  0.03145  0.47957  0.74631  1.0000
  C   C21       1.0  0.89481  0.49318  0.15084  1.0000
  C   C22       1.0  0.10519  0.50681  0.84916  1.0000
  C   C23       1.0  0.84857  0.32802  0.07689  1.0000
  C   C24       1.0  0.15144  0.67198  0.92311  1.0000
  C   C25       1.0  0.25598  0.99071  0.59941  1.0000
  C   C26       1.0  0.74402  0.00929  0.40059  1.0000
  C   C27       1.0  0.27011  0.99879  0.70544  1.0000
  C   C28       1.0  0.72989  0.00121  0.29456  1.0000
  C   C29       1.0  0.37760  0.17450  0.77372  1.0000
  C   C30       1.0  0.62240  0.82550  0.22628  1.0000
  C   C31       1.0  0.38028  0.20436  0.88126  1.0000
  C   C32       1.0  0.61972  0.79564  0.11874  1.0000
  O   O1        1.0  0.99094  0.77326  0.32782  1.0000
  O   O2        1.0  0.00905  0.22673  0.67219  1.0000
  O   O3        1.0  0.21894  0.75637  0.33090  1.0000
  O   O4        1.0  0.78105  0.24363  0.66910  1.0000
  O   O5        1.0  0.13175  0.98028  0.55956  1.0000
  O   O6        1.0  0.86825  0.01973  0.44044  1.0000
  O   O7        1.0  0.37326  0.99849  0.56447  1.0000
  O   O8        1.0  0.62674  0.00151  0.43553  1.0000
  F   F1        1.0  0.84661  0.44657  0.29720  1.0000
  F   F2        1.0  0.15339  0.55342  0.70280  1.0000
  F   F3        1.0  0.05791  0.44547  0.24999  1.0000
  F   F4        1.0  0.94210  0.55453  0.75000  1.0000
  F   F5        1.0  0.76042  0.50580  0.15073  1.0000
  F   F6        1.0  0.23957  0.49420  0.84927  1.0000
  F   F7        1.0  0.00362  0.61144  0.12115  1.0000
  F   F8        1.0  0.99637  0.38856  0.87885  1.0000
  F   F9        1.0  0.76677  0.31138  0.99491  1.0000
  F   F10       1.0  0.23323  0.68862  0.00509  1.0000
  F   F11       1.0  0.75429  0.20693  0.10822  1.0000
  F   F12       1.0  0.24572  0.79306  0.89177  1.0000
  F   F13       1.0  0.97881  0.31653  0.06014  1.0000
  F   F14       1.0  0.02119  0.68347  0.93986  1.0000
  F   F15       1.0  0.33436  0.90703  0.72132  1.0000
  F   F16       1.0  0.66564  0.09297  0.27868  1.0000
  F   F17       1.0  0.12219  0.93730  0.72765  1.0000
  F   F18       1.0  0.87781  0.06270  0.27235  1.0000
  F   F19       1.0  0.53116  0.22528  0.76319  1.0000
  F   F20       1.0  0.46884  0.77472  0.23682  1.0000
  F   F21       1.0  0.32786  0.26959  0.74750  1.0000
  F   F22       1.0  0.67214  0.73042  0.25250  1.0000
  F   F23       1.0  0.42581  0.11172  0.91193  1.0000
  F   F24       1.0  0.57419  0.88828  0.08807  1.0000
  F   F25       1.0  0.48642  0.36061  0.92899  1.0000
  F   F26       1.0  0.51359  0.63939  0.07101  1.0000
  F   F27       1.0  0.23574  0.17286  0.90003  1.0000
  F   F28       1.0  0.76427  0.82715  0.09997  1.0000
