data_image0
_chemical_formula_structural       Ag2H44C36N6O18
_chemical_formula_sum              "Ag2 H44 C36 N6 O18"
_cell_length_a       7.98454
_cell_length_b       8.71837
_cell_length_c       15.2532
_cell_angle_alpha    89.1788
_cell_angle_beta     79.3547
_cell_angle_gamma    76.5918

_space_group_name_H-M_alt    "P 1"
_space_group_IT_number       1

loop_
  _space_group_symop_operation_xyz
  'x, y, z'

loop_
  _atom_site_type_symbol
  _atom_site_label
  _atom_site_symmetry_multiplicity
  _atom_site_fract_x
  _atom_site_fract_y
  _atom_site_fract_z
  _atom_site_occupancy
  Ag  Ag1       1.0  0.72358  0.07817  0.06728  1.0000
  Ag  Ag2       1.0  0.27641  0.92183  0.93272  1.0000
  H   H1        1.0  0.46347  0.24609  0.95476  1.0000
  H   H2        1.0  0.53653  0.75390  0.04524  1.0000
  H   H3        1.0  0.95579  0.30130  0.97943  1.0000
  H   H4        1.0  0.04421  0.69870  0.02057  1.0000
  H   H5        1.0  0.93154  0.53334  0.88171  1.0000
  H   H6        1.0  0.06846  0.46665  0.11829  1.0000
  H   H7        1.0  0.65431  0.62869  0.82011  1.0000
  H   H8        1.0  0.34569  0.37131  0.17989  1.0000
  H   H9        1.0  0.12294  0.72943  0.80390  1.0000
  H   H10       1.0  0.87706  0.27057  0.19610  1.0000
  H   H11       1.0  0.15495  0.55154  0.73981  1.0000
  H   H12       1.0  0.84505  0.44846  0.26019  1.0000
  H   H13       1.0  0.12026  0.79821  0.65099  1.0000
  H   H14       1.0  0.87974  0.20179  0.34901  1.0000
  H   H15       1.0  0.31846  0.83021  0.67811  1.0000
  H   H16       1.0  0.68154  0.16979  0.32189  1.0000
  H   H17       1.0  0.45798  0.62590  0.46491  1.0000
  H   H18       1.0  0.54202  0.37410  0.53509  1.0000
  H   H19       1.0  0.44804  0.80660  0.52286  1.0000
  H   H20       1.0  0.55196  0.19341  0.47714  1.0000
  H   H21       1.0  0.25292  0.76785  0.49486  1.0000
  H   H22       1.0  0.74708  0.23216  0.50514  1.0000
  H   H23       1.0  0.98238  0.92079  0.18788  1.0000
  H   H24       1.0  0.01762  0.07922  0.81212  1.0000
  H   H25       1.0  0.44676  0.97432  0.20444  1.0000
  H   H26       1.0  0.55324  0.02568  0.79556  1.0000
  H   H27       1.0  0.42926  0.79027  0.32968  1.0000
  H   H28       1.0  0.57075  0.20972  0.67032  1.0000
  H   H29       1.0  0.70977  0.65967  0.38449  1.0000
  H   H30       1.0  0.29023  0.34033  0.61551  1.0000
  H   H31       1.0  0.31383  0.53062  0.34120  1.0000
  H   H32       1.0  0.68617  0.46938  0.65880  1.0000
  H   H33       1.0  0.18468  0.53712  0.45126  1.0000
  H   H34       1.0  0.81532  0.46288  0.54874  1.0000
  H   H35       1.0  0.20544  0.27671  0.31449  1.0000
  H   H36       1.0  0.79455  0.72329  0.68551  1.0000
  H   H37       1.0  0.37107  0.26783  0.37944  1.0000
  H   H38       1.0  0.62893  0.73217  0.62056  1.0000
  H   H39       1.0  0.09633  0.06766  0.52015  1.0000
  H   H40       1.0  0.90367  0.93234  0.47985  1.0000
  H   H41       1.0  0.31467  0.05942  0.46165  1.0000
  H   H42       1.0  0.68533  0.94058  0.53835  1.0000
  H   H43       1.0  0.14972  0.03757  0.40081  1.0000
  H   H44       1.0  0.85027  0.96243  0.59919  1.0000
  C   C1        1.0  0.56490  0.31173  0.93621  1.0000
  C   C2        1.0  0.43510  0.68827  0.06379  1.0000
  C   C3        1.0  0.83947  0.34385  0.95009  1.0000
  C   C4        1.0  0.16054  0.65614  0.04991  1.0000
  C   C5        1.0  0.82428  0.47375  0.89534  1.0000
  C   C6        1.0  0.17572  0.52625  0.10466  1.0000
  C   C7        1.0  0.67231  0.52404  0.86036  1.0000
  C   C8        1.0  0.32769  0.47595  0.13964  1.0000
  C   C9        1.0  0.54079  0.44003  0.88021  1.0000
  C   C10       1.0  0.45921  0.55997  0.11979  1.0000
  C   C11       1.0  0.37193  0.48546  0.84800  1.0000
  C   C12       1.0  0.62808  0.51453  0.15200  1.0000
  C   C13       1.0  0.21290  0.64999  0.75152  1.0000
  C   C14       1.0  0.78710  0.35001  0.24848  1.0000
  C   C15       1.0  0.24803  0.73867  0.66770  1.0000
  C   C16       1.0  0.75197  0.26133  0.33230  1.0000
  C   C17       1.0  0.37784  0.71323  0.51586  1.0000
  C   C18       1.0  0.62216  0.28677  0.48414  1.0000
  C   C19       1.0  0.86332  0.88673  0.22014  1.0000
  C   C20       1.0  0.13668  0.11328  0.77986  1.0000
  C   C21       1.0  0.56404  0.91615  0.22978  1.0000
  C   C22       1.0  0.43597  0.08385  0.77022  1.0000
  C   C23       1.0  0.55562  0.81428  0.30079  1.0000
  C   C24       1.0  0.44438  0.18572  0.69921  1.0000
  C   C25       1.0  0.70908  0.74331  0.33073  1.0000
  C   C26       1.0  0.29092  0.25669  0.66927  1.0000
  C   C27       1.0  0.86543  0.78177  0.29025  1.0000
  C   C28       1.0  0.13457  0.21823  0.70975  1.0000
  C   C29       1.0  0.03402  0.71535  0.32000  1.0000
  C   C30       1.0  0.96597  0.28464  0.68000  1.0000
  C   C31       1.0  0.20222  0.49430  0.38207  1.0000
  C   C32       1.0  0.79778  0.50570  0.61794  1.0000
  C   C33       1.0  0.23124  0.31790  0.37766  1.0000
  C   C34       1.0  0.76875  0.68209  0.62235  1.0000
  C   C35       1.0  0.17390  0.09898  0.45842  1.0000
  C   C36       1.0  0.82610  0.90102  0.54158  1.0000
  N   N1        1.0  0.71103  0.26503  0.97107  1.0000
  N   N2        1.0  0.28897  0.73497  0.02893  1.0000
  N   N3        1.0  0.71601  0.95018  0.18912  1.0000
  N   N4        1.0  0.28399  0.04982  0.81088  1.0000
  N   N5        1.0  0.79638  0.88298  0.88773  1.0000
  N   N6        1.0  0.20362  0.11702  0.11227  1.0000
  O   O1        1.0  0.24233  0.43530  0.87844  1.0000
  O   O2        1.0  0.75767  0.56471  0.12156  1.0000
  O   O3        1.0  0.37805  0.58919  0.78153  1.0000
  O   O4        1.0  0.62195  0.41082  0.21847  1.0000
  O   O5        1.0  0.34915  0.63227  0.59679  1.0000
  O   O6        1.0  0.65085  0.36773  0.40321  1.0000
  O   O7        1.0  0.14960  0.78759  0.31791  1.0000
  O   O8        1.0  0.85042  0.21241  0.68209  1.0000
  O   O9        1.0  0.04365  0.56717  0.34861  1.0000
  O   O10       1.0  0.95635  0.43284  0.65139  1.0000
  O   O11       1.0  0.12473  0.26582  0.45264  1.0000
  O   O12       1.0  0.87527  0.73418  0.54736  1.0000
  O   O13       1.0  0.81845  0.85754  0.80448  1.0000
  O   O14       1.0  0.18156  0.14247  0.19552  1.0000
  O   O15       1.0  0.64373  0.90989  0.93538  1.0000
  O   O16       1.0  0.35627  0.09011  0.06462  1.0000
  O   O17       1.0  0.92722  0.88441  0.92449  1.0000
  O   O18       1.0  0.07278  0.11560  0.07551  1.0000
