data_image0
_chemical_formula_structural       Cu6B2H44W2C34S10N16
_chemical_formula_sum              "Cu6 B2 H44 W2 C34 S10 N16"
_cell_length_a       10.5251
_cell_length_b       12.2494
_cell_length_c       12.592
_cell_angle_alpha    80.4821
_cell_angle_beta     70.4646
_cell_angle_gamma    66.9131

_space_group_name_H-M_alt    "P 1"
_space_group_IT_number       1

loop_
  _space_group_symop_operation_xyz
  'x, y, z'

loop_
  _atom_site_type_symbol
  _atom_site_label
  _atom_site_symmetry_multiplicity
  _atom_site_fract_x
  _atom_site_fract_y
  _atom_site_fract_z
  _atom_site_occupancy
  Cu  Cu1       1.0  0.72444  0.77590  0.01160  1.0000
  Cu  Cu2       1.0  0.27555  0.22410  0.98839  1.0000
  Cu  Cu3       1.0  0.65839  0.93061  0.18390  1.0000
  Cu  Cu4       1.0  0.34161  0.06939  0.81610  1.0000
  Cu  Cu5       1.0  0.94579  0.80685  0.07353  1.0000
  Cu  Cu6       1.0  0.05422  0.19316  0.92647  1.0000
  B   B1        1.0  0.82390  0.43108  0.35899  1.0000
  B   B2        1.0  0.17610  0.56892  0.64101  1.0000
  H   H1        1.0  0.46670  0.68451  0.64542  1.0000
  H   H2        1.0  0.53330  0.31549  0.35458  1.0000
  H   H3        1.0  0.59360  0.89426  0.44706  1.0000
  H   H4        1.0  0.40640  0.10574  0.55294  1.0000
  H   H5        1.0  0.42397  0.88795  0.53359  1.0000
  H   H6        1.0  0.57604  0.11205  0.46641  1.0000
  H   H7        1.0  0.47097  0.88547  0.38423  1.0000
  H   H8        1.0  0.52903  0.11453  0.61577  1.0000
  H   H9        1.0  0.67187  0.32266  0.09415  1.0000
  H   H10       1.0  0.32813  0.67735  0.90585  1.0000
  H   H11       1.0  0.54906  0.44706  0.69017  1.0000
  H   H12       1.0  0.45094  0.55294  0.30983  1.0000
  H   H13       1.0  0.73726  0.37880  0.62058  1.0000
  H   H14       1.0  0.26274  0.62121  0.37942  1.0000
  H   H15       1.0  0.60799  0.36240  0.56961  1.0000
  H   H16       1.0  0.39201  0.63761  0.43039  1.0000
  H   H17       1.0  0.52852  0.65347  0.06853  1.0000
  H   H18       1.0  0.47148  0.34653  0.93147  1.0000
  H   H19       1.0  0.58269  0.52472  0.99220  1.0000
  H   H20       1.0  0.41732  0.47528  0.00780  1.0000
  H   H21       1.0  0.70011  0.60285  0.96570  1.0000
  H   H22       1.0  0.29989  0.39715  0.03430  1.0000
  H   H23       1.0  0.29833  0.41361  0.29626  1.0000
  H   H24       1.0  0.70167  0.58638  0.70375  1.0000
  H   H25       1.0  0.17457  0.64538  0.08474  1.0000
  H   H26       1.0  0.82543  0.35462  0.91526  1.0000
  H   H27       1.0  0.29650  0.59694  0.16671  1.0000
  H   H28       1.0  0.70351  0.40305  0.83330  1.0000
  H   H29       1.0  0.13059  0.71822  0.20932  1.0000
  H   H30       1.0  0.86941  0.28178  0.79068  1.0000
  H   H31       1.0  0.94084  0.17175  0.24876  1.0000
  H   H32       1.0  0.05916  0.82825  0.75124  1.0000
  H   H33       1.0  0.79145  0.14916  0.23344  1.0000
  H   H34       1.0  0.20854  0.85084  0.76656  1.0000
  H   H35       1.0  0.77814  0.20207  0.36233  1.0000
  H   H36       1.0  0.22185  0.79792  0.63766  1.0000
  H   H37       1.0  0.03574  0.30323  0.51387  1.0000
  H   H38       1.0  0.96427  0.69676  0.48613  1.0000
  H   H39       1.0  0.21787  0.24000  0.42885  1.0000
  H   H40       1.0  0.78213  0.76000  0.57115  1.0000
  H   H41       1.0  0.07800  0.21413  0.39998  1.0000
  H   H42       1.0  0.92201  0.78587  0.60002  1.0000
  H   H43       1.0  0.83452  0.34108  0.41565  1.0000
  H   H44       1.0  0.16548  0.65892  0.58435  1.0000
  W   W1        1.0  0.78398  0.68873  0.20166  1.0000
  W   W2        1.0  0.21603  0.31127  0.79834  1.0000
  C   C1        1.0  0.57591  0.72306  0.46722  1.0000
  C   C2        1.0  0.42409  0.27694  0.53278  1.0000
  C   C3        1.0  0.54125  0.65296  0.56403  1.0000
  C   C4        1.0  0.45875  0.34704  0.43597  1.0000
  C   C5        1.0  0.11586  0.54458  0.23799  1.0000
  C   C6        1.0  0.88414  0.45542  0.76201  1.0000
  C   C7        1.0  0.62363  0.53523  0.53608  1.0000
  C   C8        1.0  0.37637  0.46477  0.46392  1.0000
  C   C9        1.0  0.59482  0.85345  0.81919  1.0000
  C   C10       1.0  0.40517  0.14654  0.18081  1.0000
  C   C11       1.0  0.68410  0.49381  0.11894  1.0000
  C   C12       1.0  0.31590  0.50619  0.88106  1.0000
  C   C13       1.0  0.82984  0.08286  0.98948  1.0000
  C   C14       1.0  0.17015  0.91714  0.01053  1.0000
  C   C15       1.0  0.51294  0.85447  0.45702  1.0000
  C   C16       1.0  0.48707  0.14553  0.54298  1.0000
  C   C17       1.0  0.70150  0.37345  0.13820  1.0000
  C   C18       1.0  0.29850  0.62656  0.86180  1.0000
  C   C19       1.0  0.08857  0.38822  0.35030  1.0000
  C   C20       1.0  0.91143  0.61178  0.64970  1.0000
  C   C21       1.0  0.63022  0.42471  0.60770  1.0000
  C   C22       1.0  0.36978  0.57528  0.39230  1.0000
  C   C23       1.0  0.62014  0.57372  0.03276  1.0000
  C   C24       1.0  0.37986  0.42628  0.96724  1.0000
  C   C25       1.0  0.18742  0.44331  0.29512  1.0000
  C   C26       1.0  0.81258  0.55669  0.70489  1.0000
  C   C27       1.0  0.76914  0.33022  0.22250  1.0000
  C   C28       1.0  0.23086  0.66978  0.77750  1.0000
  C   C29       1.0  0.18178  0.63112  0.17114  1.0000
  C   C30       1.0  0.81823  0.36888  0.82886  1.0000
  C   C31       1.0  0.82214  0.20676  0.27007  1.0000
  C   C32       1.0  0.17785  0.79324  0.72993  1.0000
  C   C33       1.0  0.10539  0.28056  0.42723  1.0000
  C   C34       1.0  0.89461  0.71943  0.57277  1.0000
  S   S1        1.0  0.55714  0.79860  0.18133  1.0000
  S   S2        1.0  0.44287  0.20140  0.81866  1.0000
  S   S3        1.0  0.93788  0.64718  0.01890  1.0000
  S   S4        1.0  0.06212  0.35282  0.98109  1.0000
  S   S5        1.0  0.83985  0.83003  0.26007  1.0000
  S   S6        1.0  0.16015  0.16997  0.73993  1.0000
  S   S7        1.0  0.50048  0.89666  0.72995  1.0000
  S   S8        1.0  0.49949  0.10334  0.27005  1.0000
  S   S9        1.0  0.72392  0.01694  0.98623  1.0000
  S   S10       1.0  0.27608  0.98307  0.01378  1.0000
  N   N1        1.0  0.97800  0.55070  0.25604  1.0000
  N   N2        1.0  0.02200  0.44929  0.74396  1.0000
  N   N3        1.0  0.96457  0.45397  0.32448  1.0000
  N   N4        1.0  0.03543  0.54603  0.67552  1.0000
  N   N5        1.0  0.67636  0.65073  0.38294  1.0000
  N   N6        1.0  0.32364  0.34927  0.61706  1.0000
  N   N7        1.0  0.70375  0.53622  0.42679  1.0000
  N   N8        1.0  0.29625  0.46378  0.57321  1.0000
  N   N9        1.0  0.73782  0.52357  0.18997  1.0000
  N   N10       1.0  0.26218  0.47643  0.81003  1.0000
  N   N11       1.0  0.78667  0.42288  0.25370  1.0000
  N   N12       1.0  0.21332  0.57712  0.74630  1.0000
  N   N13       1.0  0.66250  0.82238  0.88382  1.0000
  N   N14       1.0  0.33749  0.17761  0.11618  1.0000
  N   N15       1.0  0.90712  0.13184  0.98882  1.0000
  N   N16       1.0  0.09289  0.86817  0.01118  1.0000
