data_image0
_chemical_formula_structural       Zn2P2H34C32N2O16
_chemical_formula_sum              "Zn2 P2 H34 C32 N2 O16"
_cell_length_a       7.74753
_cell_length_b       11.2702
_cell_length_c       11.5358
_cell_angle_alpha    115.414
_cell_angle_beta     93.0581
_cell_angle_gamma    100.802

_space_group_name_H-M_alt    "P 1"
_space_group_IT_number       1

loop_
  _space_group_symop_operation_xyz
  'x, y, z'

loop_
  _atom_site_type_symbol
  _atom_site_label
  _atom_site_symmetry_multiplicity
  _atom_site_fract_x
  _atom_site_fract_y
  _atom_site_fract_z
  _atom_site_occupancy
  Zn  Zn1       1.0  0.63434  0.98729  0.29423  1.0000
  Zn  Zn2       1.0  0.36566  0.01270  0.70577  1.0000
  P   P1        1.0  0.20677  0.87014  0.25545  1.0000
  P   P2        1.0  0.79324  0.12987  0.74455  1.0000
  H   H1        1.0  0.27006  0.91794  0.02620  1.0000
  H   H2        1.0  0.72996  0.08206  0.97380  1.0000
  H   H3        1.0  0.42670  0.38429  0.62917  1.0000
  H   H4        1.0  0.57328  0.61569  0.37083  1.0000
  H   H5        1.0  0.09864  0.12429  0.39738  1.0000
  H   H6        1.0  0.90136  0.87572  0.60261  1.0000
  H   H7        1.0  0.51302  0.16691  0.54494  1.0000
  H   H8        1.0  0.48696  0.83307  0.45506  1.0000
  H   H9        1.0  0.41558  0.72058  0.09796  1.0000
  H   H10       1.0  0.58441  0.27941  0.90203  1.0000
  H   H11       1.0  0.70580  0.21583  0.23620  1.0000
  H   H12       1.0  0.29421  0.78417  0.76382  1.0000
  H   H13       1.0  0.63763  0.44079  0.31089  1.0000
  H   H14       1.0  0.36241  0.55922  0.68914  1.0000
  H   H15       1.0  0.16333  0.30885  0.13886  1.0000
  H   H16       1.0  0.83669  0.69116  0.86113  1.0000
  H   H17       1.0  0.89527  0.90766  0.37151  1.0000
  H   H18       1.0  0.10473  0.09234  0.62849  1.0000
  H   H19       1.0  0.83565  0.02252  0.49618  1.0000
  H   H20       1.0  0.16435  0.97748  0.50381  1.0000
  H   H21       1.0  0.34735  0.54732  0.87536  1.0000
  H   H22       1.0  0.65262  0.45264  0.12464  1.0000
  H   H23       1.0  0.37599  0.48702  0.07127  1.0000
  H   H24       1.0  0.62397  0.51298  0.92875  1.0000
  H   H25       1.0  0.11532  0.51508  0.88006  1.0000
  H   H26       1.0  0.88466  0.48491  0.11995  1.0000
  H   H27       1.0  0.22822  0.67275  0.88911  1.0000
  H   H28       1.0  0.77176  0.32722  0.11088  1.0000
  H   H29       1.0  0.01999  0.52161  0.41253  1.0000
  H   H30       1.0  0.98001  0.47839  0.58746  1.0000
  H   H31       1.0  0.29683  0.58723  0.21642  1.0000
  H   H32       1.0  0.70314  0.41280  0.78360  1.0000
  H   H33       1.0  0.14592  0.47033  0.07254  1.0000
  H   H34       1.0  0.85405  0.52968  0.92749  1.0000
  C   C1        1.0  0.18268  0.00540  0.21421  1.0000
  C   C2        1.0  0.81733  0.99461  0.78579  1.0000
  C   C3        1.0  0.22832  0.00410  0.09770  1.0000
  C   C4        1.0  0.77170  0.99591  0.90230  1.0000
  C   C5        1.0  0.22198  0.11356  0.07117  1.0000
  C   C6        1.0  0.77804  0.88645  0.92883  1.0000
  C   C7        1.0  0.16852  0.22501  0.16123  1.0000
  C   C8        1.0  0.83150  0.77500  0.83876  1.0000
  C   C9        1.0  0.12427  0.22830  0.27851  1.0000
  C   C10       1.0  0.87575  0.77171  0.72148  1.0000
  C   C11       1.0  0.13195  0.11869  0.30487  1.0000
  C   C12       1.0  0.86807  0.88132  0.69512  1.0000
  C   C13       1.0  0.28280  0.65233  0.06498  1.0000
  C   C14       1.0  0.71719  0.34767  0.93503  1.0000
  C   C15       1.0  0.27461  0.54371  0.11018  1.0000
  C   C16       1.0  0.72537  0.45630  0.88984  1.0000
  C   C17       1.0  0.23932  0.59371  0.91863  1.0000
  C   C18       1.0  0.76066  0.40627  0.08137  1.0000
  C   C19       1.0  0.27307  0.11414  0.94748  1.0000
  C   C20       1.0  0.72696  0.88586  0.05252  1.0000
  C   C21       1.0  0.07206  0.34763  0.37729  1.0000
  C   C22       1.0  0.92795  0.65237  0.62271  1.0000
  C   C23       1.0  0.53723  0.23056  0.49558  1.0000
  C   C24       1.0  0.46277  0.76942  0.50442  1.0000
  C   C25       1.0  0.49116  0.35423  0.54288  1.0000
  C   C26       1.0  0.50884  0.64576  0.45713  1.0000
  C   C27       1.0  0.52447  0.43441  0.47757  1.0000
  C   C28       1.0  0.47554  0.56559  0.52245  1.0000
  C   C29       1.0  0.60591  0.38443  0.36625  1.0000
  C   C30       1.0  0.39410  0.61557  0.63377  1.0000
  C   C31       1.0  0.64664  0.25964  0.32403  1.0000
  C   C32       1.0  0.35337  0.74036  0.67598  1.0000
  N   N1        1.0  0.61273  0.18350  0.38728  1.0000
  N   N2        1.0  0.38728  0.81650  0.61272  1.0000
  O   O1        1.0  0.40182  0.89427  0.30877  1.0000
  O   O2        1.0  0.59818  0.10573  0.69122  1.0000
  O   O3        1.0  0.08212  0.86596  0.35146  1.0000
  O   O4        1.0  0.91788  0.13404  0.64854  1.0000
  O   O5        1.0  0.15319  0.73420  0.12247  1.0000
  O   O6        1.0  0.84681  0.26582  0.87752  1.0000
  O   O7        1.0  0.31273  0.00348  0.86608  1.0000
  O   O8        1.0  0.68728  0.99652  0.13392  1.0000
  O   O9        1.0  0.27728  0.21461  0.92716  1.0000
  O   O10       1.0  0.72274  0.78539  0.07283  1.0000
  O   O11       1.0  0.04382  0.35626  0.48589  1.0000
  O   O12       1.0  0.95620  0.64375  0.51409  1.0000
  O   O13       1.0  0.05890  0.44248  0.34070  1.0000
  O   O14       1.0  0.94109  0.55752  0.65928  1.0000
  O   O15       1.0  0.79124  0.94726  0.40594  1.0000
  O   O16       1.0  0.20876  0.05273  0.59406  1.0000
