data_image0
_chemical_formula_structural       Cu4H16C24N20
_chemical_formula_sum              "Cu4 H16 C24 N20"
_cell_length_a       4.94262
_cell_length_b       9.93964
_cell_length_c       17.0573
_cell_angle_alpha    90.0003
_cell_angle_beta     90.0002
_cell_angle_gamma    103.39

_space_group_name_H-M_alt    "P 1"
_space_group_IT_number       1

loop_
  _space_group_symop_operation_xyz
  'x, y, z'

loop_
  _atom_site_type_symbol
  _atom_site_label
  _atom_site_symmetry_multiplicity
  _atom_site_fract_x
  _atom_site_fract_y
  _atom_site_fract_z
  _atom_site_occupancy
  Cu  Cu1       1.0  0.65304  0.41428  0.43417  1.0000
  Cu  Cu2       1.0  0.34696  0.08573  0.93416  1.0000
  Cu  Cu3       1.0  0.34695  0.58573  0.56584  1.0000
  Cu  Cu4       1.0  0.65305  0.91427  0.06584  1.0000
  H   H1        1.0  0.01761  0.71911  0.07756  1.0000
  H   H2        1.0  0.98240  0.78090  0.57757  1.0000
  H   H3        1.0  0.98241  0.28090  0.92244  1.0000
  H   H4        1.0  0.01756  0.21911  0.42244  1.0000
  H   H5        1.0  0.25693  0.62232  0.18621  1.0000
  H   H6        1.0  0.74310  0.87769  0.68622  1.0000
  H   H7        1.0  0.74309  0.37768  0.81379  1.0000
  H   H8        1.0  0.25688  0.12231  0.31380  1.0000
  H   H9        1.0  0.87572  0.85435  0.34912  1.0000
  H   H10       1.0  0.12428  0.64564  0.84913  1.0000
  H   H11       1.0  0.12427  0.14563  0.65087  1.0000
  H   H12       1.0  0.87570  0.35434  0.15086  1.0000
  H   H13       1.0  0.65219  0.94268  0.23411  1.0000
  H   H14       1.0  0.34778  0.55731  0.73411  1.0000
  H   H15       1.0  0.34781  0.05731  0.76589  1.0000
  H   H16       1.0  0.65216  0.44268  0.26588  1.0000
  C   C1        1.0  0.21538  0.67377  0.34106  1.0000
  C   C2        1.0  0.78465  0.82624  0.84106  1.0000
  C   C3        1.0  0.78465  0.32624  0.65894  1.0000
  C   C4        1.0  0.21534  0.17374  0.15895  1.0000
  C   C5        1.0  0.99229  0.74638  0.13864  1.0000
  C   C6        1.0  0.00772  0.75363  0.63865  1.0000
  C   C7        1.0  0.00772  0.25362  0.86135  1.0000
  C   C8        1.0  0.99226  0.24638  0.36135  1.0000
  C   C9        1.0  0.12503  0.69344  0.19884  1.0000
  C   C10       1.0  0.87501  0.80658  0.69885  1.0000
  C   C11       1.0  0.87499  0.30656  0.80116  1.0000
  C   C12       1.0  0.12501  0.19343  0.30116  1.0000
  C   C13       1.0  0.08598  0.73128  0.27662  1.0000
  C   C14       1.0  0.91405  0.76873  0.77663  1.0000
  C   C15       1.0  0.91403  0.26872  0.72337  1.0000
  C   C16       1.0  0.08597  0.23125  0.22338  1.0000
  C   C17       1.0  0.91406  0.82315  0.28973  1.0000
  C   C18       1.0  0.08595  0.67685  0.78974  1.0000
  C   C19       1.0  0.08594  0.17684  0.71027  1.0000
  C   C20       1.0  0.91408  0.32313  0.21027  1.0000
  C   C21       1.0  0.78861  0.87162  0.22644  1.0000
  C   C22       1.0  0.21137  0.62836  0.72645  1.0000
  C   C23       1.0  0.21138  0.12836  0.77356  1.0000
  C   C24       1.0  0.78860  0.37162  0.27355  1.0000
  N   N1        1.0  0.37722  0.58244  0.33096  1.0000
  N   N2        1.0  0.62281  0.91758  0.83097  1.0000
  N   N3        1.0  0.62280  0.41757  0.66903  1.0000
  N   N4        1.0  0.37720  0.08242  0.16904  1.0000
  N   N5        1.0  0.44535  0.55186  0.40282  1.0000
  N   N6        1.0  0.55467  0.94815  0.90282  1.0000
  N   N7        1.0  0.55468  0.44816  0.59719  1.0000
  N   N8        1.0  0.44532  0.05184  0.09719  1.0000
  N   N9        1.0  0.32835  0.62323  0.45551  1.0000
  N   N10       1.0  0.67164  0.87678  0.95551  1.0000
  N   N11       1.0  0.67166  0.37679  0.54449  1.0000
  N   N12       1.0  0.32834  0.12322  0.04449  1.0000
  N   N13       1.0  0.18374  0.70073  0.41782  1.0000
  N   N14       1.0  0.81628  0.79929  0.91783  1.0000
  N   N15       1.0  0.81629  0.29929  0.58217  1.0000
  N   N16       1.0  0.18371  0.20072  0.08218  1.0000
  N   N17       1.0  0.82452  0.83424  0.15152  1.0000
  N   N18       1.0  0.17547  0.66576  0.65153  1.0000
  N   N19       1.0  0.17548  0.16576  0.84847  1.0000
  N   N20       1.0  0.82452  0.33425  0.34848  1.0000
