data_image0
_chemical_formula_structural       Zn3H30C36N6O18
_chemical_formula_sum              "Zn3 H30 C36 N6 O18"
_cell_length_a       8.46682
_cell_length_b       11.7772
_cell_length_c       11.7772
_cell_angle_alpha    119.994
_cell_angle_beta     89.9764
_cell_angle_gamma    90.0237

_space_group_name_H-M_alt    "P 1"
_space_group_IT_number       1

loop_
  _space_group_symop_operation_xyz
  'x, y, z'

loop_
  _atom_site_type_symbol
  _atom_site_label
  _atom_site_symmetry_multiplicity
  _atom_site_fract_x
  _atom_site_fract_y
  _atom_site_fract_z
  _atom_site_occupancy
  Zn  Zn1       1.0  0.50000  0.28398  0.28398  1.0000
  Zn  Zn2       1.0  0.83344  0.71602  0.00006  1.0000
  Zn  Zn3       1.0  0.16656  0.00006  0.71601  1.0000
  H   H1        1.0  0.99478  0.60261  0.42178  1.0000
  H   H2        1.0  0.32818  0.57810  0.18038  1.0000
  H   H3        1.0  0.66140  0.81959  0.39731  1.0000
  H   H4        1.0  0.67182  0.18038  0.57810  1.0000
  H   H5        1.0  0.33859  0.39731  0.81959  1.0000
  H   H6        1.0  0.00522  0.42178  0.60263  1.0000
  H   H7        1.0  0.60922  0.72737  0.69470  1.0000
  H   H8        1.0  0.94234  0.30542  0.03319  1.0000
  H   H9        1.0  0.27571  0.96712  0.27227  1.0000
  H   H10       1.0  0.05766  0.03321  0.30543  1.0000
  H   H11       1.0  0.72429  0.27227  0.96712  1.0000
  H   H12       1.0  0.39078  0.69470  0.72738  1.0000
  H   H13       1.0  0.83212  0.40228  0.27017  1.0000
  H   H14       1.0  0.16547  0.72967  0.13172  1.0000
  H   H15       1.0  0.49881  0.86834  0.59772  1.0000
  H   H16       1.0  0.83453  0.13172  0.72967  1.0000
  H   H17       1.0  0.50118  0.59773  0.86835  1.0000
  H   H18       1.0  0.16787  0.27017  0.40229  1.0000
  H   H19       1.0  0.60334  0.16682  0.03790  1.0000
  H   H20       1.0  0.93694  0.96221  0.12915  1.0000
  H   H21       1.0  0.26992  0.87066  0.83278  1.0000
  H   H22       1.0  0.06307  0.12915  0.96221  1.0000
  H   H23       1.0  0.73009  0.83278  0.87066  1.0000
  H   H24       1.0  0.39666  0.03790  0.16682  1.0000
  H   H25       1.0  0.72610  0.15112  0.14005  1.0000
  H   H26       1.0  0.05965  0.86007  0.01122  1.0000
  H   H27       1.0  0.39260  0.98866  0.84869  1.0000
  H   H28       1.0  0.94036  0.01122  0.86007  1.0000
  H   H29       1.0  0.60740  0.84869  0.98865  1.0000
  H   H30       1.0  0.27390  0.14005  0.15111  1.0000
  C   C1        1.0  0.87683  0.58756  0.44886  1.0000
  C   C2        1.0  0.21016  0.55107  0.13849  1.0000
  C   C3        1.0  0.54343  0.86161  0.41235  1.0000
  C   C4        1.0  0.78985  0.13849  0.55108  1.0000
  C   C5        1.0  0.45657  0.41235  0.86160  1.0000
  C   C6        1.0  0.12317  0.44886  0.58757  1.0000
  C   C7        1.0  0.81167  0.67962  0.56958  1.0000
  C   C8        1.0  0.14497  0.43041  0.11006  1.0000
  C   C9        1.0  0.47829  0.89013  0.32022  1.0000
  C   C10       1.0  0.85503  0.11007  0.43042  1.0000
  C   C11       1.0  0.52170  0.32022  0.89012  1.0000
  C   C12       1.0  0.18832  0.56958  0.67963  1.0000
  C   C13       1.0  0.90083  0.80208  0.66466  1.0000
  C   C14       1.0  0.23419  0.33537  0.13739  1.0000
  C   C15       1.0  0.56760  0.86283  0.19784  1.0000
  C   C16       1.0  0.76581  0.13740  0.33537  1.0000
  C   C17       1.0  0.43240  0.19783  0.86283  1.0000
  C   C18       1.0  0.09917  0.66466  0.80208  1.0000
  C   C19       1.0  0.66077  0.65709  0.60112  1.0000
  C   C20       1.0  0.99399  0.39892  0.05626  1.0000
  C   C21       1.0  0.32736  0.94405  0.34265  1.0000
  C   C22       1.0  0.00601  0.05627  0.39892  1.0000
  C   C23       1.0  0.67264  0.34265  0.94404  1.0000
  C   C24       1.0  0.33923  0.60111  0.65709  1.0000
  C   C25       1.0  0.57950  0.54359  0.51326  1.0000
  C   C26       1.0  0.91273  0.48672  0.03052  1.0000
  C   C27       1.0  0.24620  0.96986  0.45632  1.0000
  C   C28       1.0  0.08727  0.03053  0.48672  1.0000
  C   C29       1.0  0.75380  0.45632  0.96985  1.0000
  C   C30       1.0  0.42050  0.51326  0.54358  1.0000
  C   C31       1.0  0.78786  0.47729  0.36546  1.0000
  C   C32       1.0  0.12119  0.63445  0.11163  1.0000
  C   C33       1.0  0.45453  0.88854  0.52270  1.0000
  C   C34       1.0  0.87881  0.11163  0.63445  1.0000
  C   C35       1.0  0.54546  0.52270  0.88855  1.0000
  C   C36       1.0  0.21213  0.36546  0.47729  1.0000
  N   N1        1.0  0.64288  0.45597  0.39689  1.0000
  N   N2        1.0  0.97614  0.60304  0.05908  1.0000
  N   N3        1.0  0.30958  0.94124  0.54400  1.0000
  N   N4        1.0  0.02386  0.05909  0.60305  1.0000
  N   N5        1.0  0.69041  0.54400  0.94123  1.0000
  N   N6        1.0  0.35711  0.39689  0.45597  1.0000
  O   O1        1.0  0.65749  0.21185  0.12458  1.0000
  O   O2        1.0  0.99101  0.87550  0.08742  1.0000
  O   O3        1.0  0.32398  0.91250  0.78786  1.0000
  O   O4        1.0  0.00900  0.08742  0.87550  1.0000
  O   O5        1.0  0.67603  0.78786  0.91250  1.0000
  O   O6        1.0  0.34250  0.12458  0.21185  1.0000
  O   O7        1.0  0.03156  0.82113  0.62456  1.0000
  O   O8        1.0  0.36493  0.37547  0.19644  1.0000
  O   O9        1.0  0.69833  0.80374  0.17894  1.0000
  O   O10       1.0  0.63507  0.19644  0.37546  1.0000
  O   O11       1.0  0.30167  0.17893  0.80373  1.0000
  O   O12       1.0  0.96845  0.62457  0.82114  1.0000
  O   O13       1.0  0.83737  0.87675  0.77608  1.0000
  O   O14       1.0  0.17080  0.22390  0.10065  1.0000
  O   O15       1.0  0.50439  0.89957  0.12311  1.0000
  O   O16       1.0  0.82920  0.10066  0.22391  1.0000
  O   O17       1.0  0.49561  0.12311  0.89956  1.0000
  O   O18       1.0  0.16264  0.77608  0.87675  1.0000
