data_image0
_chemical_formula_structural       Cu2H20C24N8O20
_chemical_formula_sum              "Cu2 H20 C24 N8 O20"
_cell_length_a       5.45157
_cell_length_b       9.73139
_cell_length_c       14.0371
_cell_angle_alpha    90.0001
_cell_angle_beta     94.565
_cell_angle_gamma    89.9994

_space_group_name_H-M_alt    "P 1"
_space_group_IT_number       1

loop_
  _space_group_symop_operation_xyz
  'x, y, z'

loop_
  _atom_site_type_symbol
  _atom_site_label
  _atom_site_symmetry_multiplicity
  _atom_site_fract_x
  _atom_site_fract_y
  _atom_site_fract_z
  _atom_site_occupancy
  Cu  Cu1       1.0  0.50000  0.00000  0.50000  1.0000
  Cu  Cu2       1.0  1.00000  0.50000  0.00000  1.0000
  H   H1        1.0  0.88672  0.91276  0.40830  1.0000
  H   H2        1.0  0.61327  0.41276  0.09170  1.0000
  H   H3        1.0  0.11328  0.08724  0.59170  1.0000
  H   H4        1.0  0.38673  0.58724  0.90830  1.0000
  H   H5        1.0  0.63030  0.82783  0.38676  1.0000
  H   H6        1.0  0.86968  0.32783  0.11323  1.0000
  H   H7        1.0  0.36970  0.17217  0.61324  1.0000
  H   H8        1.0  0.13031  0.67217  0.88677  1.0000
  H   H9        1.0  0.25632  0.12251  0.32575  1.0000
  H   H10       1.0  0.24368  0.62251  0.17425  1.0000
  H   H11       1.0  0.74368  0.87749  0.67426  1.0000
  H   H12       1.0  0.75632  0.37749  0.82575  1.0000
  H   H13       1.0  0.89825  0.21863  0.49356  1.0000
  H   H14       1.0  0.60175  0.71863  0.00644  1.0000
  H   H15       1.0  0.10175  0.78137  0.50644  1.0000
  H   H16       1.0  0.39824  0.28137  0.99357  1.0000
  H   H17       1.0  0.66878  0.48301  0.25683  1.0000
  H   H18       1.0  0.83121  0.98301  0.24317  1.0000
  H   H19       1.0  0.33122  0.51699  0.74317  1.0000
  H   H20       1.0  0.16879  0.01699  0.75683  1.0000
  C   C1        1.0  0.44050  0.30489  0.27888  1.0000
  C   C2        1.0  0.05950  0.80490  0.22111  1.0000
  C   C3        1.0  0.55951  0.69511  0.72112  1.0000
  C   C4        1.0  0.94050  0.19510  0.77889  1.0000
  C   C5        1.0  0.41143  0.19223  0.33887  1.0000
  C   C6        1.0  0.08857  0.69223  0.16112  1.0000
  C   C7        1.0  0.58857  0.80778  0.66113  1.0000
  C   C8        1.0  0.91143  0.30777  0.83888  1.0000
  C   C9        1.0  0.76812  0.24432  0.43344  1.0000
  C   C10       1.0  0.73188  0.74433  0.06656  1.0000
  C   C11       1.0  0.23188  0.75568  0.56656  1.0000
  C   C12       1.0  0.26812  0.25567  0.93344  1.0000
  C   C13       1.0  0.80336  0.35878  0.37689  1.0000
  C   C14       1.0  0.69664  0.85879  0.12311  1.0000
  C   C15       1.0  0.19665  0.64122  0.62311  1.0000
  C   C16       1.0  0.30336  0.14122  0.87690  1.0000
  C   C17       1.0  0.63983  0.39203  0.29948  1.0000
  C   C18       1.0  0.86017  0.89204  0.20051  1.0000
  C   C19       1.0  0.36017  0.60796  0.70051  1.0000
  C   C20       1.0  0.13983  0.10796  0.79949  1.0000
  C   C21       1.0  0.25789  0.33078  0.19413  1.0000
  C   C22       1.0  0.24210  0.83078  0.30586  1.0000
  C   C23       1.0  0.74210  0.66922  0.80587  1.0000
  C   C24       1.0  0.75790  0.16922  0.69414  1.0000
  N   N1        1.0  0.57130  0.16277  0.41422  1.0000
  N   N2        1.0  0.92870  0.66277  0.08578  1.0000
  N   N3        1.0  0.42869  0.83723  0.58578  1.0000
  N   N4        1.0  0.07129  0.33723  0.91422  1.0000
  N   N5        1.0  0.02461  0.44275  0.39693  1.0000
  N   N6        1.0  0.47537  0.94274  0.10307  1.0000
  N   N7        1.0  0.97540  0.55725  0.60307  1.0000
  N   N8        1.0  0.52463  0.05726  0.89694  1.0000
  O   O1        1.0  0.05149  0.27153  0.19431  1.0000
  O   O2        1.0  0.44851  0.77153  0.30570  1.0000
  O   O3        1.0  0.94851  0.72847  0.80569  1.0000
  O   O4        1.0  0.55150  0.22847  0.69431  1.0000
  O   O5        1.0  0.32385  0.41243  0.12944  1.0000
  O   O6        1.0  0.17614  0.91243  0.37056  1.0000
  O   O7        1.0  0.67615  0.58757  0.87056  1.0000
  O   O8        1.0  0.82387  0.08757  0.62945  1.0000
  O   O9        1.0  0.04775  0.54582  0.34664  1.0000
  O   O10       1.0  0.45222  0.04581  0.15336  1.0000
  O   O11       1.0  0.95226  0.45418  0.65334  1.0000
  O   O12       1.0  0.54779  0.95419  0.84664  1.0000
  O   O13       1.0  0.17773  0.40424  0.46140  1.0000
  O   O14       1.0  0.32226  0.90423  0.03860  1.0000
  O   O15       1.0  0.82226  0.59577  0.53860  1.0000
  O   O16       1.0  0.67774  0.09576  0.96141  1.0000
  O   O17       1.0  0.73772  0.87966  0.43874  1.0000
  O   O18       1.0  0.76227  0.37966  0.06126  1.0000
  O   O19       1.0  0.26228  0.12034  0.56126  1.0000
  O   O20       1.0  0.23773  0.62034  0.93874  1.0000
