data_image0
_chemical_formula_structural       Zn3H30C36N6O18
_chemical_formula_sum              "Zn3 H30 C36 N6 O18"
_cell_length_a       8.46241
_cell_length_b       11.7858
_cell_length_c       11.7858
_cell_angle_alpha    120.003
_cell_angle_beta     90.0249
_cell_angle_gamma    89.9753

_space_group_name_H-M_alt    "P 1"
_space_group_IT_number       1

loop_
  _space_group_symop_operation_xyz
  'x, y, z'

loop_
  _atom_site_type_symbol
  _atom_site_label
  _atom_site_symmetry_multiplicity
  _atom_site_fract_x
  _atom_site_fract_y
  _atom_site_fract_z
  _atom_site_occupancy
  Zn  Zn1       1.0  0.00000  0.71567  0.71567  1.0000
  Zn  Zn2       1.0  0.33351  0.28432  0.99993  1.0000
  Zn  Zn3       1.0  0.66649  0.99993  0.28432  1.0000
  H   H1        1.0  0.22572  0.84903  0.86008  1.0000
  H   H2        1.0  0.55927  0.13985  0.98890  1.0000
  H   H3        1.0  0.89236  0.01126  0.15123  1.0000
  H   H4        1.0  0.77428  0.86007  0.84903  1.0000
  H   H5        1.0  0.44073  0.98890  0.13986  1.0000
  H   H6        1.0  0.10764  0.15123  0.01126  1.0000
  H   H7        1.0  0.10306  0.83259  0.96165  1.0000
  H   H8        1.0  0.43653  0.03831  0.87084  1.0000
  H   H9        1.0  0.76965  0.12936  0.16781  1.0000
  H   H10       1.0  0.89694  0.96165  0.83259  1.0000
  H   H11       1.0  0.56348  0.87084  0.03831  1.0000
  H   H12       1.0  0.23035  0.16781  0.12936  1.0000
  H   H13       1.0  0.49520  0.39737  0.57781  1.0000
  H   H14       1.0  0.82853  0.42220  0.81969  1.0000
  H   H15       1.0  0.16166  0.18008  0.60261  1.0000
  H   H16       1.0  0.50479  0.57781  0.39737  1.0000
  H   H17       1.0  0.17146  0.81969  0.42219  1.0000
  H   H18       1.0  0.83834  0.60260  0.18007  1.0000
  H   H19       1.0  0.33250  0.59760  0.72935  1.0000
  H   H20       1.0  0.66592  0.27084  0.86856  1.0000
  H   H21       1.0  0.99906  0.13125  0.40233  1.0000
  H   H22       1.0  0.66750  0.72935  0.59761  1.0000
  H   H23       1.0  0.33407  0.86857  0.27085  1.0000
  H   H24       1.0  0.00094  0.40232  0.13123  1.0000
  H   H25       1.0  0.10926  0.27272  0.30527  1.0000
  H   H26       1.0  0.44252  0.69470  0.96712  1.0000
  H   H27       1.0  0.77571  0.03282  0.72764  1.0000
  H   H28       1.0  0.89074  0.30527  0.27272  1.0000
  H   H29       1.0  0.55747  0.96713  0.69470  1.0000
  H   H30       1.0  0.22429  0.72765  0.03283  1.0000
  C   C1        1.0  0.37702  0.41222  0.55093  1.0000
  C   C2        1.0  0.71034  0.44909  0.86138  1.0000
  C   C3        1.0  0.04348  0.13841  0.58779  1.0000
  C   C4        1.0  0.62299  0.55093  0.41222  1.0000
  C   C5        1.0  0.28966  0.86138  0.44909  1.0000
  C   C6        1.0  0.95652  0.58778  0.13840  1.0000
  C   C7        1.0  0.28805  0.52246  0.63425  1.0000
  C   C8        1.0  0.62137  0.36587  0.88836  1.0000
  C   C9        1.0  0.95453  0.11140  0.47750  1.0000
  C   C10       1.0  0.71195  0.63426  0.52246  1.0000
  C   C11       1.0  0.37862  0.88837  0.36587  1.0000
  C   C12       1.0  0.04547  0.47750  0.11139  1.0000
  C   C13       1.0  0.31177  0.32025  0.43033  1.0000
  C   C14       1.0  0.64511  0.56967  0.88987  1.0000
  C   C15       1.0  0.97825  0.11003  0.67988  1.0000
  C   C16       1.0  0.68823  0.43033  0.32024  1.0000
  C   C17       1.0  0.35488  0.88987  0.56967  1.0000
  C   C18       1.0  0.02176  0.67988  0.11003  1.0000
  C   C19       1.0  0.40090  0.19791  0.33517  1.0000
  C   C20       1.0  0.73434  0.66477  0.86270  1.0000
  C   C21       1.0  0.06765  0.13711  0.80211  1.0000
  C   C22       1.0  0.59910  0.33517  0.19791  1.0000
  C   C23       1.0  0.26566  0.86270  0.66476  1.0000
  C   C24       1.0  0.93235  0.80211  0.13711  1.0000
  C   C25       1.0  0.16090  0.34291  0.39876  1.0000
  C   C26       1.0  0.49420  0.60123  0.94392  1.0000
  C   C27       1.0  0.82736  0.05594  0.65734  1.0000
  C   C28       1.0  0.83910  0.39876  0.34291  1.0000
  C   C29       1.0  0.50579  0.94393  0.60123  1.0000
  C   C30       1.0  0.17265  0.65734  0.05594  1.0000
  C   C31       1.0  0.07952  0.45631  0.48659  1.0000
  C   C32       1.0  0.41289  0.51348  0.96961  1.0000
  C   C33       1.0  0.74602  0.03020  0.54384  1.0000
  C   C34       1.0  0.92047  0.48659  0.45632  1.0000
  C   C35       1.0  0.58711  0.96961  0.51349  1.0000
  C   C36       1.0  0.25398  0.54384  0.03020  1.0000
  N   N1        1.0  0.14298  0.54381  0.60288  1.0000
  N   N2        1.0  0.47636  0.39724  0.94098  1.0000
  N   N3        1.0  0.80953  0.05872  0.45618  1.0000
  N   N4        1.0  0.85702  0.60288  0.54382  1.0000
  N   N5        1.0  0.52364  0.94099  0.39724  1.0000
  N   N6        1.0  0.19047  0.45617  0.05871  1.0000
  O   O1        1.0  0.15738  0.78801  0.87514  1.0000
  O   O2        1.0  0.49093  0.12480  0.91277  1.0000
  O   O3        1.0  0.82394  0.08730  0.21233  1.0000
  O   O4        1.0  0.84262  0.87513  0.78801  1.0000
  O   O5        1.0  0.50908  0.91277  0.12480  1.0000
  O   O6        1.0  0.17606  0.21233  0.08730  1.0000
  O   O7        1.0  0.53163  0.17872  0.37526  1.0000
  O   O8        1.0  0.86503  0.62461  0.80345  1.0000
  O   O9        1.0  0.19841  0.19625  0.82113  1.0000
  O   O10       1.0  0.46837  0.37526  0.17871  1.0000
  O   O11       1.0  0.13497  0.80343  0.62460  1.0000
  O   O12       1.0  0.80160  0.82114  0.19626  1.0000
  O   O13       1.0  0.33748  0.12346  0.22377  1.0000
  O   O14       1.0  0.67103  0.77622  0.89968  1.0000
  O   O15       1.0  0.00439  0.10026  0.87667  1.0000
  O   O16       1.0  0.66252  0.22377  0.12346  1.0000
  O   O17       1.0  0.32897  0.89968  0.77622  1.0000
  O   O18       1.0  0.99561  0.87667  0.10027  1.0000
