data_image0
_chemical_formula_structural       Cd2H48C56N8O12
_chemical_formula_sum              "Cd2 H48 C56 N8 O12"
_cell_length_a       9.78145
_cell_length_b       11.349
_cell_length_c       12.218
_cell_angle_alpha    102.335
_cell_angle_beta     106.856
_cell_angle_gamma    99.329

_space_group_name_H-M_alt    "P 1"
_space_group_IT_number       1

loop_
  _space_group_symop_operation_xyz
  'x, y, z'

loop_
  _atom_site_type_symbol
  _atom_site_label
  _atom_site_symmetry_multiplicity
  _atom_site_fract_x
  _atom_site_fract_y
  _atom_site_fract_z
  _atom_site_occupancy
  Cd  Cd1       1.0  0.35316  0.08433  0.88223  1.0000
  Cd  Cd2       1.0  0.64684  0.91567  0.11776  1.0000
  H   H1        1.0  0.91041  0.16724  0.37382  1.0000
  H   H2        1.0  0.08959  0.83277  0.62619  1.0000
  H   H3        1.0  0.80651  0.26782  0.22076  1.0000
  H   H4        1.0  0.19349  0.73219  0.77924  1.0000
  H   H5        1.0  0.83717  0.49804  0.27069  1.0000
  H   H6        1.0  0.16282  0.50197  0.72932  1.0000
  H   H7        1.0  0.15305  0.15743  0.51373  1.0000
  H   H8        1.0  0.84695  0.84258  0.48627  1.0000
  H   H9        1.0  0.98015  0.10234  0.52759  1.0000
  H   H10       1.0  0.01985  0.89766  0.47241  1.0000
  H   H11       1.0  0.22731  0.43489  0.42703  1.0000
  H   H12       1.0  0.77271  0.56511  0.57297  1.0000
  H   H13       1.0  0.37115  0.35017  0.58053  1.0000
  H   H14       1.0  0.62887  0.64985  0.41948  1.0000
  H   H15       1.0  0.69904  0.31185  0.62674  1.0000
  H   H16       1.0  0.30096  0.68815  0.37326  1.0000
  H   H17       1.0  0.78299  0.46122  0.72635  1.0000
  H   H18       1.0  0.21702  0.53878  0.27366  1.0000
  H   H19       1.0  0.56516  0.15900  0.69757  1.0000
  H   H20       1.0  0.43485  0.84100  0.30243  1.0000
  H   H21       1.0  0.49767  0.38684  0.98849  1.0000
  H   H22       1.0  0.50233  0.61315  0.01152  1.0000
  H   H23       1.0  0.61715  0.53765  0.86900  1.0000
  H   H24       1.0  0.38286  0.46236  0.13100  1.0000
  H   H25       1.0  0.76646  0.14676  0.51620  1.0000
  H   H26       1.0  0.23353  0.85324  0.48379  1.0000
  H   H27       1.0  0.87998  0.05656  0.67823  1.0000
  H   H28       1.0  0.12002  0.94344  0.32176  1.0000
  H   H29       1.0  0.72752  0.90274  0.73769  1.0000
  H   H30       1.0  0.27248  0.09726  0.26230  1.0000
  H   H31       1.0  0.58640  0.72199  0.70372  1.0000
  H   H32       1.0  0.41360  0.27801  0.29628  1.0000
  H   H33       1.0  0.40355  0.67228  0.70086  1.0000
  H   H34       1.0  0.59646  0.32772  0.29914  1.0000
  H   H35       1.0  0.30384  0.90750  0.06909  1.0000
  H   H36       1.0  0.69615  0.09250  0.93091  1.0000
  H   H37       1.0  0.84413  0.80346  0.88966  1.0000
  H   H38       1.0  0.15587  0.19654  0.11034  1.0000
  H   H39       1.0  0.98308  0.94302  0.77062  1.0000
  H   H40       1.0  0.01692  0.05698  0.22938  1.0000
  H   H41       1.0  0.95782  0.79005  0.11598  1.0000
  H   H42       1.0  0.04218  0.20994  0.88402  1.0000
  H   H43       1.0  0.14960  0.80282  0.16544  1.0000
  H   H44       1.0  0.85039  0.19716  0.83455  1.0000
  H   H45       1.0  0.15183  0.63631  0.92303  1.0000
  H   H46       1.0  0.84816  0.36368  0.07696  1.0000
  H   H47       1.0  0.11152  0.40562  0.85436  1.0000
  H   H48       1.0  0.88847  0.59436  0.14563  1.0000
  C   C1        1.0  0.01063  0.33978  0.51287  1.0000
  C   C2        1.0  0.98937  0.66023  0.48713  1.0000
  C   C3        1.0  0.93127  0.26816  0.39769  1.0000
  C   C4        1.0  0.06873  0.73184  0.60232  1.0000
  C   C5        1.0  0.86976  0.32645  0.31049  1.0000
  C   C6        1.0  0.13024  0.67355  0.68951  1.0000
  C   C7        1.0  0.88646  0.45338  0.33743  1.0000
  C   C8        1.0  0.11354  0.54662  0.66257  1.0000
  C   C9        1.0  0.96820  0.52810  0.45485  1.0000
  C   C10       1.0  0.03179  0.47190  0.54516  1.0000
  C   C11       1.0  0.08836  0.16839  0.57413  1.0000
  C   C12       1.0  0.91164  0.83162  0.42587  1.0000
  C   C13       1.0  0.16576  0.13551  0.68666  1.0000
  C   C14       1.0  0.83424  0.86450  0.31334  1.0000
  C   C15       1.0  0.34727  0.46372  0.45880  1.0000
  C   C16       1.0  0.65275  0.53629  0.54121  1.0000
  C   C17       1.0  0.42856  0.41564  0.54544  1.0000
  C   C18       1.0  0.57145  0.58438  0.45457  1.0000
  C   C19       1.0  0.58248  0.45118  0.58727  1.0000
  C   C20       1.0  0.41754  0.54883  0.41274  1.0000
  C   C21       1.0  0.67597  0.39560  0.67509  1.0000
  C   C22       1.0  0.32405  0.60441  0.32492  1.0000
  C   C23       1.0  0.56333  0.23992  0.76245  1.0000
  C   C24       1.0  0.43668  0.76008  0.23755  1.0000
  C   C25       1.0  0.52987  0.36258  0.91057  1.0000
  C   C26       1.0  0.47014  0.63742  0.08942  1.0000
  C   C27       1.0  0.58781  0.43747  0.85235  1.0000
  C   C28       1.0  0.41218  0.56251  0.14766  1.0000
  C   C29       1.0  0.54524  0.04505  0.48423  1.0000
  C   C30       1.0  0.45475  0.95495  0.51577  1.0000
  C   C31       1.0  0.69944  0.08066  0.54365  1.0000
  C   C32       1.0  0.30055  0.91933  0.45635  1.0000
  C   C33       1.0  0.76137  0.02879  0.63251  1.0000
  C   C34       1.0  0.23862  0.97121  0.36749  1.0000
  C   C35       1.0  0.67490  0.94023  0.66602  1.0000
  C   C36       1.0  0.32509  0.05977  0.33398  1.0000
  C   C37       1.0  0.52405  0.90245  0.60787  1.0000
  C   C38       1.0  0.47594  0.09755  0.39213  1.0000
  C   C39       1.0  0.49085  0.75466  0.71713  1.0000
  C   C40       1.0  0.50915  0.24534  0.28287  1.0000
  C   C41       1.0  0.53040  0.83157  0.84621  1.0000
  C   C42       1.0  0.46960  0.16843  0.15379  1.0000
  C   C43       1.0  0.19887  0.89838  0.00247  1.0000
  C   C44       1.0  0.80113  0.10162  0.99754  1.0000
  C   C45       1.0  0.95873  0.84496  0.90595  1.0000
  C   C46       1.0  0.04126  0.15503  0.09405  1.0000
  C   C47       1.0  0.02850  0.91523  0.85021  1.0000
  C   C48       1.0  0.97150  0.08477  0.14978  1.0000
  C   C49       1.0  0.04912  0.76767  0.08694  1.0000
  C   C50       1.0  0.95087  0.23231  0.91305  1.0000
  C   C51       1.0  0.02230  0.62911  0.03874  1.0000
  C   C52       1.0  0.97768  0.37087  0.96124  1.0000
  C   C53       1.0  0.08438  0.57657  0.95630  1.0000
  C   C54       1.0  0.91561  0.42342  0.04368  1.0000
  C   C55       1.0  0.06248  0.44810  0.91776  1.0000
  C   C56       1.0  0.93751  0.55189  0.08222  1.0000
  N   N1        1.0  0.51546  0.23952  0.85403  1.0000
  N   N2        1.0  0.48455  0.76048  0.14598  1.0000
  N   N3        1.0  0.60909  0.35843  0.75884  1.0000
  N   N4        1.0  0.39092  0.64157  0.24116  1.0000
  N   N5        1.0  0.17796  0.94814  0.91128  1.0000
  N   N6        1.0  0.82204  0.05186  0.08872  1.0000
  N   N7        1.0  0.06865  0.83583  0.00225  1.0000
  N   N8        1.0  0.93135  0.16416  0.99775  1.0000
  O   O1        1.0  0.49654  0.93460  0.86887  1.0000
  O   O2        1.0  0.50346  0.06540  0.13113  1.0000
  O   O3        1.0  0.59704  0.78204  0.92385  1.0000
  O   O4        1.0  0.40295  0.21796  0.07615  1.0000
  O   O5        1.0  0.18608  0.20726  0.78769  1.0000
  O   O6        1.0  0.81392  0.79275  0.21231  1.0000
  O   O7        1.0  0.20674  0.03390  0.67075  1.0000
  O   O8        1.0  0.79326  0.96611  0.32925  1.0000
  O   O9        1.0  0.43090  0.81491  0.62966  1.0000
  O   O10       1.0  0.56910  0.18509  0.37034  1.0000
  O   O11       1.0  0.07412  0.29334  0.60430  1.0000
  O   O12       1.0  0.92587  0.70667  0.39570  1.0000
