data_image0
_chemical_formula_structural       Zn8P8H48C32N16O28
_chemical_formula_sum              "Zn8 P8 H48 C32 N16 O28"
_cell_length_a       9.67653
_cell_length_b       10.4777
_cell_length_c       14.6562
_cell_angle_alpha    90
_cell_angle_beta     90
_cell_angle_gamma    90.0001

_space_group_name_H-M_alt    "P 1"
_space_group_IT_number       1

loop_
  _space_group_symop_operation_xyz
  'x, y, z'

loop_
  _atom_site_type_symbol
  _atom_site_label
  _atom_site_symmetry_multiplicity
  _atom_site_fract_x
  _atom_site_fract_y
  _atom_site_fract_z
  _atom_site_occupancy
  Zn  Zn1       1.0  0.24934  0.58729  0.93565  1.0000
  Zn  Zn2       1.0  0.74934  0.91271  0.06435  1.0000
  Zn  Zn3       1.0  0.25066  0.41271  0.43565  1.0000
  Zn  Zn4       1.0  0.75066  0.08729  0.56435  1.0000
  Zn  Zn5       1.0  0.35768  0.97572  0.81651  1.0000
  Zn  Zn6       1.0  0.85768  0.52428  0.18349  1.0000
  Zn  Zn7       1.0  0.14232  0.02428  0.31651  1.0000
  Zn  Zn8       1.0  0.64232  0.47572  0.68349  1.0000
  P   P1        1.0  0.44786  0.69607  0.78174  1.0000
  P   P2        1.0  0.94786  0.80393  0.21826  1.0000
  P   P3        1.0  0.05214  0.30393  0.28173  1.0000
  P   P4        1.0  0.55214  0.19607  0.71827  1.0000
  P   P5        1.0  0.46763  0.80037  0.97855  1.0000
  P   P6        1.0  0.96764  0.69963  0.02145  1.0000
  P   P7        1.0  0.03237  0.19963  0.47855  1.0000
  P   P8        1.0  0.53237  0.30037  0.52145  1.0000
  H   H1        1.0  0.68326  0.54845  0.86449  1.0000
  H   H2        1.0  0.18326  0.95155  0.13551  1.0000
  H   H3        1.0  0.81674  0.45155  0.36449  1.0000
  H   H4        1.0  0.31674  0.04845  0.63551  1.0000
  H   H5        1.0  0.52805  0.51941  0.92609  1.0000
  H   H6        1.0  0.02805  0.98059  0.07391  1.0000
  H   H7        1.0  0.97195  0.48059  0.42609  1.0000
  H   H8        1.0  0.47195  0.01941  0.57390  1.0000
  H   H9        1.0  0.66963  0.59669  0.98010  1.0000
  H   H10       1.0  0.16963  0.90331  0.01990  1.0000
  H   H11       1.0  0.83037  0.40331  0.48010  1.0000
  H   H12       1.0  0.33037  0.09669  0.51990  1.0000
  H   H13       1.0  0.15699  0.19887  0.73549  1.0000
  H   H14       1.0  0.65699  0.30113  0.26451  1.0000
  H   H15       1.0  0.34301  0.80113  0.23549  1.0000
  H   H16       1.0  0.84301  0.69887  0.76451  1.0000
  H   H17       1.0  0.89110  0.16113  0.73138  1.0000
  H   H18       1.0  0.39110  0.33887  0.26863  1.0000
  H   H19       1.0  0.60890  0.83887  0.23138  1.0000
  H   H20       1.0  0.10890  0.66113  0.76862  1.0000
  H   H21       1.0  0.82253  0.95562  0.80553  1.0000
  H   H22       1.0  0.32253  0.54438  0.19447  1.0000
  H   H23       1.0  0.67747  0.04438  0.30553  1.0000
  H   H24       1.0  0.17747  0.45562  0.69447  1.0000
  H   H25       1.0  0.07053  0.84517  0.86312  1.0000
  H   H26       1.0  0.57053  0.65483  0.13688  1.0000
  H   H27       1.0  0.42946  0.15483  0.36312  1.0000
  H   H28       1.0  0.92947  0.34517  0.63688  1.0000
  H   H29       1.0  0.11519  0.43013  0.09337  1.0000
  H   H30       1.0  0.61519  0.06987  0.90663  1.0000
  H   H31       1.0  0.38481  0.56987  0.59337  1.0000
  H   H32       1.0  0.88481  0.93013  0.40663  1.0000
  H   H33       1.0  0.17814  0.20300  0.12882  1.0000
  H   H34       1.0  0.67814  0.29700  0.87118  1.0000
  H   H35       1.0  0.32186  0.79700  0.62882  1.0000
  H   H36       1.0  0.82186  0.70300  0.37118  1.0000
  H   H37       1.0  0.34897  0.10929  0.00770  1.0000
  H   H38       1.0  0.84897  0.39071  0.99230  1.0000
  H   H39       1.0  0.15103  0.89071  0.50770  1.0000
  H   H40       1.0  0.65104  0.60929  0.49230  1.0000
  H   H41       1.0  0.39342  0.30983  0.88735  1.0000
  H   H42       1.0  0.89342  0.19017  0.11265  1.0000
  H   H43       1.0  0.10658  0.69017  0.38735  1.0000
  H   H44       1.0  0.60658  0.80983  0.61265  1.0000
  H   H45       1.0  0.74732  0.79000  0.90185  1.0000
  H   H46       1.0  0.24732  0.71000  0.09815  1.0000
  H   H47       1.0  0.75268  0.21000  0.40185  1.0000
  H   H48       1.0  0.25268  0.29000  0.59815  1.0000
  C   C1        1.0  0.56029  0.71864  0.88348  1.0000
  C   C2        1.0  0.06030  0.78136  0.11652  1.0000
  C   C3        1.0  0.93970  0.28136  0.38348  1.0000
  C   C4        1.0  0.43971  0.21864  0.61652  1.0000
  C   C5        1.0  0.61245  0.58776  0.91581  1.0000
  C   C6        1.0  0.11245  0.91224  0.08419  1.0000
  C   C7        1.0  0.88755  0.41224  0.41581  1.0000
  C   C8        1.0  0.38755  0.08776  0.58419  1.0000
  C   C9        1.0  0.10075  0.11783  0.76299  1.0000
  C   C10       1.0  0.60075  0.38217  0.23702  1.0000
  C   C11       1.0  0.39925  0.88217  0.26298  1.0000
  C   C12       1.0  0.89925  0.61783  0.73702  1.0000
  C   C13       1.0  0.92873  0.98763  0.80067  1.0000
  C   C14       1.0  0.42873  0.51237  0.19933  1.0000
  C   C15       1.0  0.57127  0.01237  0.30067  1.0000
  C   C16       1.0  0.07127  0.48763  0.69933  1.0000
  C   C17       1.0  0.05183  0.93379  0.82679  1.0000
  C   C18       1.0  0.55183  0.56621  0.17321  1.0000
  C   C19       1.0  0.44817  0.06622  0.32679  1.0000
  C   C20       1.0  0.94817  0.43378  0.67321  1.0000
  C   C21       1.0  0.18584  0.37273  0.05333  1.0000
  C   C22       1.0  0.68584  0.12727  0.94668  1.0000
  C   C23       1.0  0.31416  0.62727  0.55333  1.0000
  C   C24       1.0  0.81416  0.87273  0.44667  1.0000
  C   C25       1.0  0.30927  0.20625  0.00772  1.0000
  C   C26       1.0  0.80927  0.29374  0.99228  1.0000
  C   C27       1.0  0.19073  0.79374  0.50772  1.0000
  C   C28       1.0  0.69073  0.70626  0.49228  1.0000
  C   C29       1.0  0.33083  0.30628  0.94867  1.0000
  C   C30       1.0  0.83083  0.19372  0.05133  1.0000
  C   C31       1.0  0.16917  0.69372  0.44867  1.0000
  C   C32       1.0  0.66917  0.80628  0.55133  1.0000
  N   N1        1.0  0.96227  0.10288  0.76133  1.0000
  N   N2        1.0  0.46227  0.39712  0.23867  1.0000
  N   N3        1.0  0.53773  0.89712  0.26133  1.0000
  N   N4        1.0  0.03773  0.60288  0.73867  1.0000
  N   N5        1.0  0.21766  0.25050  0.07267  1.0000
  N   N6        1.0  0.71766  0.24950  0.92733  1.0000
  N   N7        1.0  0.28235  0.74950  0.57267  1.0000
  N   N8        1.0  0.78234  0.75050  0.42733  1.0000
  N   N9        1.0  0.25317  0.40965  0.97818  1.0000
  N   N10       1.0  0.75317  0.09035  0.02182  1.0000
  N   N11       1.0  0.24683  0.59035  0.47818  1.0000
  N   N12       1.0  0.74683  0.90965  0.52182  1.0000
  N   N13       1.0  0.15819  0.01574  0.80259  1.0000
  N   N14       1.0  0.65819  0.48426  0.19741  1.0000
  N   N15       1.0  0.34181  0.98426  0.30259  1.0000
  N   N16       1.0  0.84181  0.51574  0.69741  1.0000
  O   O1        1.0  0.53092  0.62437  0.70949  1.0000
  O   O2        1.0  0.03092  0.87564  0.29051  1.0000
  O   O3        1.0  0.96908  0.37563  0.20949  1.0000
  O   O4        1.0  0.46908  0.12436  0.79051  1.0000
  O   O5        1.0  0.40750  0.82728  0.74048  1.0000
  O   O6        1.0  0.90750  0.67272  0.25952  1.0000
  O   O7        1.0  0.09250  0.17272  0.24048  1.0000
  O   O8        1.0  0.59249  0.32728  0.75952  1.0000
  O   O9        1.0  0.31784  0.62227  0.81268  1.0000
  O   O10       1.0  0.81784  0.87773  0.18732  1.0000
  O   O11       1.0  0.18216  0.37773  0.31268  1.0000
  O   O12       1.0  0.68216  0.12227  0.68732  1.0000
  O   O13       1.0  0.57024  0.82821  0.05597  1.0000
  O   O14       1.0  0.07024  0.67179  0.94403  1.0000
  O   O15       1.0  0.92976  0.17179  0.55597  1.0000
  O   O16       1.0  0.42976  0.32820  0.44403  1.0000
  O   O17       1.0  0.40269  0.92399  0.94177  1.0000
  O   O18       1.0  0.90270  0.57601  0.05823  1.0000
  O   O19       1.0  0.09730  0.07601  0.44176  1.0000
  O   O20       1.0  0.59731  0.42399  0.55823  1.0000
  O   O21       1.0  0.36015  0.70321  0.01465  1.0000
  O   O22       1.0  0.86015  0.79679  0.98535  1.0000
  O   O23       1.0  0.13985  0.29679  0.51465  1.0000
  O   O24       1.0  0.63985  0.20321  0.48535  1.0000
  O   O25       1.0  0.67290  0.79861  0.85462  1.0000
  O   O26       1.0  0.17290  0.70140  0.14538  1.0000
  O   O27       1.0  0.82710  0.20140  0.35462  1.0000
  O   O28       1.0  0.32710  0.29860  0.64538  1.0000
