data_image0
_chemical_formula_structural       Ni2H56C68N8Cl4O8
_chemical_formula_sum              "Ni2 H56 C68 N8 Cl4 O8"
_cell_length_a       11.9449
_cell_length_b       11.9489
_cell_length_c       13.1258
_cell_angle_alpha    68.8009
_cell_angle_beta     68.8039
_cell_angle_gamma    62.6503

_space_group_name_H-M_alt    "P 1"
_space_group_IT_number       1

loop_
  _space_group_symop_operation_xyz
  'x, y, z'

loop_
  _atom_site_type_symbol
  _atom_site_label
  _atom_site_symmetry_multiplicity
  _atom_site_fract_x
  _atom_site_fract_y
  _atom_site_fract_z
  _atom_site_occupancy
  Ni  Ni1       1.0  0.95566  0.04432  0.25003  1.0000
  Ni  Ni2       1.0  0.04549  0.95452  0.75006  1.0000
  H   H1        1.0  0.03823  0.85712  0.46110  1.0000
  H   H2        1.0  0.14292  0.96157  0.03894  1.0000
  H   H3        1.0  0.96133  0.14252  0.53720  1.0000
  H   H4        1.0  0.85739  0.03886  0.96287  1.0000
  H   H5        1.0  0.71293  0.85915  0.54489  1.0000
  H   H6        1.0  0.14094  0.28710  0.95484  1.0000
  H   H7        1.0  0.28670  0.14039  0.45525  1.0000
  H   H8        1.0  0.85987  0.71311  0.04468  1.0000
  H   H9        1.0  0.54321  0.39041  0.35348  1.0000
  H   H10       1.0  0.60958  0.45687  0.14656  1.0000
  H   H11       1.0  0.45611  0.61023  0.64598  1.0000
  H   H12       1.0  0.38976  0.54399  0.85395  1.0000
  H   H13       1.0  0.50916  0.79611  0.36821  1.0000
  H   H14       1.0  0.20389  0.49076  0.13186  1.0000
  H   H15       1.0  0.48957  0.20495  0.63189  1.0000
  H   H16       1.0  0.79497  0.51039  0.86809  1.0000
  H   H17       1.0  0.35224  0.59600  0.37039  1.0000
  H   H18       1.0  0.40397  0.64782  0.12954  1.0000
  H   H19       1.0  0.64710  0.40466  0.62906  1.0000
  H   H20       1.0  0.59532  0.35297  0.87103  1.0000
  H   H21       1.0  0.21959  0.13899  0.11495  1.0000
  H   H22       1.0  0.86112  0.78017  0.38519  1.0000
  H   H23       1.0  0.78062  0.86054  0.88329  1.0000
  H   H24       1.0  0.13952  0.21949  0.61670  1.0000
  H   H25       1.0  0.18803  0.71149  0.57902  1.0000
  H   H26       1.0  0.28842  0.81199  0.92098  1.0000
  H   H27       1.0  0.81156  0.28917  0.42029  1.0000
  H   H28       1.0  0.71078  0.18856  0.07975  1.0000
  H   H29       1.0  0.28597  0.78454  0.57741  1.0000
  H   H30       1.0  0.21536  0.71407  0.92255  1.0000
  H   H31       1.0  0.71336  0.21664  0.42145  1.0000
  H   H32       1.0  0.78346  0.28661  0.07859  1.0000
  H   H33       1.0  0.68834  0.84543  0.24448  1.0000
  H   H34       1.0  0.15439  0.31168  0.25551  1.0000
  H   H35       1.0  0.31080  0.15480  0.75572  1.0000
  H   H36       1.0  0.84516  0.68907  0.74434  1.0000
  H   H37       1.0  0.64995  0.01388  0.18634  1.0000
  H   H38       1.0  0.98587  0.35021  0.31367  1.0000
  H   H39       1.0  0.34966  0.98629  0.81387  1.0000
  H   H40       1.0  0.01376  0.65023  0.68617  1.0000
  H   H41       1.0  0.68241  0.91238  0.10080  1.0000
  H   H42       1.0  0.08750  0.31754  0.39922  1.0000
  H   H43       1.0  0.31712  0.08797  0.89927  1.0000
  H   H44       1.0  0.91199  0.68283  0.60076  1.0000
  H   H45       1.0  0.49009  0.19952  0.07547  1.0000
  H   H46       1.0  0.80027  0.50998  0.42470  1.0000
  H   H47       1.0  0.50976  0.80049  0.92447  1.0000
  H   H48       1.0  0.19962  0.49022  0.57550  1.0000
  H   H49       1.0  0.38784  0.20961  0.99990  1.0000
  H   H50       1.0  0.79033  0.61221  0.50013  1.0000
  H   H51       1.0  0.61217  0.79090  0.99958  1.0000
  H   H52       1.0  0.20914  0.38787  0.50040  1.0000
  H   H53       1.0  0.54754  0.09020  0.98968  1.0000
  H   H54       1.0  0.90961  0.45253  0.51049  1.0000
  H   H55       1.0  0.45240  0.91012  0.00991  1.0000
  H   H56       1.0  0.08991  0.54759  0.49009  1.0000
  C   C1        1.0  0.61307  0.02298  0.42929  1.0000
  C   C2        1.0  0.97707  0.38693  0.07050  1.0000
  C   C3        1.0  0.38681  0.97585  0.57070  1.0000
  C   C4        1.0  0.02441  0.61306  0.92917  1.0000
  C   C5        1.0  0.74013  0.03523  0.36235  1.0000
  C   C6        1.0  0.96473  0.25995  0.13762  1.0000
  C   C7        1.0  0.26126  0.96251  0.64088  1.0000
  C   C8        1.0  0.03769  0.73865  0.85911  1.0000
  C   C9        1.0  0.31567  0.88969  0.33762  1.0000
  C   C10       1.0  0.11033  0.68421  0.16244  1.0000
  C   C11       1.0  0.68368  0.11071  0.66141  1.0000
  C   C12       1.0  0.88926  0.31636  0.83860  1.0000
  C   C13       1.0  0.49064  0.10382  0.40542  1.0000
  C   C14       1.0  0.89628  0.50933  0.09435  1.0000
  C   C15       1.0  0.50942  0.89476  0.59429  1.0000
  C   C16       1.0  0.10542  0.49049  0.90555  1.0000
  C   C17       1.0  0.11851  0.88508  0.40516  1.0000
  C   C18       1.0  0.11495  0.88133  0.09493  1.0000
  C   C19       1.0  0.88118  0.11440  0.59332  1.0000
  C   C20       1.0  0.88555  0.11894  0.90672  1.0000
  C   C21       1.0  0.61892  0.91975  0.52475  1.0000
  C   C22       1.0  0.08034  0.38104  0.97504  1.0000
  C   C23       1.0  0.38081  0.07911  0.47513  1.0000
  C   C24       1.0  0.92110  0.61909  0.02471  1.0000
  C   C25       1.0  0.23387  0.98369  0.26564  1.0000
  C   C26       1.0  0.01637  0.76598  0.23446  1.0000
  C   C27       1.0  0.76597  0.01601  0.73274  1.0000
  C   C28       1.0  0.98398  0.23408  0.76726  1.0000
  C   C29       1.0  0.39135  0.61614  0.51002  1.0000
  C   C30       1.0  0.38386  0.60871  0.98993  1.0000
  C   C31       1.0  0.60813  0.38468  0.48925  1.0000
  C   C32       1.0  0.61530  0.39194  0.01079  1.0000
  C   C33       1.0  0.52433  0.43950  0.41716  1.0000
  C   C34       1.0  0.56052  0.47573  0.08285  1.0000
  C   C35       1.0  0.47513  0.56132  0.58213  1.0000
  C   C36       1.0  0.43867  0.52497  0.91782  1.0000
  C   C37       1.0  0.44602  0.87096  0.31370  1.0000
  C   C38       1.0  0.12903  0.55391  0.18636  1.0000
  C   C39       1.0  0.55314  0.12974  0.68591  1.0000
  C   C40       1.0  0.87022  0.44685  0.81409  1.0000
  C   C41       1.0  0.41692  0.55452  0.42702  1.0000
  C   C42       1.0  0.44548  0.58312  0.07295  1.0000
  C   C43       1.0  0.58252  0.44627  0.57229  1.0000
  C   C44       1.0  0.55370  0.41757  0.92773  1.0000
  C   C45       1.0  0.49447  0.95045  0.21701  1.0000
  C   C46       1.0  0.04951  0.50546  0.28304  1.0000
  C   C47       1.0  0.50496  0.05003  0.78266  1.0000
  C   C48       1.0  0.94996  0.49502  0.71735  1.0000
  C   C49       1.0  0.28191  0.06531  0.17036  1.0000
  C   C50       1.0  0.93476  0.71791  0.32975  1.0000
  C   C51       1.0  0.71802  0.93450  0.82823  1.0000
  C   C52       1.0  0.06552  0.28204  0.67178  1.0000
  C   C53       1.0  0.41091  0.05055  0.14710  1.0000
  C   C54       1.0  0.94943  0.58899  0.35297  1.0000
  C   C55       1.0  0.58880  0.94971  0.85220  1.0000
  C   C56       1.0  0.05033  0.41121  0.64781  1.0000
  C   C57       1.0  0.27284  0.73643  0.52811  1.0000
  C   C58       1.0  0.26352  0.72716  0.97186  1.0000
  C   C59       1.0  0.72658  0.26437  0.47103  1.0000
  C   C60       1.0  0.73561  0.27350  0.02902  1.0000
  C   C61       1.0  0.63563  0.92940  0.18605  1.0000
  C   C62       1.0  0.07045  0.36438  0.31398  1.0000
  C   C63       1.0  0.36380  0.07093  0.81402  1.0000
  C   C64       1.0  0.92907  0.63613  0.68600  1.0000
  C   C65       1.0  0.46159  0.14176  0.04782  1.0000
  C   C66       1.0  0.85814  0.53843  0.45227  1.0000
  C   C67       1.0  0.53828  0.85855  0.95174  1.0000
  C   C68       1.0  0.14150  0.46172  0.54825  1.0000
  N   N1        1.0  0.11129  0.97707  0.31017  1.0000
  N   N2        1.0  0.02301  0.88853  0.18995  1.0000
  N   N3        1.0  0.88882  0.02205  0.68786  1.0000
  N   N4        1.0  0.97793  0.11128  0.81218  1.0000
  N   N5        1.0  0.23888  0.82913  0.42537  1.0000
  N   N6        1.0  0.17083  0.76102  0.07464  1.0000
  N   N7        1.0  0.76043  0.17134  0.57363  1.0000
  N   N8        1.0  0.82861  0.23966  0.92640  1.0000
  Cl  Cl1       1.0  0.46779  0.23763  0.29284  1.0000
  Cl  Cl2       1.0  0.76239  0.53226  0.20686  1.0000
  Cl  Cl3       1.0  0.53387  0.76057  0.70636  1.0000
  Cl  Cl4       1.0  0.23966  0.46614  0.79350  1.0000
  O   O1        1.0  0.83222  0.98418  0.41245  1.0000
  O   O2        1.0  0.01583  0.16768  0.08774  1.0000
  O   O3        1.0  0.16448  0.01577  0.59526  1.0000
  O   O4        1.0  0.98442  0.83533  0.90481  1.0000
  O   O5        1.0  0.75802  0.09112  0.25792  1.0000
  O   O6        1.0  0.90871  0.24227  0.24202  1.0000
  O   O7        1.0  0.24854  0.90291  0.74389  1.0000
  O   O8        1.0  0.09718  0.75154  0.75607  1.0000
