data_image0
_chemical_formula_structural       Cu2H20C24N4O12
_chemical_formula_sum              "Cu2 H20 C24 N4 O12"
_cell_length_a       7.1638
_cell_length_b       7.16482
_cell_length_c       12.257
_cell_angle_alpha    86.1314
_cell_angle_beta     86.1279
_cell_angle_gamma    71.3983

_space_group_name_H-M_alt    "P 1"
_space_group_IT_number       1

loop_
  _space_group_symop_operation_xyz
  'x, y, z'

loop_
  _atom_site_type_symbol
  _atom_site_label
  _atom_site_symmetry_multiplicity
  _atom_site_fract_x
  _atom_site_fract_y
  _atom_site_fract_z
  _atom_site_occupancy
  Cu  Cu1       1.0  0.60221  0.66729  0.54201  1.0000
  Cu  Cu2       1.0  0.66740  0.60205  0.04202  1.0000
  H   H1        1.0  0.08465  0.85690  0.28860  1.0000
  H   H2        1.0  0.85689  0.08464  0.78860  1.0000
  H   H3        1.0  0.64151  0.00465  0.46148  1.0000
  H   H4        1.0  0.00476  0.64156  0.96144  1.0000
  H   H5        1.0  0.73241  0.97988  0.57967  1.0000
  H   H6        1.0  0.97998  0.73246  0.07967  1.0000
  H   H7        1.0  0.95950  0.56150  0.47057  1.0000
  H   H8        1.0  0.56150  0.95952  0.97055  1.0000
  H   H9        1.0  0.31522  0.37067  0.48539  1.0000
  H   H10       1.0  0.37069  0.31520  0.98537  1.0000
  H   H11       1.0  0.32600  0.15807  0.16369  1.0000
  H   H12       1.0  0.15807  0.32598  0.66369  1.0000
  H   H13       1.0  0.97474  0.33568  0.15109  1.0000
  H   H14       1.0  0.33566  0.97478  0.65110  1.0000
  H   H15       1.0  0.81159  0.07502  0.26129  1.0000
  H   H16       1.0  0.07503  0.81156  0.76130  1.0000
  H   H17       1.0  0.62275  0.21672  0.17414  1.0000
  H   H18       1.0  0.21672  0.62278  0.67412  1.0000
  H   H19       1.0  0.64303  0.96451  0.21215  1.0000
  H   H20       1.0  0.96446  0.64307  0.71215  1.0000
  C   C1        1.0  0.41900  0.73188  0.34055  1.0000
  C   C2        1.0  0.73186  0.41903  0.84055  1.0000
  C   C3        1.0  0.43916  0.69912  0.22978  1.0000
  C   C4        1.0  0.69915  0.43916  0.72976  1.0000
  C   C5        1.0  0.73226  0.57458  0.29861  1.0000
  C   C6        1.0  0.57462  0.73226  0.79859  1.0000
  C   C7        1.0  0.93986  0.46377  0.30949  1.0000
  C   C8        1.0  0.46378  0.93986  0.80947  1.0000
  C   C9        1.0  0.03788  0.46760  0.40482  1.0000
  C   C10       1.0  0.46760  0.03790  0.90480  1.0000
  C   C11       1.0  0.23636  0.36309  0.41364  1.0000
  C   C12       1.0  0.36310  0.23636  0.91363  1.0000
  C   C13       1.0  0.34279  0.25461  0.32581  1.0000
  C   C14       1.0  0.25462  0.34280  0.82581  1.0000
  C   C15       1.0  0.24703  0.24583  0.23133  1.0000
  C   C16       1.0  0.24582  0.24702  0.73134  1.0000
  C   C17       1.0  0.04717  0.34828  0.22414  1.0000
  C   C18       1.0  0.34828  0.04718  0.72415  1.0000
  C   C19       1.0  0.24782  0.82150  0.41330  1.0000
  C   C20       1.0  0.82148  0.24786  0.91328  1.0000
  C   C21       1.0  0.29722  0.72508  0.14543  1.0000
  C   C22       1.0  0.72508  0.29722  0.64540  1.0000
  C   C23       1.0  0.66016  0.10073  0.23954  1.0000
  C   C24       1.0  0.10073  0.66016  0.73954  1.0000
  N   N1        1.0  0.60233  0.65441  0.38200  1.0000
  N   N2        1.0  0.65440  0.60236  0.88201  1.0000
  N   N3        1.0  0.63491  0.60449  0.20355  1.0000
  N   N4        1.0  0.60457  0.63488  0.70355  1.0000
  O   O1        1.0  0.26868  0.82822  0.51285  1.0000
  O   O2        1.0  0.82819  0.26873  0.01283  1.0000
  O   O3        1.0  0.07392  0.89166  0.37018  1.0000
  O   O4        1.0  0.89165  0.07398  0.87016  1.0000
  O   O5        1.0  0.11286  0.79629  0.16937  1.0000
  O   O6        1.0  0.79623  0.11293  0.66932  1.0000
  O   O7        1.0  0.36961  0.66659  0.05068  1.0000
  O   O8        1.0  0.66660  0.36966  0.55069  1.0000
  O   O9        1.0  0.54047  0.16387  0.33776  1.0000
  O   O10       1.0  0.16389  0.54046  0.83775  1.0000
  O   O11       1.0  0.69087  0.90917  0.52279  1.0000
  O   O12       1.0  0.90922  0.69088  0.02277  1.0000
