data_image0
_chemical_formula_structural       Cd3H38C48N8O22
_chemical_formula_sum              "Cd3 H38 C48 N8 O22"
_cell_length_a       8.92735
_cell_length_b       10.201
_cell_length_c       15.4735
_cell_angle_alpha    107.357
_cell_angle_beta     97.1772
_cell_angle_gamma    105.99

_space_group_name_H-M_alt    "P 1"
_space_group_IT_number       1

loop_
  _space_group_symop_operation_xyz
  'x, y, z'

loop_
  _atom_site_type_symbol
  _atom_site_label
  _atom_site_symmetry_multiplicity
  _atom_site_fract_x
  _atom_site_fract_y
  _atom_site_fract_z
  _atom_site_occupancy
  Cd  Cd1       1.0  0.50000  1.00000  0.50000  1.0000
  Cd  Cd2       1.0  0.88329  0.56165  0.59042  1.0000
  Cd  Cd3       1.0  0.11672  0.43835  0.40958  1.0000
  H   H1        1.0  0.98270  0.60446  0.95172  1.0000
  H   H2        1.0  0.01729  0.39553  0.04828  1.0000
  H   H3        1.0  0.66102  0.18595  0.74905  1.0000
  H   H4        1.0  0.33899  0.81404  0.25095  1.0000
  H   H5        1.0  0.06800  0.15055  0.63858  1.0000
  H   H6        1.0  0.93200  0.84945  0.36142  1.0000
  H   H7        1.0  0.17971  0.81830  0.62289  1.0000
  H   H8        1.0  0.82029  0.18171  0.37712  1.0000
  H   H9        1.0  0.09651  0.84544  0.70534  1.0000
  H   H10       1.0  0.90349  0.15455  0.29466  1.0000
  H   H11       1.0  0.19442  0.82328  0.97362  1.0000
  H   H12       1.0  0.80557  0.17672  0.02638  1.0000
  H   H13       1.0  0.31630  0.08864  0.02764  1.0000
  H   H14       1.0  0.68369  0.91136  0.97236  1.0000
  H   H15       1.0  0.97407  0.10678  0.81146  1.0000
  H   H16       1.0  0.02592  0.89322  0.18854  1.0000
  H   H17       1.0  0.84841  0.83844  0.75826  1.0000
  H   H18       1.0  0.15158  0.16156  0.24174  1.0000
  H   H19       1.0  0.38178  0.45286  0.02877  1.0000
  H   H20       1.0  0.61822  0.54714  0.97123  1.0000
  H   H21       1.0  0.45433  0.30067  0.00092  1.0000
  H   H22       1.0  0.54567  0.69933  0.99908  1.0000
  H   H23       1.0  0.33499  0.32238  0.08568  1.0000
  H   H24       1.0  0.66501  0.67762  0.91432  1.0000
  H   H25       1.0  0.46176  0.49298  0.41349  1.0000
  H   H26       1.0  0.53825  0.50702  0.58651  1.0000
  H   H27       1.0  0.59923  0.55083  0.29552  1.0000
  H   H28       1.0  0.40076  0.44917  0.70448  1.0000
  H   H29       1.0  0.57358  0.10249  0.17725  1.0000
  H   H30       1.0  0.42643  0.89751  0.82275  1.0000
  H   H31       1.0  0.43687  0.04594  0.29816  1.0000
  H   H32       1.0  0.56314  0.95407  0.70184  1.0000
  H   H33       1.0  0.77588  0.48899  0.09705  1.0000
  H   H34       1.0  0.22412  0.51101  0.90295  1.0000
  H   H35       1.0  0.81963  0.56815  0.22168  1.0000
  H   H36       1.0  0.18037  0.43186  0.77833  1.0000
  H   H37       1.0  0.62865  0.54264  0.15424  1.0000
  H   H38       1.0  0.37136  0.45736  0.84576  1.0000
  C   C1        1.0  0.70026  0.31247  0.65122  1.0000
  C   C2        1.0  0.29974  0.68753  0.34878  1.0000
  C   C3        1.0  0.79307  0.43152  0.73980  1.0000
  C   C4        1.0  0.20693  0.56848  0.26020  1.0000
  C   C5        1.0  0.83252  0.43090  0.82972  1.0000
  C   C6        1.0  0.16748  0.56910  0.17028  1.0000
  C   C7        1.0  0.79065  0.31897  0.87227  1.0000
  C   C8        1.0  0.20936  0.68103  0.12773  1.0000
  C   C9        1.0  0.93955  0.65433  0.82778  1.0000
  C   C10       1.0  0.06045  0.34567  0.17223  1.0000
  C   C11       1.0  0.01559  0.81143  0.86058  1.0000
  C   C12       1.0  0.98440  0.18857  0.13942  1.0000
  C   C13       1.0  0.14580  0.88433  0.93737  1.0000
  C   C14       1.0  0.85419  0.11567  0.06263  1.0000
  C   C15       1.0  0.21536  0.03500  0.96787  1.0000
  C   C16       1.0  0.78463  0.96500  0.03213  1.0000
  C   C17       1.0  0.15385  0.11493  0.92188  1.0000
  C   C18       1.0  0.84615  0.88507  0.07812  1.0000
  C   C19       1.0  0.02224  0.04327  0.84561  1.0000
  C   C20       1.0  0.97776  0.95673  0.15439  1.0000
  C   C21       1.0  0.95375  0.89324  0.81557  1.0000
  C   C22       1.0  0.04625  0.10676  0.18443  1.0000
  C   C23       1.0  0.35436  0.33764  0.01998  1.0000
  C   C24       1.0  0.64564  0.66236  0.98002  1.0000
  C   C25       1.0  0.21288  0.04784  0.58558  1.0000
  C   C26       1.0  0.78712  0.95216  0.41442  1.0000
  C   C27       1.0  0.24404  0.14365  0.53131  1.0000
  C   C28       1.0  0.75596  0.85635  0.46869  1.0000
  C   C29       1.0  0.18281  0.25381  0.52514  1.0000
  C   C30       1.0  0.81720  0.74620  0.47486  1.0000
  C   C31       1.0  0.07195  0.31499  0.57356  1.0000
  C   C32       1.0  0.92806  0.68501  0.42644  1.0000
  C   C33       1.0  0.34672  0.23304  0.43200  1.0000
  C   C34       1.0  0.65329  0.76696  0.56800  1.0000
  C   C35       1.0  0.43734  0.26462  0.36410  1.0000
  C   C36       1.0  0.56267  0.73538  0.63590  1.0000
  C   C37       1.0  0.48441  0.40620  0.36156  1.0000
  C   C38       1.0  0.51560  0.59380  0.63845  1.0000
  C   C39       1.0  0.56229  0.43928  0.29439  1.0000
  C   C40       1.0  0.43771  0.56072  0.70561  1.0000
  C   C41       1.0  0.59399  0.32931  0.22753  1.0000
  C   C42       1.0  0.40601  0.67069  0.77248  1.0000
  C   C43       1.0  0.54724  0.18693  0.22911  1.0000
  C   C44       1.0  0.45276  0.81307  0.77089  1.0000
  C   C45       1.0  0.47177  0.15602  0.29719  1.0000
  C   C46       1.0  0.52823  0.84398  0.70282  1.0000
  C   C47       1.0  0.72642  0.49690  0.15884  1.0000
  C   C48       1.0  0.27359  0.50311  0.84116  1.0000
  N   N1        1.0  0.86099  0.56943  0.73998  1.0000
  N   N2        1.0  0.13900  0.43057  0.26002  1.0000
  N   N3        1.0  0.92556  0.57159  0.88281  1.0000
  N   N4        1.0  0.07444  0.42841  0.11719  1.0000
  N   N5        1.0  0.34677  0.13198  0.47239  1.0000
  N   N6        1.0  0.65323  0.86802  0.52761  1.0000
  N   N7        1.0  0.24747  0.30750  0.46240  1.0000
  N   N8        1.0  0.75254  0.69250  0.53760  1.0000
  O   O1        1.0  0.62666  0.18751  0.65575  1.0000
  O   O2        1.0  0.37335  0.81249  0.34425  1.0000
  O   O3        1.0  0.69527  0.33824  0.57648  1.0000
  O   O4        1.0  0.30473  0.66176  0.42352  1.0000
  O   O5        1.0  0.69212  0.18918  0.81824  1.0000
  O   O6        1.0  0.30789  0.81081  0.18175  1.0000
  O   O7        1.0  0.84360  0.34761  0.95626  1.0000
  O   O8        1.0  0.15640  0.65238  0.04374  1.0000
  O   O9        1.0  0.21271  0.26273  0.94719  1.0000
  O   O10       1.0  0.78729  0.73727  0.05281  1.0000
  O   O11       1.0  0.27848  0.95160  0.57847  1.0000
  O   O12       1.0  0.72152  0.04840  0.42152  1.0000
  O   O13       1.0  0.11395  0.06305  0.64094  1.0000
  O   O14       1.0  0.88605  0.93696  0.35905  1.0000
  O   O15       1.0  0.01581  0.26501  0.63342  1.0000
  O   O16       1.0  0.98420  0.73499  0.36658  1.0000
  O   O17       1.0  0.04156  0.41860  0.55264  1.0000
  O   O18       1.0  0.95844  0.58141  0.44736  1.0000
  O   O19       1.0  0.66927  0.35095  0.15892  1.0000
  O   O20       1.0  0.33074  0.64905  0.84108  1.0000
  O   O21       1.0  0.11731  0.76731  0.65920  1.0000
  O   O22       1.0  0.88270  0.23269  0.34080  1.0000
