data_image0
_chemical_formula_structural       Sm4H48C44O36
_chemical_formula_sum              "Sm4 H48 C44 O36"
_cell_length_a       8.81294
_cell_length_b       8.81294
_cell_length_c       19.6422
_cell_angle_alpha    83.0058
_cell_angle_beta     83.0057
_cell_angle_gamma    61.9027

_space_group_name_H-M_alt    "P 1"
_space_group_IT_number       1

loop_
  _space_group_symop_operation_xyz
  'x, y, z'

loop_
  _atom_site_type_symbol
  _atom_site_label
  _atom_site_symmetry_multiplicity
  _atom_site_fract_x
  _atom_site_fract_y
  _atom_site_fract_z
  _atom_site_occupancy
  Sm  Sm1       1.0  0.62033  0.26519  0.45945  1.0000
  Sm  Sm2       1.0  0.73481  0.37967  0.04055  1.0000
  Sm  Sm3       1.0  0.37967  0.73481  0.54055  1.0000
  Sm  Sm4       1.0  0.26519  0.62033  0.95945  1.0000
  H   H1        1.0  0.89174  0.26106  0.22718  1.0000
  H   H2        1.0  0.73894  0.10826  0.27282  1.0000
  H   H3        1.0  0.10826  0.73894  0.77282  1.0000
  H   H4        1.0  0.26106  0.89174  0.72718  1.0000
  H   H5        1.0  0.92786  0.13714  0.35566  1.0000
  H   H6        1.0  0.86286  0.07214  0.14434  1.0000
  H   H7        1.0  0.07214  0.86286  0.64435  1.0000
  H   H8        1.0  0.13714  0.92786  0.85566  1.0000
  H   H9        1.0  0.00923  0.99380  0.41807  1.0000
  H   H10       1.0  0.00620  0.99077  0.08193  1.0000
  H   H11       1.0  0.99077  0.00620  0.58193  1.0000
  H   H12       1.0  0.99380  0.00923  0.91807  1.0000
  H   H13       1.0  0.16740  0.19291  0.35595  1.0000
  H   H14       1.0  0.80709  0.83261  0.14405  1.0000
  H   H15       1.0  0.83260  0.80709  0.64405  1.0000
  H   H16       1.0  0.19291  0.16739  0.85595  1.0000
  H   H17       1.0  0.53013  0.28056  0.20962  1.0000
  H   H18       1.0  0.71944  0.46987  0.29038  1.0000
  H   H19       1.0  0.46987  0.71944  0.79038  1.0000
  H   H20       1.0  0.28056  0.53013  0.70962  1.0000
  H   H21       1.0  0.68484  0.91313  0.53594  1.0000
  H   H22       1.0  0.08688  0.31515  0.96406  1.0000
  H   H23       1.0  0.31515  0.08688  0.46407  1.0000
  H   H24       1.0  0.91312  0.68485  0.03593  1.0000
  H   H25       1.0  0.65735  0.89225  0.46351  1.0000
  H   H26       1.0  0.10775  0.34266  0.03649  1.0000
  H   H27       1.0  0.34266  0.10775  0.53649  1.0000
  H   H28       1.0  0.89225  0.65735  0.96351  1.0000
  H   H29       1.0  0.09611  0.26118  0.13951  1.0000
  H   H30       1.0  0.73882  0.90390  0.36049  1.0000
  H   H31       1.0  0.90390  0.73882  0.86049  1.0000
  H   H32       1.0  0.26118  0.09611  0.63951  1.0000
  H   H33       1.0  0.76757  0.45486  0.66188  1.0000
  H   H34       1.0  0.54514  0.23243  0.83812  1.0000
  H   H35       1.0  0.23243  0.54514  0.33812  1.0000
  H   H36       1.0  0.45486  0.76757  0.16188  1.0000
  H   H37       1.0  0.94189  0.24543  0.65256  1.0000
  H   H38       1.0  0.75457  0.05810  0.84744  1.0000
  H   H39       1.0  0.05811  0.75457  0.34744  1.0000
  H   H40       1.0  0.24543  0.94189  0.15256  1.0000
  H   H41       1.0  0.57934  0.30722  0.71073  1.0000
  H   H42       1.0  0.69277  0.42066  0.78927  1.0000
  H   H43       1.0  0.42066  0.69277  0.28927  1.0000
  H   H44       1.0  0.30723  0.57934  0.21073  1.0000
  H   H45       1.0  0.76943  0.10893  0.71076  1.0000
  H   H46       1.0  0.89107  0.23057  0.78924  1.0000
  H   H47       1.0  0.23057  0.89107  0.28924  1.0000
  H   H48       1.0  0.10893  0.76943  0.21076  1.0000
  C   C1        1.0  0.45973  0.22772  0.34583  1.0000
  C   C2        1.0  0.77228  0.54027  0.15417  1.0000
  C   C3        1.0  0.54027  0.77228  0.65417  1.0000
  C   C4        1.0  0.22772  0.45973  0.84583  1.0000
  C   C5        1.0  0.38052  0.31712  0.09610  1.0000
  C   C6        1.0  0.68288  0.61948  0.40390  1.0000
  C   C7        1.0  0.61948  0.68288  0.90390  1.0000
  C   C8        1.0  0.31712  0.38052  0.59610  1.0000
  C   C9        1.0  0.21251  0.21206  0.30303  1.0000
  C   C10       1.0  0.78794  0.78750  0.19697  1.0000
  C   C11       1.0  0.78750  0.78794  0.69697  1.0000
  C   C12       1.0  0.21207  0.21250  0.80303  1.0000
  C   C13       1.0  0.41645  0.26143  0.22090  1.0000
  C   C14       1.0  0.73857  0.58355  0.27910  1.0000
  C   C15       1.0  0.58355  0.73857  0.77910  1.0000
  C   C16       1.0  0.26143  0.41645  0.72090  1.0000
  C   C17       1.0  0.32084  0.27353  0.16702  1.0000
  C   C18       1.0  0.72647  0.67917  0.33298  1.0000
  C   C19       1.0  0.67917  0.72647  0.83298  1.0000
  C   C20       1.0  0.27353  0.32083  0.66702  1.0000
  C   C21       1.0  0.17097  0.25495  0.18090  1.0000
  C   C22       1.0  0.74505  0.82903  0.31911  1.0000
  C   C23       1.0  0.82903  0.74505  0.81910  1.0000
  C   C24       1.0  0.25495  0.17097  0.68089  1.0000
  C   C25       1.0  0.11749  0.22373  0.24894  1.0000
  C   C26       1.0  0.77627  0.88251  0.25106  1.0000
  C   C27       1.0  0.88251  0.77627  0.75106  1.0000
  C   C28       1.0  0.22373  0.11749  0.74894  1.0000
  C   C29       1.0  0.36227  0.23101  0.28867  1.0000
  C   C30       1.0  0.76899  0.63773  0.21133  1.0000
  C   C31       1.0  0.63773  0.76899  0.71133  1.0000
  C   C32       1.0  0.23101  0.36227  0.78867  1.0000
  C   C33       1.0  0.73912  0.31464  0.58725  1.0000
  C   C34       1.0  0.68535  0.26088  0.91275  1.0000
  C   C35       1.0  0.26088  0.68535  0.41275  1.0000
  C   C36       1.0  0.31465  0.73912  0.08725  1.0000
  C   C37       1.0  0.80082  0.32111  0.65462  1.0000
  C   C38       1.0  0.67889  0.19917  0.84538  1.0000
  C   C39       1.0  0.19918  0.67888  0.34538  1.0000
  C   C40       1.0  0.32112  0.80082  0.15462  1.0000
  C   C41       1.0  0.71925  0.24780  0.71495  1.0000
  C   C42       1.0  0.75220  0.28075  0.78505  1.0000
  C   C43       1.0  0.28075  0.75220  0.28505  1.0000
  C   C44       1.0  0.24781  0.71925  0.21495  1.0000
  O   O1        1.0  0.59825  0.24458  0.33271  1.0000
  O   O2        1.0  0.75542  0.40175  0.16729  1.0000
  O   O3        1.0  0.40175  0.75542  0.66729  1.0000
  O   O4        1.0  0.24457  0.59825  0.83271  1.0000
  O   O5        1.0  0.61367  0.44684  0.56049  1.0000
  O   O6        1.0  0.55316  0.38633  0.93951  1.0000
  O   O7        1.0  0.38633  0.55316  0.43951  1.0000
  O   O8        1.0  0.44684  0.61367  0.06049  1.0000
  O   O9        1.0  0.54054  0.26945  0.08481  1.0000
  O   O10       1.0  0.73055  0.45946  0.41519  1.0000
  O   O11       1.0  0.45946  0.73055  0.91519  1.0000
  O   O12       1.0  0.26945  0.54054  0.58481  1.0000
  O   O13       1.0  0.80732  0.17327  0.55742  1.0000
  O   O14       1.0  0.82673  0.19268  0.94258  1.0000
  O   O15       1.0  0.19268  0.82674  0.44258  1.0000
  O   O16       1.0  0.17326  0.80732  0.05742  1.0000
  O   O17       1.0  0.26631  0.40575  0.05300  1.0000
  O   O18       1.0  0.59425  0.73369  0.44700  1.0000
  O   O19       1.0  0.73369  0.59425  0.94700  1.0000
  O   O20       1.0  0.40575  0.26631  0.55300  1.0000
  O   O21       1.0  0.97373  0.20180  0.26438  1.0000
  O   O22       1.0  0.79820  0.02628  0.23562  1.0000
  O   O23       1.0  0.02628  0.79820  0.73562  1.0000
  O   O24       1.0  0.20180  0.97372  0.76438  1.0000
  O   O25       1.0  0.90124  0.09375  0.40166  1.0000
  O   O26       1.0  0.90625  0.09876  0.09834  1.0000
  O   O27       1.0  0.09876  0.90625  0.59834  1.0000
  O   O28       1.0  0.09375  0.90124  0.90166  1.0000
  O   O29       1.0  0.40479  0.21221  0.40805  1.0000
  O   O30       1.0  0.78779  0.59521  0.09195  1.0000
  O   O31       1.0  0.59520  0.78780  0.59195  1.0000
  O   O32       1.0  0.21220  0.40479  0.90805  1.0000
  O   O33       1.0  0.69889  0.95609  0.48805  1.0000
  O   O34       1.0  0.04391  0.30111  0.01195  1.0000
  O   O35       1.0  0.30111  0.04391  0.51195  1.0000
  O   O36       1.0  0.95609  0.69889  0.98805  1.0000
