data_image0
_chemical_formula_structural       Gd4H48C44O36
_chemical_formula_sum              "Gd4 H48 C44 O36"
_cell_length_a       8.77379
_cell_length_b       8.77379
_cell_length_c       19.5497
_cell_angle_alpha    82.9299
_cell_angle_beta     82.9299
_cell_angle_gamma    61.6696

_space_group_name_H-M_alt    "P 1"
_space_group_IT_number       1

loop_
  _space_group_symop_operation_xyz
  'x, y, z'

loop_
  _atom_site_type_symbol
  _atom_site_label
  _atom_site_symmetry_multiplicity
  _atom_site_fract_x
  _atom_site_fract_y
  _atom_site_fract_z
  _atom_site_occupancy
  Gd  Gd1       1.0  0.61827  0.26710  0.45917  1.0000
  Gd  Gd2       1.0  0.73290  0.38173  0.04083  1.0000
  Gd  Gd3       1.0  0.38173  0.73290  0.54083  1.0000
  Gd  Gd4       1.0  0.26710  0.61827  0.95917  1.0000
  H   H1        1.0  0.92408  0.14087  0.35610  1.0000
  H   H2        1.0  0.85913  0.07592  0.14390  1.0000
  H   H3        1.0  0.07592  0.85913  0.64391  1.0000
  H   H4        1.0  0.14087  0.92408  0.85609  1.0000
  H   H5        1.0  0.00654  0.99793  0.41936  1.0000
  H   H6        1.0  0.00207  0.99346  0.08064  1.0000
  H   H7        1.0  0.99347  0.00207  0.58064  1.0000
  H   H8        1.0  0.99793  0.00653  0.91936  1.0000
  H   H9        1.0  0.88722  0.26485  0.22666  1.0000
  H   H10       1.0  0.73515  0.11278  0.27334  1.0000
  H   H11       1.0  0.11278  0.73515  0.77334  1.0000
  H   H12       1.0  0.26485  0.88722  0.72666  1.0000
  H   H13       1.0  0.68711  0.91484  0.53506  1.0000
  H   H14       1.0  0.08516  0.31289  0.96494  1.0000
  H   H15       1.0  0.31289  0.08516  0.46494  1.0000
  H   H16       1.0  0.91484  0.68710  0.03506  1.0000
  H   H17       1.0  0.65192  0.89620  0.46327  1.0000
  H   H18       1.0  0.10381  0.34808  0.03673  1.0000
  H   H19       1.0  0.34808  0.10381  0.53673  1.0000
  H   H20       1.0  0.89619  0.65192  0.96327  1.0000
  H   H21       1.0  0.16016  0.20133  0.35688  1.0000
  H   H22       1.0  0.79867  0.83984  0.14312  1.0000
  H   H23       1.0  0.83984  0.79867  0.64312  1.0000
  H   H24       1.0  0.20133  0.16016  0.85688  1.0000
  H   H25       1.0  0.52649  0.28777  0.21031  1.0000
  H   H26       1.0  0.71223  0.47352  0.28969  1.0000
  H   H27       1.0  0.47352  0.71223  0.78969  1.0000
  H   H28       1.0  0.28776  0.52648  0.71031  1.0000
  H   H29       1.0  0.09427  0.26352  0.13904  1.0000
  H   H30       1.0  0.73648  0.90573  0.36096  1.0000
  H   H31       1.0  0.90573  0.73648  0.86096  1.0000
  H   H32       1.0  0.26352  0.09427  0.63904  1.0000
  H   H33       1.0  0.77533  0.44782  0.66116  1.0000
  H   H34       1.0  0.55218  0.22467  0.83884  1.0000
  H   H35       1.0  0.22467  0.55218  0.33884  1.0000
  H   H36       1.0  0.44782  0.77533  0.16116  1.0000
  H   H37       1.0  0.94821  0.23577  0.65057  1.0000
  H   H38       1.0  0.76423  0.05179  0.84943  1.0000
  H   H39       1.0  0.05179  0.76423  0.34943  1.0000
  H   H40       1.0  0.23577  0.94821  0.15057  1.0000
  H   H41       1.0  0.58426  0.30109  0.71108  1.0000
  H   H42       1.0  0.69890  0.41574  0.78892  1.0000
  H   H43       1.0  0.41574  0.69891  0.28892  1.0000
  H   H44       1.0  0.30109  0.58426  0.21108  1.0000
  H   H45       1.0  0.77573  0.10125  0.71104  1.0000
  H   H46       1.0  0.89875  0.22427  0.78896  1.0000
  H   H47       1.0  0.22427  0.89875  0.28896  1.0000
  H   H48       1.0  0.10125  0.77573  0.21104  1.0000
  C   C1        1.0  0.45494  0.23436  0.34697  1.0000
  C   C2        1.0  0.76564  0.54506  0.15304  1.0000
  C   C3        1.0  0.54506  0.76564  0.65304  1.0000
  C   C4        1.0  0.23436  0.45494  0.84696  1.0000
  C   C5        1.0  0.20654  0.21960  0.30375  1.0000
  C   C6        1.0  0.78040  0.79347  0.19625  1.0000
  C   C7        1.0  0.79347  0.78040  0.69625  1.0000
  C   C8        1.0  0.21960  0.20653  0.80375  1.0000
  C   C9        1.0  0.38016  0.32013  0.09599  1.0000
  C   C10       1.0  0.67986  0.61984  0.40401  1.0000
  C   C11       1.0  0.61984  0.67986  0.90401  1.0000
  C   C12       1.0  0.32014  0.38016  0.59599  1.0000
  C   C13       1.0  0.41265  0.26800  0.22148  1.0000
  C   C14       1.0  0.73200  0.58735  0.27852  1.0000
  C   C15       1.0  0.58735  0.73200  0.77852  1.0000
  C   C16       1.0  0.26799  0.41265  0.72148  1.0000
  C   C17       1.0  0.16795  0.25921  0.18079  1.0000
  C   C18       1.0  0.74078  0.83205  0.31921  1.0000
  C   C19       1.0  0.83205  0.74078  0.81921  1.0000
  C   C20       1.0  0.25921  0.16795  0.68079  1.0000
  C   C21       1.0  0.31841  0.27801  0.16712  1.0000
  C   C22       1.0  0.72199  0.68160  0.33288  1.0000
  C   C23       1.0  0.68160  0.72199  0.83288  1.0000
  C   C24       1.0  0.27801  0.31841  0.66712  1.0000
  C   C25       1.0  0.35700  0.23858  0.28952  1.0000
  C   C26       1.0  0.76142  0.64301  0.21048  1.0000
  C   C27       1.0  0.64301  0.76142  0.71048  1.0000
  C   C28       1.0  0.23858  0.35700  0.78952  1.0000
  C   C29       1.0  0.74088  0.31112  0.58625  1.0000
  C   C30       1.0  0.68888  0.25912  0.91375  1.0000
  C   C31       1.0  0.25912  0.68888  0.41375  1.0000
  C   C32       1.0  0.31112  0.74088  0.08625  1.0000
  C   C33       1.0  0.11280  0.22951  0.24914  1.0000
  C   C34       1.0  0.77049  0.88720  0.25086  1.0000
  C   C35       1.0  0.88720  0.77049  0.75086  1.0000
  C   C36       1.0  0.22951  0.11280  0.74914  1.0000
  C   C37       1.0  0.80631  0.31412  0.65366  1.0000
  C   C38       1.0  0.68588  0.19369  0.84634  1.0000
  C   C39       1.0  0.19369  0.68588  0.34634  1.0000
  C   C40       1.0  0.31412  0.80631  0.15366  1.0000
  C   C41       1.0  0.72514  0.24107  0.71490  1.0000
  C   C42       1.0  0.75893  0.27486  0.78509  1.0000
  C   C43       1.0  0.27486  0.75893  0.28510  1.0000
  C   C44       1.0  0.24107  0.72514  0.21491  1.0000
  O   O1        1.0  0.59461  0.25048  0.33382  1.0000
  O   O2        1.0  0.74952  0.40539  0.16618  1.0000
  O   O3        1.0  0.40539  0.74952  0.66618  1.0000
  O   O4        1.0  0.25048  0.59461  0.83382  1.0000
  O   O5        1.0  0.54136  0.27146  0.08512  1.0000
  O   O6        1.0  0.72854  0.45865  0.41488  1.0000
  O   O7        1.0  0.45865  0.72854  0.91488  1.0000
  O   O8        1.0  0.27146  0.54135  0.58512  1.0000
  O   O9        1.0  0.80712  0.16999  0.55560  1.0000
  O   O10       1.0  0.83001  0.19288  0.94440  1.0000
  O   O11       1.0  0.19288  0.83001  0.44440  1.0000
  O   O12       1.0  0.16999  0.80712  0.05560  1.0000
  O   O13       1.0  0.61474  0.44594  0.56002  1.0000
  O   O14       1.0  0.55406  0.38526  0.93998  1.0000
  O   O15       1.0  0.38526  0.55406  0.43998  1.0000
  O   O16       1.0  0.44594  0.61474  0.06002  1.0000
  O   O17       1.0  0.26601  0.40924  0.05234  1.0000
  O   O18       1.0  0.59075  0.73400  0.44766  1.0000
  O   O19       1.0  0.73399  0.59076  0.94766  1.0000
  O   O20       1.0  0.40925  0.26601  0.55234  1.0000
  O   O21       1.0  0.89721  0.09618  0.40209  1.0000
  O   O22       1.0  0.90382  0.10279  0.09791  1.0000
  O   O23       1.0  0.10279  0.90382  0.59791  1.0000
  O   O24       1.0  0.09618  0.89721  0.90209  1.0000
  O   O25       1.0  0.96901  0.20642  0.26436  1.0000
  O   O26       1.0  0.79358  0.03099  0.23564  1.0000
  O   O27       1.0  0.03099  0.79358  0.73564  1.0000
  O   O28       1.0  0.20642  0.96901  0.76436  1.0000
  O   O29       1.0  0.69631  0.95958  0.48680  1.0000
  O   O30       1.0  0.04042  0.30369  0.01320  1.0000
  O   O31       1.0  0.30369  0.04042  0.51320  1.0000
  O   O32       1.0  0.95958  0.69631  0.98681  1.0000
  O   O33       1.0  0.40039  0.21797  0.40947  1.0000
  O   O34       1.0  0.78203  0.59960  0.09053  1.0000
  O   O35       1.0  0.59960  0.78203  0.59053  1.0000
  O   O36       1.0  0.21797  0.40039  0.90947  1.0000
