data_image0
_chemical_formula_structural       Cu4H52C28S4N8
_chemical_formula_sum              "Cu4 H52 C28 S4 N8"
_cell_length_a       6.41601
_cell_length_b       11.3389
_cell_length_c       12.495
_cell_angle_alpha    107.481
_cell_angle_beta     90
_cell_angle_gamma    90

_space_group_name_H-M_alt    "P 1"
_space_group_IT_number       1

loop_
  _space_group_symop_operation_xyz
  'x, y, z'

loop_
  _atom_site_type_symbol
  _atom_site_label
  _atom_site_symmetry_multiplicity
  _atom_site_fract_x
  _atom_site_fract_y
  _atom_site_fract_z
  _atom_site_occupancy
  Cu  Cu1       1.0  0.31822  0.53562  0.46849  1.0000
  Cu  Cu2       1.0  0.81823  0.96438  0.53152  1.0000
  Cu  Cu3       1.0  0.68177  0.46438  0.53152  1.0000
  Cu  Cu4       1.0  0.18178  0.03561  0.46848  1.0000
  H   H1        1.0  0.04590  0.36746  0.39405  1.0000
  H   H2        1.0  0.54592  0.13253  0.60596  1.0000
  H   H3        1.0  0.95409  0.63254  0.60595  1.0000
  H   H4        1.0  0.45409  0.86746  0.39404  1.0000
  H   H5        1.0  0.01618  0.47358  0.33401  1.0000
  H   H6        1.0  0.51619  0.02642  0.66600  1.0000
  H   H7        1.0  0.98381  0.52642  0.66600  1.0000
  H   H8        1.0  0.48382  0.97358  0.33400  1.0000
  H   H9        1.0  0.31172  0.38856  0.20899  1.0000
  H   H10       1.0  0.81173  0.11144  0.79102  1.0000
  H   H11       1.0  0.68827  0.61145  0.79101  1.0000
  H   H12       1.0  0.18829  0.88856  0.20898  1.0000
  H   H13       1.0  0.94449  0.34942  0.14608  1.0000
  H   H14       1.0  0.44450  0.15058  0.85392  1.0000
  H   H15       1.0  0.05550  0.65058  0.85392  1.0000
  H   H16       1.0  0.55551  0.84942  0.14608  1.0000
  H   H17       1.0  0.92832  0.22654  0.20591  1.0000
  H   H18       1.0  0.42833  0.27346  0.79409  1.0000
  H   H19       1.0  0.07167  0.77346  0.79409  1.0000
  H   H20       1.0  0.57167  0.72654  0.20591  1.0000
  H   H21       1.0  0.99367  0.14265  0.00054  1.0000
  H   H22       1.0  0.49367  0.35735  0.99946  1.0000
  H   H23       1.0  0.00633  0.85735  0.99946  1.0000
  H   H24       1.0  0.50633  0.64265  0.00054  1.0000
  H   H25       1.0  0.21653  0.23682  0.01254  1.0000
  H   H26       1.0  0.71653  0.26318  0.98746  1.0000
  H   H27       1.0  0.78347  0.76318  0.98746  1.0000
  H   H28       1.0  0.28348  0.73682  0.01254  1.0000
  H   H29       1.0  0.31937  0.02243  0.00495  1.0000
  H   H30       1.0  0.81937  0.47757  0.99505  1.0000
  H   H31       1.0  0.68063  0.97757  0.99505  1.0000
  H   H32       1.0  0.18062  0.52243  0.00495  1.0000
  H   H33       1.0  0.15674  0.02998  0.12110  1.0000
  H   H34       1.0  0.65675  0.47002  0.87890  1.0000
  H   H35       1.0  0.84326  0.97002  0.87890  1.0000
  H   H36       1.0  0.34324  0.52998  0.12110  1.0000
  H   H37       1.0  0.52381  0.07099  0.18589  1.0000
  H   H38       1.0  0.02381  0.42901  0.81411  1.0000
  H   H39       1.0  0.47619  0.92901  0.81411  1.0000
  H   H40       1.0  0.97618  0.57099  0.18588  1.0000
  H   H41       1.0  0.54142  0.19233  0.12537  1.0000
  H   H42       1.0  0.04143  0.30768  0.87463  1.0000
  H   H43       1.0  0.45857  0.80768  0.87463  1.0000
  H   H44       1.0  0.95857  0.69233  0.12537  1.0000
  H   H45       1.0  0.24742  0.18208  0.31637  1.0000
  H   H46       1.0  0.74742  0.31792  0.68363  1.0000
  H   H47       1.0  0.75259  0.81792  0.68363  1.0000
  H   H48       1.0  0.25257  0.68208  0.31637  1.0000
  H   H49       1.0  0.47056  0.27658  0.33083  1.0000
  H   H50       1.0  0.97056  0.22342  0.66917  1.0000
  H   H51       1.0  0.52945  0.72342  0.66917  1.0000
  H   H52       1.0  0.02944  0.77658  0.33082  1.0000
  C   C1        1.0  0.68740  0.69169  0.42587  1.0000
  C   C2        1.0  0.18741  0.80831  0.57413  1.0000
  C   C3        1.0  0.31259  0.30831  0.57413  1.0000
  C   C4        1.0  0.81260  0.19169  0.42587  1.0000
  C   C5        1.0  0.21126  0.33323  0.24735  1.0000
  C   C6        1.0  0.71127  0.16677  0.75265  1.0000
  C   C7        1.0  0.78874  0.66678  0.75265  1.0000
  C   C8        1.0  0.28874  0.83323  0.24735  1.0000
  C   C9        1.0  0.03568  0.27577  0.16499  1.0000
  C   C10       1.0  0.53568  0.22423  0.83501  1.0000
  C   C11       1.0  0.96432  0.72423  0.83501  1.0000
  C   C12       1.0  0.46432  0.77577  0.16499  1.0000
  C   C13       1.0  0.12199  0.18540  0.05727  1.0000
  C   C14       1.0  0.62199  0.31460  0.94273  1.0000
  C   C15       1.0  0.87801  0.81460  0.94273  1.0000
  C   C16       1.0  0.37801  0.68540  0.05727  1.0000
  C   C17       1.0  0.25643  0.08583  0.08300  1.0000
  C   C18       1.0  0.75643  0.41418  0.91700  1.0000
  C   C19       1.0  0.74357  0.91417  0.91700  1.0000
  C   C20       1.0  0.24356  0.58583  0.08300  1.0000
  C   C21       1.0  0.43190  0.14324  0.16517  1.0000
  C   C22       1.0  0.93190  0.35676  0.83482  1.0000
  C   C23       1.0  0.56810  0.85676  0.83482  1.0000
  C   C24       1.0  0.06809  0.64324  0.16517  1.0000
  C   C25       1.0  0.34469  0.23343  0.27265  1.0000
  C   C26       1.0  0.84469  0.26657  0.72735  1.0000
  C   C27       1.0  0.65531  0.76657  0.72735  1.0000
  C   C28       1.0  0.15531  0.73343  0.27265  1.0000
  S   S1        1.0  0.63386  0.54370  0.37500  1.0000
  S   S2        1.0  0.13387  0.95629  0.62501  1.0000
  S   S3        1.0  0.36613  0.45629  0.62501  1.0000
  S   S4        1.0  0.86614  0.04370  0.37500  1.0000
  N   N1        1.0  0.72198  0.79897  0.46114  1.0000
  N   N2        1.0  0.22199  0.70103  0.53887  1.0000
  N   N3        1.0  0.27801  0.20103  0.53887  1.0000
  N   N4        1.0  0.77803  0.29897  0.46114  1.0000
  N   N5        1.0  0.12857  0.41875  0.35326  1.0000
  N   N6        1.0  0.62859  0.08125  0.64674  1.0000
  N   N7        1.0  0.87141  0.58125  0.64674  1.0000
  N   N8        1.0  0.37142  0.91874  0.35326  1.0000
