data_image0
_chemical_formula_structural       Cu4H28C28N12Cl4O4
_chemical_formula_sum              "Cu4 H28 C28 N12 Cl4 O4"
_cell_length_a       7.02378
_cell_length_b       11.2335
_cell_length_c       11.423
_cell_angle_alpha    69.9611
_cell_angle_beta     87.0746
_cell_angle_gamma    86.1842

_space_group_name_H-M_alt    "P 1"
_space_group_IT_number       1

loop_
  _space_group_symop_operation_xyz
  'x, y, z'

loop_
  _atom_site_type_symbol
  _atom_site_label
  _atom_site_symmetry_multiplicity
  _atom_site_fract_x
  _atom_site_fract_y
  _atom_site_fract_z
  _atom_site_occupancy
  Cu  Cu1       1.0  0.82893  0.91711  0.37304  1.0000
  Cu  Cu2       1.0  0.17108  0.08290  0.62695  1.0000
  Cu  Cu3       1.0  0.36126  0.83311  0.53689  1.0000
  Cu  Cu4       1.0  0.63874  0.16689  0.46312  1.0000
  H   H1        1.0  0.99959  0.70966  0.27084  1.0000
  H   H2        1.0  0.00044  0.29034  0.72917  1.0000
  H   H3        1.0  0.98184  0.67313  0.06493  1.0000
  H   H4        1.0  0.01818  0.32687  0.93507  1.0000
  H   H5        1.0  0.81567  0.84026  0.88982  1.0000
  H   H6        1.0  0.18434  0.15973  0.11018  1.0000
  H   H7        1.0  0.68953  0.04237  0.92030  1.0000
  H   H8        1.0  0.31047  0.95762  0.07971  1.0000
  H   H9        1.0  0.37347  0.37057  0.52331  1.0000
  H   H10       1.0  0.62652  0.62944  0.47668  1.0000
  H   H11       1.0  0.25697  0.59485  0.40442  1.0000
  H   H12       1.0  0.74304  0.40516  0.59558  1.0000
  H   H13       1.0  0.35903  0.69004  0.17843  1.0000
  H   H14       1.0  0.64097  0.30996  0.82156  1.0000
  H   H15       1.0  0.55326  0.55459  0.07809  1.0000
  H   H16       1.0  0.44673  0.44540  0.92190  1.0000
  H   H17       1.0  0.73884  0.97020  0.68884  1.0000
  H   H18       1.0  0.26116  0.02982  0.31113  1.0000
  H   H19       1.0  0.71340  0.82745  0.65686  1.0000
  H   H20       1.0  0.28660  0.17254  0.34315  1.0000
  H   H21       1.0  0.94240  0.89304  0.63865  1.0000
  H   H22       1.0  0.05760  0.10695  0.36136  1.0000
  H   H23       1.0  0.09848  0.42175  0.11652  1.0000
  H   H24       1.0  0.90152  0.57824  0.88349  1.0000
  H   H25       1.0  0.02370  0.31959  0.26867  1.0000
  H   H26       1.0  0.97629  0.68041  0.73134  1.0000
  H   H27       1.0  0.92015  0.47713  0.20696  1.0000
  H   H28       1.0  0.07984  0.52286  0.79304  1.0000
  C   C1        1.0  0.71994  0.09362  0.13898  1.0000
  C   C2        1.0  0.28006  0.90637  0.86102  1.0000
  C   C3        1.0  0.67023  0.30465  0.19145  1.0000
  C   C4        1.0  0.32976  0.69535  0.80855  1.0000
  C   C5        1.0  0.78343  0.98088  0.10979  1.0000
  C   C6        1.0  0.21656  0.01911  0.89022  1.0000
  C   C7        1.0  0.93476  0.78004  0.18941  1.0000
  C   C8        1.0  0.06525  0.21996  0.81059  1.0000
  C   C9        1.0  0.92082  0.76006  0.07656  1.0000
  C   C10       1.0  0.07919  0.23994  0.92343  1.0000
  C   C11       1.0  0.83068  0.85438  0.97845  1.0000
  C   C12       1.0  0.16933  0.14562  0.02156  1.0000
  C   C13       1.0  0.76077  0.96665  0.99461  1.0000
  C   C14       1.0  0.23923  0.03334  0.00539  1.0000
  C   C15       1.0  0.56616  0.39393  0.24926  1.0000
  C   C16       1.0  0.43383  0.60606  0.75074  1.0000
  C   C17       1.0  0.40863  0.41604  0.42480  1.0000
  C   C18       1.0  0.59137  0.58397  0.57520  1.0000
  C   C19       1.0  0.34523  0.53985  0.35781  1.0000
  C   C20       1.0  0.65476  0.46016  0.64219  1.0000
  C   C21       1.0  0.40061  0.59209  0.23252  1.0000
  C   C22       1.0  0.59940  0.40791  0.76748  1.0000
  C   C23       1.0  0.51158  0.51743  0.17669  1.0000
  C   C24       1.0  0.48841  0.48257  0.82331  1.0000
  C   C25       1.0  0.78871  0.91642  0.62815  1.0000
  C   C26       1.0  0.21129  0.08358  0.37184  1.0000
  C   C27       1.0  0.97748  0.39453  0.18298  1.0000
  C   C28       1.0  0.02251  0.60547  0.81702  1.0000
  N   N1        1.0  0.70586  0.18379  0.29020  1.0000
  N   N2        1.0  0.29414  0.81621  0.70979  1.0000
  N   N3        1.0  0.74908  0.08850  0.25648  1.0000
  N   N4        1.0  0.25092  0.91150  0.74353  1.0000
  N   N5        1.0  0.59655  0.18534  0.07040  1.0000
  N   N6        1.0  0.40345  0.81466  0.92960  1.0000
  N   N7        1.0  0.54415  0.28164  0.10148  1.0000
  N   N8        1.0  0.45585  0.71836  0.89851  1.0000
  N   N9        1.0  0.86811  0.88809  0.20557  1.0000
  N   N10       1.0  0.13189  0.11190  0.79443  1.0000
  N   N11       1.0  0.51954  0.34511  0.37177  1.0000
  N   N12       1.0  0.48044  0.65489  0.62823  1.0000
  Cl  Cl1       1.0  0.46858  0.84200  0.34800  1.0000
  Cl  Cl2       1.0  0.53140  0.15800  0.65202  1.0000
  Cl  Cl3       1.0  0.99405  0.74349  0.48657  1.0000
  Cl  Cl4       1.0  0.00593  0.25652  0.51342  1.0000
  O   O1        1.0  0.75050  0.99179  0.50197  1.0000
  O   O2        1.0  0.24951  0.00821  0.49803  1.0000
  O   O3        1.0  0.83729  0.35165  0.12033  1.0000
  O   O4        1.0  0.16271  0.64834  0.87968  1.0000
