data_image0
_chemical_formula_structural       Co2P4H24C24O8
_chemical_formula_sum              "Co2 P4 H24 C24 O8"
_cell_length_a       8.13417
_cell_length_b       9.47082
_cell_length_c       9.46989
_cell_angle_alpha    68.8281
_cell_angle_beta     75.3624
_cell_angle_gamma    75.3791

_space_group_name_H-M_alt    "P 1"
_space_group_IT_number       1

loop_
  _space_group_symop_operation_xyz
  'x, y, z'

loop_
  _atom_site_type_symbol
  _atom_site_label
  _atom_site_symmetry_multiplicity
  _atom_site_fract_x
  _atom_site_fract_y
  _atom_site_fract_z
  _atom_site_occupancy
  Co  Co1       1.0  0.24940  0.55928  0.44064  1.0000
  Co  Co2       1.0  0.74977  0.44055  0.55978  1.0000
  P   P1        1.0  0.01821  0.52483  0.23799  1.0000
  P   P2        1.0  0.48165  0.76272  0.47414  1.0000
  P   P3        1.0  0.98116  0.47412  0.76281  1.0000
  P   P4        1.0  0.51879  0.23845  0.52474  1.0000
  H   H1        1.0  0.91260  0.63582  0.13709  1.0000
  H   H2        1.0  0.58656  0.86466  0.36355  1.0000
  H   H3        1.0  0.08738  0.36411  0.86389  1.0000
  H   H4        1.0  0.41234  0.13799  0.63552  1.0000
  H   H5        1.0  0.30563  0.57393  0.98345  1.0000
  H   H6        1.0  0.19400  0.01670  0.42597  1.0000
  H   H7        1.0  0.69384  0.42591  0.01704  1.0000
  H   H8        1.0  0.80557  0.98350  0.57393  1.0000
  H   H9        1.0  0.49569  0.40518  0.83563  1.0000
  H   H10       1.0  0.00424  0.16432  0.59500  1.0000
  H   H11       1.0  0.50423  0.59496  0.16473  1.0000
  H   H12       1.0  0.99566  0.83580  0.40517  1.0000
  H   H13       1.0  0.45819  0.13508  0.90596  1.0000
  H   H14       1.0  0.04208  0.09397  0.86498  1.0000
  H   H15       1.0  0.54207  0.86499  0.09407  1.0000
  H   H16       1.0  0.95821  0.90610  0.13493  1.0000
  H   H17       1.0  0.22652  0.03283  0.12450  1.0000
  H   H18       1.0  0.27383  0.87546  0.96693  1.0000
  H   H19       1.0  0.77381  0.96685  0.87540  1.0000
  H   H20       1.0  0.72656  0.12446  0.03277  1.0000
  H   H21       1.0  0.02777  0.20610  0.26402  1.0000
  H   H22       1.0  0.47226  0.73605  0.79333  1.0000
  H   H23       1.0  0.97219  0.79320  0.73604  1.0000
  H   H24       1.0  0.52790  0.26401  0.20613  1.0000
  C   C1        1.0  0.15582  0.39977  0.13386  1.0000
  C   C2        1.0  0.34399  0.86630  0.59988  1.0000
  C   C3        1.0  0.84387  0.59978  0.86653  1.0000
  C   C4        1.0  0.65581  0.13387  0.39984  1.0000
  C   C5        1.0  0.28759  0.45588  0.01312  1.0000
  C   C6        1.0  0.21209  0.98701  0.54404  1.0000
  C   C7        1.0  0.71198  0.54398  0.98729  1.0000
  C   C8        1.0  0.78753  0.01314  0.45587  1.0000
  C   C9        1.0  0.39522  0.36080  0.93100  1.0000
  C   C10       1.0  0.10461  0.06898  0.63930  1.0000
  C   C11       1.0  0.60454  0.63928  0.06925  1.0000
  C   C12       1.0  0.89521  0.93108  0.36073  1.0000
  C   C13       1.0  0.37377  0.20838  0.97113  1.0000
  C   C14       1.0  0.12631  0.02877  0.79166  1.0000
  C   C15       1.0  0.62628  0.79161  0.02895  1.0000
  C   C16       1.0  0.87379  0.97118  0.20831  1.0000
  C   C17       1.0  0.24336  0.15182  0.09213  1.0000
  C   C18       1.0  0.25674  0.90781  0.84804  1.0000
  C   C19       1.0  0.75676  0.84792  0.90789  1.0000
  C   C20       1.0  0.74337  0.09211  0.15178  1.0000
  C   C21       1.0  0.13260  0.24787  0.17205  1.0000
  C   C22       1.0  0.36736  0.82800  0.75180  1.0000
  C   C23       1.0  0.86733  0.75167  0.82810  1.0000
  C   C24       1.0  0.63265  0.17201  0.24790  1.0000
  O   O1        1.0  0.12554  0.61764  0.27104  1.0000
  O   O2        1.0  0.37481  0.72896  0.38185  1.0000
  O   O3        1.0  0.87389  0.38095  0.73063  1.0000
  O   O4        1.0  0.62656  0.27040  0.61778  1.0000
  O   O5        1.0  0.90517  0.42566  0.37369  1.0000
  O   O6        1.0  0.59629  0.62798  0.57242  1.0000
  O   O7        1.0  0.09417  0.57300  0.62688  1.0000
  O   O8        1.0  0.40690  0.37447  0.42513  1.0000
