data_image0
_chemical_formula_structural       CuH36C16S4Cl2O12
_chemical_formula_sum              "Cu1 H36 C16 S4 Cl2 O12"
_cell_length_a       7.79022
_cell_length_b       8.76386
_cell_length_c       11.4392
_cell_angle_alpha    98.7549
_cell_angle_beta     97.3247
_cell_angle_gamma    114.413

_space_group_name_H-M_alt    "P 1"
_space_group_IT_number       1

loop_
  _space_group_symop_operation_xyz
  'x, y, z'

loop_
  _atom_site_type_symbol
  _atom_site_label
  _atom_site_symmetry_multiplicity
  _atom_site_fract_x
  _atom_site_fract_y
  _atom_site_fract_z
  _atom_site_occupancy
  Cu  Cu1       1.0  0.50000  0.00000  0.50000  1.0000
  H   H1        1.0  0.55759  0.38015  0.01528  1.0000
  H   H2        1.0  0.44240  0.61985  0.98472  1.0000
  H   H3        1.0  0.74393  0.57030  0.99463  1.0000
  H   H4        1.0  0.25607  0.42970  0.00537  1.0000
  H   H5        1.0  0.77112  0.37736  0.98146  1.0000
  H   H6        1.0  0.22888  0.62264  0.01854  1.0000
  H   H7        1.0  0.49672  0.23924  0.79583  1.0000
  H   H8        1.0  0.50328  0.76076  0.20417  1.0000
  H   H9        1.0  0.47242  0.43287  0.80975  1.0000
  H   H10       1.0  0.52758  0.56713  0.19025  1.0000
  H   H11       1.0  0.84326  0.40002  0.77375  1.0000
  H   H12       1.0  0.15674  0.59999  0.22625  1.0000
  H   H13       1.0  0.80990  0.58802  0.77505  1.0000
  H   H14       1.0  0.19010  0.41198  0.22495  1.0000
  H   H15       1.0  0.44249  0.51063  0.62520  1.0000
  H   H16       1.0  0.55750  0.48937  0.37480  1.0000
  H   H17       1.0  0.66640  0.65302  0.59385  1.0000
  H   H18       1.0  0.33360  0.34697  0.40614  1.0000
  H   H19       1.0  0.09673  0.19020  0.57236  1.0000
  H   H20       1.0  0.90327  0.80980  0.42764  1.0000
  H   H21       1.0  0.15460  0.02154  0.60937  1.0000
  H   H22       1.0  0.84540  0.97846  0.39064  1.0000
  H   H23       1.0  0.08092  0.04640  0.82259  1.0000
  H   H24       1.0  0.91908  0.95360  0.17741  1.0000
  H   H25       1.0  0.07050  0.24081  0.79632  1.0000
  H   H26       1.0  0.92950  0.75919  0.20368  1.0000
  H   H27       1.0  0.92082  0.17514  0.97053  1.0000
  H   H28       1.0  0.07919  0.82486  0.02947  1.0000
  H   H29       1.0  0.73431  0.12616  0.84628  1.0000
  H   H30       1.0  0.26569  0.87384  0.15372  1.0000
  H   H31       1.0  0.64955  0.90056  0.96821  1.0000
  H   H32       1.0  0.35046  0.09944  0.03179  1.0000
  H   H33       1.0  0.84255  0.85546  0.93277  1.0000
  H   H34       1.0  0.15745  0.14454  0.06723  1.0000
  H   H35       1.0  0.64223  0.81274  0.81690  1.0000
  H   H36       1.0  0.35777  0.18726  0.18311  1.0000
  C   C1        1.0  0.66746  0.42977  0.96190  1.0000
  C   C2        1.0  0.33254  0.57023  0.03810  1.0000
  C   C3        1.0  0.57687  0.38002  0.82671  1.0000
  C   C4        1.0  0.42313  0.61998  0.17329  1.0000
  C   C5        1.0  0.73407  0.44693  0.75549  1.0000
  C   C6        1.0  0.26593  0.55307  0.24451  1.0000
  C   C7        1.0  0.54687  0.52287  0.56671  1.0000
  C   C8        1.0  0.45313  0.47713  0.43329  1.0000
  C   C9        1.0  0.04233  0.05108  0.56521  1.0000
  C   C10       1.0  0.95767  0.94892  0.43479  1.0000
  C   C11       1.0  0.98495  0.10594  0.79957  1.0000
  C   C12       1.0  0.01506  0.89407  0.20043  1.0000
  C   C13       1.0  0.84180  0.08519  0.88276  1.0000
  C   C14       1.0  0.15820  0.91481  0.11725  1.0000
  C   C15       1.0  0.73864  0.90269  0.90099  1.0000
  C   C16       1.0  0.26136  0.09732  0.09902  1.0000
  S   S1        1.0  0.65423  0.38019  0.59161  1.0000
  S   S2        1.0  0.34577  0.61981  0.40839  1.0000
  S   S3        1.0  0.85133  0.99267  0.64766  1.0000
  S   S4        1.0  0.14867  0.00732  0.35234  1.0000
  Cl  Cl1       1.0  0.19995  0.73932  0.71478  1.0000
  Cl  Cl2       1.0  0.80005  0.26068  0.28522  1.0000
  O   O1        1.0  0.47070  0.20549  0.56585  1.0000
  O   O2        1.0  0.52929  0.79451  0.43415  1.0000
  O   O3        1.0  0.74769  0.10188  0.61454  1.0000
  O   O4        1.0  0.25231  0.89812  0.38546  1.0000
  O   O5        1.0  0.19418  0.82052  0.83494  1.0000
  O   O6        1.0  0.80581  0.17947  0.16506  1.0000
  O   O7        1.0  0.02597  0.70801  0.62844  1.0000
  O   O8        1.0  0.97403  0.29197  0.37155  1.0000
  O   O9        1.0  0.20899  0.57675  0.71821  1.0000
  O   O10       1.0  0.79101  0.42324  0.28180  1.0000
  O   O11       1.0  0.37068  0.85548  0.67678  1.0000
  O   O12       1.0  0.62932  0.14451  0.32322  1.0000
