data_image0
_chemical_formula_structural       CdH32C46S2N8O14F6
_chemical_formula_sum              "Cd1 H32 C46 S2 N8 O14 F6"
_cell_length_a       9.59135
_cell_length_b       11.8316
_cell_length_c       13.1217
_cell_angle_alpha    102.714
_cell_angle_beta     95.4093
_cell_angle_gamma    107.108

_space_group_name_H-M_alt    "P 1"
_space_group_IT_number       1

loop_
  _space_group_symop_operation_xyz
  'x, y, z'

loop_
  _atom_site_type_symbol
  _atom_site_label
  _atom_site_symmetry_multiplicity
  _atom_site_fract_x
  _atom_site_fract_y
  _atom_site_fract_z
  _atom_site_occupancy
  Cd  Cd1       1.0  0.00000  0.50000  0.50000  1.0000
  H   H1        1.0  0.19036  0.76469  0.68928  1.0000
  H   H2        1.0  0.80964  0.23531  0.31072  1.0000
  H   H3        1.0  0.98900  0.03904  0.65394  1.0000
  H   H4        1.0  0.01100  0.96096  0.34606  1.0000
  H   H5        1.0  0.82653  0.88739  0.48783  1.0000
  H   H6        1.0  0.17347  0.11261  0.51217  1.0000
  H   H7        1.0  0.85789  0.68305  0.43151  1.0000
  H   H8        1.0  0.14212  0.31695  0.56849  1.0000
  H   H9        1.0  0.45567  0.06278  0.95898  1.0000
  H   H10       1.0  0.54433  0.93722  0.04102  1.0000
  H   H11       1.0  0.48780  0.22561  0.87371  1.0000
  H   H12       1.0  0.51220  0.77439  0.12629  1.0000
  H   H13       1.0  0.27992  0.04685  0.08881  1.0000
  H   H14       1.0  0.72009  0.95315  0.91119  1.0000
  H   H15       1.0  0.05203  0.10322  0.04699  1.0000
  H   H16       1.0  0.94797  0.89678  0.95301  1.0000
  H   H17       1.0  0.07772  0.26651  0.94478  1.0000
  H   H18       1.0  0.92229  0.73349  0.05522  1.0000
  H   H19       1.0  0.32905  0.35908  0.90341  1.0000
  H   H20       1.0  0.67095  0.64092  0.09659  1.0000
  H   H21       1.0  0.52190  0.22142  0.12730  1.0000
  H   H22       1.0  0.47810  0.77859  0.87269  1.0000
  H   H23       1.0  0.54268  0.37643  0.03691  1.0000
  H   H24       1.0  0.45732  0.62357  0.96309  1.0000
  H   H25       1.0  0.15371  0.38545  0.32655  1.0000
  H   H26       1.0  0.84629  0.61455  0.67345  1.0000
  H   H27       1.0  0.34697  0.68590  0.58607  1.0000
  H   H28       1.0  0.65302  0.31410  0.41393  1.0000
  H   H29       1.0  0.57793  0.74822  0.51111  1.0000
  H   H30       1.0  0.42207  0.25178  0.48889  1.0000
  H   H31       1.0  0.59528  0.61929  0.33347  1.0000
  H   H32       1.0  0.40472  0.38071  0.66653  1.0000
  C   C1        1.0  0.11304  0.79602  0.64572  1.0000
  C   C2        1.0  0.88696  0.20398  0.35428  1.0000
  C   C3        1.0  0.10509  0.91417  0.68099  1.0000
  C   C4        1.0  0.89490  0.08582  0.31901  1.0000
  C   C5        1.0  0.99902  0.94848  0.62625  1.0000
  C   C6        1.0  0.00098  0.05152  0.37375  1.0000
  C   C7        1.0  0.90835  0.86466  0.53542  1.0000
  C   C8        1.0  0.09165  0.13534  0.46459  1.0000
  C   C9        1.0  0.92479  0.74982  0.50352  1.0000
  C   C10       1.0  0.07521  0.25018  0.49648  1.0000
  C   C11       1.0  0.24019  0.96939  0.86666  1.0000
  C   C12       1.0  0.75981  0.03061  0.13334  1.0000
  C   C13       1.0  0.35203  0.08270  0.94183  1.0000
  C   C14       1.0  0.64797  0.91730  0.05817  1.0000
  C   C15       1.0  0.37271  0.18428  0.88327  1.0000
  C   C16       1.0  0.62729  0.81571  0.11673  1.0000
  C   C17       1.0  0.28165  0.12140  0.77361  1.0000
  C   C18       1.0  0.71835  0.87860  0.22639  1.0000
  C   C19       1.0  0.29462  0.11907  0.04699  1.0000
  C   C20       1.0  0.70538  0.88093  0.95301  1.0000
  C   C21       1.0  0.15422  0.14776  0.02156  1.0000
  C   C22       1.0  0.84578  0.85224  0.97844  1.0000
  C   C23       1.0  0.16779  0.23414  0.96834  1.0000
  C   C24       1.0  0.83221  0.76586  0.03166  1.0000
  C   C25       1.0  0.32099  0.28862  0.94621  1.0000
  C   C26       1.0  0.67901  0.71138  0.05379  1.0000
  C   C27       1.0  0.41616  0.23833  0.11193  1.0000
  C   C28       1.0  0.58384  0.76167  0.88807  1.0000
  C   C29       1.0  0.38111  0.28883  0.21930  1.0000
  C   C30       1.0  0.61889  0.71117  0.78070  1.0000
  C   C31       1.0  0.40259  0.44332  0.13029  1.0000
  C   C32       1.0  0.59741  0.55668  0.86971  1.0000
  C   C33       1.0  0.43028  0.33936  0.05333  1.0000
  C   C34       1.0  0.56972  0.66064  0.94667  1.0000
  C   C35       1.0  0.37708  0.49106  0.32093  1.0000
  C   C36       1.0  0.62292  0.50894  0.67906  1.0000
  C   C37       1.0  0.24995  0.46445  0.36636  1.0000
  C   C38       1.0  0.75005  0.53555  0.63364  1.0000
  C   C39       1.0  0.35726  0.63381  0.50925  1.0000
  C   C40       1.0  0.64274  0.36619  0.49075  1.0000
  C   C41       1.0  0.48634  0.66775  0.46688  1.0000
  C   C42       1.0  0.51366  0.33225  0.53312  1.0000
  C   C43       1.0  0.49702  0.59611  0.37024  1.0000
  C   C44       1.0  0.50298  0.40390  0.62976  1.0000
  C   C45       1.0  0.91102  0.44764  0.12539  1.0000
  C   C46       1.0  0.08898  0.55236  0.87461  1.0000
  S   S1        1.0  0.82183  0.47478  0.24471  1.0000
  S   S2        1.0  0.17817  0.52522  0.75529  1.0000
  N   N1        1.0  0.02354  0.71526  0.55863  1.0000
  N   N2        1.0  0.97646  0.28474  0.44137  1.0000
  N   N3        1.0  0.20482  0.99841  0.77103  1.0000
  N   N4        1.0  0.79517  0.00159  0.22897  1.0000
  N   N5        1.0  0.38484  0.40975  0.22603  1.0000
  N   N6        1.0  0.61516  0.59025  0.77397  1.0000
  N   N7        1.0  0.24005  0.53498  0.45897  1.0000
  N   N8        1.0  0.75995  0.46502  0.54103  1.0000
  O   O1        1.0  0.18653  0.86993  0.88423  1.0000
  O   O2        1.0  0.81347  0.13007  0.11577  1.0000
  O   O3        1.0  0.27435  0.16444  0.69758  1.0000
  O   O4        1.0  0.72565  0.83556  0.30242  1.0000
  O   O5        1.0  0.35471  0.23661  0.28950  1.0000
  O   O6        1.0  0.64529  0.76339  0.71050  1.0000
  O   O7        1.0  0.39657  0.54048  0.11635  1.0000
  O   O8        1.0  0.60343  0.45952  0.88365  1.0000
  O   O9        1.0  0.95218  0.52897  0.33021  1.0000
  O   O10       1.0  0.04782  0.47104  0.66979  1.0000
  O   O11       1.0  0.72688  0.35465  0.24785  1.0000
  O   O12       1.0  0.27312  0.64535  0.75215  1.0000
  O   O13       1.0  0.74579  0.55991  0.22651  1.0000
  O   O14       1.0  0.25421  0.44009  0.77349  1.0000
  F   F1        1.0  0.98887  0.55684  0.10999  1.0000
  F   F2        1.0  0.01113  0.44316  0.89001  1.0000
  F   F3        1.0  0.80695  0.38411  0.03818  1.0000
  F   F4        1.0  0.19305  0.61590  0.96182  1.0000
  F   F5        1.0  0.00556  0.38426  0.13693  1.0000
  F   F6        1.0  0.99444  0.61574  0.86307  1.0000
