data_image0
_chemical_formula_structural       CdH32C46S2N10O8
_chemical_formula_sum              "Cd1 H32 C46 S2 N10 O8"
_cell_length_a       6.81905
_cell_length_b       10.8307
_cell_length_c       15.6606
_cell_angle_alpha    98.7324
_cell_angle_beta     102.469
_cell_angle_gamma    95.7393

_space_group_name_H-M_alt    "P 1"
_space_group_IT_number       1

loop_
  _space_group_symop_operation_xyz
  'x, y, z'

loop_
  _atom_site_type_symbol
  _atom_site_label
  _atom_site_symmetry_multiplicity
  _atom_site_fract_x
  _atom_site_fract_y
  _atom_site_fract_z
  _atom_site_occupancy
  Cd  Cd1       1.0  0.50000  1.00000  0.50000  1.0000
  H   H1        1.0  0.70331  0.28360  0.59887  1.0000
  H   H2        1.0  0.29668  0.71640  0.40113  1.0000
  H   H3        1.0  0.80377  0.49809  0.57069  1.0000
  H   H4        1.0  0.19622  0.50191  0.42931  1.0000
  H   H5        1.0  0.78212  0.52809  0.41125  1.0000
  H   H6        1.0  0.21788  0.47192  0.58875  1.0000
  H   H7        1.0  0.57382  0.12925  0.33044  1.0000
  H   H8        1.0  0.42619  0.87075  0.66956  1.0000
  H   H9        1.0  0.77076  0.51315  0.14184  1.0000
  H   H10       1.0  0.22924  0.48685  0.85816  1.0000
  H   H11       1.0  0.43198  0.40236  0.09412  1.0000
  H   H12       1.0  0.56802  0.59764  0.90588  1.0000
  H   H13       1.0  0.05447  0.39800  0.11083  1.0000
  H   H14       1.0  0.94553  0.60200  0.88917  1.0000
  H   H15       1.0  0.02070  0.17246  0.12473  1.0000
  H   H16       1.0  0.97931  0.82754  0.87527  1.0000
  H   H17       1.0  0.65617  0.05160  0.07906  1.0000
  H   H18       1.0  0.34383  0.94840  0.92094  1.0000
  H   H19       1.0  0.38021  0.17506  0.02269  1.0000
  H   H20       1.0  0.61979  0.82494  0.97731  1.0000
  H   H21       1.0  0.80298  0.45987  0.98745  1.0000
  H   H22       1.0  0.19702  0.54013  0.01255  1.0000
  H   H23       1.0  0.46880  0.33954  0.93703  1.0000
  H   H24       1.0  0.53120  0.66046  0.06297  1.0000
  H   H25       1.0  0.11891  0.07936  0.87101  1.0000
  H   H26       1.0  0.88108  0.92065  0.12898  1.0000
  H   H27       1.0  0.17814  0.94161  0.73881  1.0000
  H   H28       1.0  0.82186  0.05840  0.26119  1.0000
  H   H29       1.0  0.92494  0.91710  0.59143  1.0000
  H   H30       1.0  0.07506  0.08290  0.40857  1.0000
  H   H31       1.0  0.56998  0.15352  0.70272  1.0000
  H   H32       1.0  0.43001  0.84648  0.29728  1.0000
  C   C1        1.0  0.69726  0.29962  0.53137  1.0000
  C   C2        1.0  0.30274  0.70038  0.46863  1.0000
  C   C3        1.0  0.75280  0.41963  0.51517  1.0000
  C   C4        1.0  0.24720  0.58037  0.48483  1.0000
  C   C5        1.0  0.74388  0.43582  0.42801  1.0000
  C   C6        1.0  0.25612  0.56418  0.57199  1.0000
  C   C7        1.0  0.68108  0.33005  0.36053  1.0000
  C   C8        1.0  0.31891  0.66995  0.63947  1.0000
  C   C9        1.0  0.62651  0.21292  0.38189  1.0000
  C   C10       1.0  0.37349  0.78708  0.61811  1.0000
  C   C11       1.0  0.83585  0.40245  0.24342  1.0000
  C   C12       1.0  0.16415  0.59755  0.75658  1.0000
  C   C13       1.0  0.76317  0.41251  0.14645  1.0000
  C   C14       1.0  0.23683  0.58749  0.85355  1.0000
  C   C15       1.0  0.54558  0.34207  0.11740  1.0000
  C   C16       1.0  0.45442  0.65793  0.88260  1.0000
  C   C17       1.0  0.50148  0.29963  0.20050  1.0000
  C   C18       1.0  0.49852  0.70037  0.79950  1.0000
  C   C19       1.0  0.89854  0.34935  0.08966  1.0000
  C   C20       1.0  0.10146  0.65065  0.91034  1.0000
  C   C21       1.0  0.88484  0.21206  0.09782  1.0000
  C   C22       1.0  0.11516  0.78793  0.90218  1.0000
  C   C23       1.0  0.69555  0.14968  0.07400  1.0000
  C   C24       1.0  0.30445  0.85032  0.92600  1.0000
  C   C25       1.0  0.53320  0.22804  0.04223  1.0000
  C   C26       1.0  0.46680  0.77196  0.95777  1.0000
  C   C27       1.0  0.80125  0.35949  0.99221  1.0000
  C   C28       1.0  0.19875  0.64051  0.00779  1.0000
  C   C29       1.0  0.91836  0.29996  0.92858  1.0000
  C   C30       1.0  0.08164  0.70003  0.07142  1.0000
  C   C31       1.0  0.59785  0.18081  0.88848  1.0000
  C   C32       1.0  0.40215  0.81920  0.11152  1.0000
  C   C33       1.0  0.58700  0.28409  0.96344  1.0000
  C   C34       1.0  0.41301  0.71592  0.03656  1.0000
  C   C35       1.0  0.83829  0.12498  0.79616  1.0000
  C   C36       1.0  0.16170  0.87502  0.20384  1.0000
  C   C37       1.0  0.01096  0.06527  0.80706  1.0000
  C   C38       1.0  0.98904  0.93473  0.19293  1.0000
  C   C39       1.0  0.04382  0.98884  0.73298  1.0000
  C   C40       1.0  0.95618  0.01117  0.26701  1.0000
  C   C41       1.0  0.90501  0.97476  0.65161  1.0000
  C   C42       1.0  0.09498  0.02524  0.34839  1.0000
  C   C43       1.0  0.70594  0.10736  0.71260  1.0000
  C   C44       1.0  0.29405  0.89264  0.28740  1.0000
  C   C45       1.0  0.26368  0.19175  0.61871  1.0000
  C   C46       1.0  0.73633  0.80825  0.38129  1.0000
  S   S1        1.0  0.24152  0.30120  0.69730  1.0000
  S   S2        1.0  0.75847  0.69880  0.30270  1.0000
  N   N1        1.0  0.63393  0.19853  0.46604  1.0000
  N   N2        1.0  0.36608  0.80147  0.53396  1.0000
  N   N3        1.0  0.67212  0.34320  0.27087  1.0000
  N   N4        1.0  0.32789  0.65680  0.72913  1.0000
  N   N5        1.0  0.78815  0.20263  0.86785  1.0000
  N   N6        1.0  0.21184  0.79737  0.13215  1.0000
  N   N7        1.0  0.73880  0.03353  0.64187  1.0000
  N   N8        1.0  0.26120  0.96647  0.35813  1.0000
  N   N9        1.0  0.27908  0.10931  0.56182  1.0000
  N   N10       1.0  0.72092  0.89069  0.43818  1.0000
  O   O1        1.0  0.34701  0.23754  0.20655  1.0000
  O   O2        1.0  0.65299  0.76245  0.79345  1.0000
  O   O3        1.0  0.00638  0.43558  0.29007  1.0000
  O   O4        1.0  0.99363  0.56441  0.70992  1.0000
  O   O5        1.0  0.47067  0.09028  0.85194  1.0000
  O   O6        1.0  0.52933  0.90972  0.14806  1.0000
  O   O7        1.0  0.09777  0.32959  0.93005  1.0000
  O   O8        1.0  0.90223  0.67041  0.06995  1.0000
