data_image0
_chemical_formula_structural       Cd2H44C66N4O10
_chemical_formula_sum              "Cd2 H44 C66 N4 O10"
_cell_length_a       10.14
_cell_length_b       11.1075
_cell_length_c       12.6349
_cell_angle_alpha    104.035
_cell_angle_beta     105.493
_cell_angle_gamma    95.1861

_space_group_name_H-M_alt    "P 1"
_space_group_IT_number       1

loop_
  _space_group_symop_operation_xyz
  'x, y, z'

loop_
  _atom_site_type_symbol
  _atom_site_label
  _atom_site_symmetry_multiplicity
  _atom_site_fract_x
  _atom_site_fract_y
  _atom_site_fract_z
  _atom_site_occupancy
  Cd  Cd1       1.0  0.57695  0.86575  0.51187  1.0000
  Cd  Cd2       1.0  0.42305  0.13425  0.48812  1.0000
  H   H1        1.0  0.36559  0.67066  0.15282  1.0000
  H   H2        1.0  0.63440  0.32934  0.84718  1.0000
  H   H3        1.0  0.20436  0.52861  0.96901  1.0000
  H   H4        1.0  0.79564  0.47139  0.03099  1.0000
  H   H5        1.0  0.96430  0.57276  0.89473  1.0000
  H   H6        1.0  0.03569  0.42724  0.10527  1.0000
  H   H7        1.0  0.05538  0.90386  0.18250  1.0000
  H   H8        1.0  0.94462  0.09614  0.81750  1.0000
  H   H9        1.0  0.88375  0.94863  0.03799  1.0000
  H   H10       1.0  0.11625  0.05137  0.96202  1.0000
  H   H11       1.0  0.82342  0.87225  0.12870  1.0000
  H   H12       1.0  0.17659  0.12775  0.87131  1.0000
  H   H13       1.0  0.71854  0.03161  0.92201  1.0000
  H   H14       1.0  0.28146  0.96840  0.07799  1.0000
  H   H15       1.0  0.47907  0.03087  0.81037  1.0000
  H   H16       1.0  0.52093  0.96913  0.18963  1.0000
  H   H17       1.0  0.34496  0.68988  0.88508  1.0000
  H   H18       1.0  0.65504  0.31013  0.11492  1.0000
  H   H19       1.0  0.58423  0.69575  0.00340  1.0000
  H   H20       1.0  0.41577  0.30426  0.99660  1.0000
  H   H21       1.0  0.16921  0.80068  0.89666  1.0000
  H   H22       1.0  0.83080  0.19932  0.10334  1.0000
  H   H23       1.0  0.92283  0.80094  0.79811  1.0000
  H   H24       1.0  0.07718  0.19906  0.20189  1.0000
  H   H25       1.0  0.86209  0.86830  0.61852  1.0000
  H   H26       1.0  0.13791  0.13170  0.38148  1.0000
  H   H27       1.0  0.04787  0.92205  0.53504  1.0000
  H   H28       1.0  0.95214  0.07795  0.46495  1.0000
  H   H29       1.0  0.69647  0.82268  0.28111  1.0000
  H   H30       1.0  0.30353  0.17732  0.71889  1.0000
  H   H31       1.0  0.82591  0.67905  0.17496  1.0000
  H   H32       1.0  0.17409  0.32095  0.82504  1.0000
  H   H33       1.0  0.89612  0.49297  0.24327  1.0000
  H   H34       1.0  0.10388  0.50702  0.75674  1.0000
  H   H35       1.0  0.89685  0.36654  0.38221  1.0000
  H   H36       1.0  0.10315  0.63346  0.61780  1.0000
  H   H37       1.0  0.82448  0.33026  0.54600  1.0000
  H   H38       1.0  0.17552  0.66973  0.45400  1.0000
  H   H39       1.0  0.70288  0.39481  0.69333  1.0000
  H   H40       1.0  0.29712  0.60519  0.30667  1.0000
  H   H41       1.0  0.58549  0.55813  0.79126  1.0000
  H   H42       1.0  0.41451  0.44187  0.20874  1.0000
  H   H43       1.0  0.54104  0.74434  0.71606  1.0000
  H   H44       1.0  0.45897  0.25566  0.28395  1.0000
  C   C1        1.0  0.31490  0.87756  0.28863  1.0000
  C   C2        1.0  0.68508  0.12245  0.71137  1.0000
  C   C3        1.0  0.21780  0.79366  0.17719  1.0000
  C   C4        1.0  0.78219  0.20634  0.82280  1.0000
  C   C5        1.0  0.26123  0.68884  0.11787  1.0000
  C   C6        1.0  0.73876  0.31117  0.88212  1.0000
  C   C7        1.0  0.17081  0.61034  0.01553  1.0000
  C   C8        1.0  0.82918  0.38965  0.98447  1.0000
  C   C9        1.0  0.03729  0.63424  0.97334  1.0000
  C   C10       1.0  0.96270  0.36576  0.02666  1.0000
  C   C11       1.0  0.99331  0.73879  0.03355  1.0000
  C   C12       1.0  0.00669  0.26121  0.96645  1.0000
  C   C13       1.0  0.08443  0.82038  0.13455  1.0000
  C   C14       1.0  0.91556  0.17962  0.86545  1.0000
  C   C15       1.0  0.81479  0.86652  0.03851  1.0000
  C   C16       1.0  0.18521  0.13348  0.96149  1.0000
  C   C17       1.0  0.66834  0.86417  0.97057  1.0000
  C   C18       1.0  0.33166  0.13583  0.02944  1.0000
  C   C19       1.0  0.63637  0.95716  0.91509  1.0000
  C   C20       1.0  0.36363  0.04285  0.08491  1.0000
  C   C21       1.0  0.50115  0.95576  0.85084  1.0000
  C   C22       1.0  0.49885  0.04424  0.14916  1.0000
  C   C23       1.0  0.39391  0.85920  0.83774  1.0000
  C   C24       1.0  0.60609  0.14081  0.16226  1.0000
  C   C25       1.0  0.42650  0.76601  0.89412  1.0000
  C   C26       1.0  0.57351  0.23399  0.10588  1.0000
  C   C27       1.0  0.56134  0.76906  0.96044  1.0000
  C   C28       1.0  0.43867  0.23094  0.03956  1.0000
  C   C29       1.0  0.24917  0.85735  0.77124  1.0000
  C   C30       1.0  0.75083  0.14265  0.22876  1.0000
  C   C31       1.0  0.14206  0.82480  0.81581  1.0000
  C   C32       1.0  0.85795  0.17520  0.18419  1.0000
  C   C33       1.0  0.00339  0.82590  0.76101  1.0000
  C   C34       1.0  0.99661  0.17411  0.23899  1.0000
  C   C35       1.0  0.96893  0.86234  0.66006  1.0000
  C   C36       1.0  0.03107  0.13767  0.33994  1.0000
  C   C37       1.0  0.07324  0.89446  0.61432  1.0000
  C   C38       1.0  0.92676  0.10554  0.38568  1.0000
  C   C39       1.0  0.21279  0.89073  0.66721  1.0000
  C   C40       1.0  0.78722  0.10927  0.33279  1.0000
  C   C41       1.0  0.31395  0.91739  0.60342  1.0000
  C   C42       1.0  0.68605  0.08261  0.39657  1.0000
  C   C43       1.0  0.72693  0.73975  0.30654  1.0000
  C   C44       1.0  0.27306  0.26024  0.69346  1.0000
  C   C45       1.0  0.79987  0.65935  0.24802  1.0000
  C   C46       1.0  0.20013  0.34065  0.75198  1.0000
  C   C47       1.0  0.83888  0.55727  0.28580  1.0000
  C   C48       1.0  0.16112  0.44272  0.71420  1.0000
  C   C49       1.0  0.80390  0.53515  0.38111  1.0000
  C   C50       1.0  0.19610  0.46484  0.61889  1.0000
  C   C51       1.0  0.83949  0.43089  0.42423  1.0000
  C   C52       1.0  0.16051  0.56910  0.57577  1.0000
  C   C53       1.0  0.80049  0.41142  0.51486  1.0000
  C   C54       1.0  0.19951  0.58858  0.48514  1.0000
  C   C55       1.0  0.72688  0.49657  0.57133  1.0000
  C   C56       1.0  0.27313  0.50343  0.42867  1.0000
  C   C57       1.0  0.68474  0.47896  0.66519  1.0000
  C   C58       1.0  0.31526  0.52104  0.33481  1.0000
  C   C59       1.0  0.61846  0.56754  0.71806  1.0000
  C   C60       1.0  0.38155  0.43247  0.28194  1.0000
  C   C61       1.0  0.59334  0.67273  0.67690  1.0000
  C   C62       1.0  0.40667  0.32727  0.32310  1.0000
  C   C63       1.0  0.69383  0.60375  0.53346  1.0000
  C   C64       1.0  0.30617  0.39625  0.46654  1.0000
  C   C65       1.0  0.73039  0.62194  0.43476  1.0000
  C   C66       1.0  0.26961  0.37806  0.56525  1.0000
  N   N1        1.0  0.62881  0.68957  0.58671  1.0000
  N   N2        1.0  0.37119  0.31043  0.41330  1.0000
  N   N3        1.0  0.69378  0.72172  0.39710  1.0000
  N   N4        1.0  0.30622  0.27827  0.60290  1.0000
  O   O1        1.0  0.40813  0.82525  0.34094  1.0000
  O   O2        1.0  0.59186  0.17475  0.65906  1.0000
  O   O3        1.0  0.29527  0.99040  0.31851  1.0000
  O   O4        1.0  0.70473  0.00961  0.68147  1.0000
  O   O5        1.0  0.85891  0.75223  0.98697  1.0000
  O   O6        1.0  0.14109  0.24777  0.01303  1.0000
  O   O7        1.0  0.40450  0.84643  0.59713  1.0000
  O   O8        1.0  0.59551  0.15356  0.40287  1.0000
  O   O9        1.0  0.29417  0.00665  0.55779  1.0000
  O   O10       1.0  0.70583  0.99335  0.44220  1.0000
