data_image0
_chemical_formula_structural       Cd2H56C62N8O10
_chemical_formula_sum              "Cd2 H56 C62 N8 O10"
_cell_length_a       9.42418
_cell_length_b       12.9804
_cell_length_c       12.3734
_cell_angle_alpha    78.9691
_cell_angle_beta     76.9361
_cell_angle_gamma    73.9286

_space_group_name_H-M_alt    "P 1"
_space_group_IT_number       1

loop_
  _space_group_symop_operation_xyz
  'x, y, z'

loop_
  _atom_site_type_symbol
  _atom_site_label
  _atom_site_symmetry_multiplicity
  _atom_site_fract_x
  _atom_site_fract_y
  _atom_site_fract_z
  _atom_site_occupancy
  Cd  Cd1       1.0  0.35588  0.26550  0.72172  1.0000
  Cd  Cd2       1.0  0.64413  0.73450  0.27828  1.0000
  H   H1        1.0  0.95379  0.56499  0.75945  1.0000
  H   H2        1.0  0.04621  0.43501  0.24055  1.0000
  H   H3        1.0  0.81063  0.77783  0.01415  1.0000
  H   H4        1.0  0.18936  0.22216  0.98586  1.0000
  H   H5        1.0  0.05048  0.69825  0.07998  1.0000
  H   H6        1.0  0.94952  0.30175  0.92003  1.0000
  H   H7        1.0  0.24519  0.55001  0.98446  1.0000
  H   H8        1.0  0.75482  0.45000  0.01554  1.0000
  H   H9        1.0  0.69626  0.60922  0.77756  1.0000
  H   H10       1.0  0.30374  0.39077  0.22244  1.0000
  H   H11       1.0  0.78633  0.70327  0.67973  1.0000
  H   H12       1.0  0.21367  0.29673  0.32028  1.0000
  H   H13       1.0  0.64315  0.87058  0.59584  1.0000
  H   H14       1.0  0.35685  0.12941  0.40416  1.0000
  H   H15       1.0  0.39772  0.99200  0.56502  1.0000
  H   H16       1.0  0.60229  0.00800  0.43498  1.0000
  H   H17       1.0  0.17251  0.78249  0.81605  1.0000
  H   H18       1.0  0.82749  0.21751  0.18394  1.0000
  H   H19       1.0  0.41712  0.66602  0.85215  1.0000
  H   H20       1.0  0.58288  0.33397  0.14784  1.0000
  H   H21       1.0  0.03452  0.82732  0.67146  1.0000
  H   H22       1.0  0.96547  0.17269  0.32852  1.0000
  H   H23       1.0  0.78716  0.93415  0.63024  1.0000
  H   H24       1.0  0.21283  0.06586  0.36976  1.0000
  H   H25       1.0  0.73173  0.13559  0.59571  1.0000
  H   H26       1.0  0.26827  0.86442  0.40428  1.0000
  H   H27       1.0  0.92453  0.22817  0.60782  1.0000
  H   H28       1.0  0.07548  0.77184  0.39217  1.0000
  H   H29       1.0  0.56121  0.26158  0.44410  1.0000
  H   H30       1.0  0.43877  0.73842  0.55591  1.0000
  H   H31       1.0  0.77123  0.38502  0.35991  1.0000
  H   H32       1.0  0.22875  0.61498  0.64008  1.0000
  H   H33       1.0  0.56614  0.44078  0.69284  1.0000
  H   H34       1.0  0.43385  0.55922  0.30716  1.0000
  H   H35       1.0  0.74082  0.55527  0.58985  1.0000
  H   H36       1.0  0.25917  0.44473  0.41015  1.0000
  H   H37       1.0  0.77129  0.56944  0.44168  1.0000
  H   H38       1.0  0.22871  0.43056  0.55831  1.0000
  H   H39       1.0  0.99214  0.40513  0.44574  1.0000
  H   H40       1.0  0.00786  0.59486  0.55426  1.0000
  H   H41       1.0  0.97390  0.40477  0.59107  1.0000
  H   H42       1.0  0.02609  0.59523  0.40894  1.0000
  H   H43       1.0  0.59037  0.24646  0.91131  1.0000
  H   H44       1.0  0.40963  0.75354  0.08870  1.0000
  H   H45       1.0  0.48585  0.00063  0.78756  1.0000
  H   H46       1.0  0.51416  0.99938  0.21244  1.0000
  H   H47       1.0  0.70701  0.90639  0.91438  1.0000
  H   H48       1.0  0.29299  0.09362  0.08562  1.0000
  H   H49       1.0  0.77967  0.14276  0.02435  1.0000
  H   H50       1.0  0.22034  0.85724  0.97565  1.0000
  H   H51       1.0  0.74985  0.01402  0.08751  1.0000
  H   H52       1.0  0.25017  0.98598  0.91248  1.0000
  H   H53       1.0  0.98760  0.05624  0.87992  1.0000
  H   H54       1.0  0.01240  0.94376  0.12007  1.0000
  H   H55       1.0  0.95223  0.92807  0.93667  1.0000
  H   H56       1.0  0.04778  0.07193  0.06332  1.0000
  C   C1        1.0  0.21662  0.45615  0.81650  1.0000
  C   C2        1.0  0.78339  0.54385  0.18351  1.0000
  C   C3        1.0  0.10964  0.55188  0.86596  1.0000
  C   C4        1.0  0.89037  0.44812  0.13404  1.0000
  C   C5        1.0  0.97413  0.59888  0.82675  1.0000
  C   C6        1.0  0.02587  0.40112  0.17325  1.0000
  C   C7        1.0  0.86777  0.68218  0.87811  1.0000
  C   C8        1.0  0.13222  0.31782  0.12190  1.0000
  C   C9        1.0  0.89669  0.71732  0.96983  1.0000
  C   C10       1.0  0.10331  0.28267  0.03018  1.0000
  C   C11       1.0  0.03224  0.67143  0.00702  1.0000
  C   C12       1.0  0.96776  0.32857  0.99299  1.0000
  C   C13       1.0  0.13996  0.58908  0.95502  1.0000
  C   C14       1.0  0.86004  0.41092  0.04498  1.0000
  C   C15       1.0  0.69795  0.69543  0.75423  1.0000
  C   C16       1.0  0.30205  0.30457  0.24578  1.0000
  C   C17       1.0  0.54823  0.76362  0.73075  1.0000
  C   C18       1.0  0.45177  0.23638  0.26925  1.0000
  C   C19       1.0  0.53995  0.85478  0.64862  1.0000
  C   C20       1.0  0.46005  0.14522  0.35138  1.0000
  C   C21       1.0  0.40172  0.92169  0.62959  1.0000
  C   C22       1.0  0.59829  0.07830  0.37041  1.0000
  C   C23       1.0  0.26668  0.89801  0.69022  1.0000
  C   C24       1.0  0.73332  0.10199  0.30977  1.0000
  C   C25       1.0  0.27559  0.80373  0.76898  1.0000
  C   C26       1.0  0.72440  0.19627  0.23101  1.0000
  C   C27       1.0  0.41397  0.73823  0.78980  1.0000
  C   C28       1.0  0.58602  0.26177  0.21019  1.0000
  C   C29       1.0  0.11956  0.96617  0.66761  1.0000
  C   C30       1.0  0.88044  0.03382  0.33239  1.0000
  C   C31       1.0  0.00923  0.91549  0.66001  1.0000
  C   C32       1.0  0.99077  0.08451  0.33998  1.0000
  C   C33       1.0  0.87058  0.97546  0.63549  1.0000
  C   C34       1.0  0.12942  0.02454  0.36450  1.0000
  C   C35       1.0  0.83951  0.08809  0.61606  1.0000
  C   C36       1.0  0.16049  0.91192  0.38394  1.0000
  C   C37       1.0  0.94783  0.14004  0.62233  1.0000
  C   C38       1.0  0.05218  0.85997  0.37766  1.0000
  C   C39       1.0  0.08681  0.08051  0.64930  1.0000
  C   C40       1.0  0.91320  0.91949  0.35070  1.0000
  C   C41       1.0  0.18933  0.14315  0.66841  1.0000
  C   C42       1.0  0.81069  0.85685  0.33157  1.0000
  C   C43       1.0  0.59473  0.31646  0.48346  1.0000
  C   C44       1.0  0.40526  0.68354  0.51654  1.0000
  C   C45       1.0  0.69912  0.37659  0.44106  1.0000
  C   C46       1.0  0.30087  0.62341  0.55894  1.0000
  C   C47       1.0  0.59479  0.40689  0.61479  1.0000
  C   C48       1.0  0.40520  0.59311  0.38521  1.0000
  C   C49       1.0  0.78724  0.51117  0.51733  1.0000
  C   C50       1.0  0.21275  0.48883  0.48267  1.0000
  C   C51       1.0  0.95413  0.45754  0.51218  1.0000
  C   C52       1.0  0.04586  0.54246  0.48782  1.0000
  C   C53       1.0  0.59242  0.16758  0.89295  1.0000
  C   C54       1.0  0.40758  0.83242  0.10706  1.0000
  C   C55       1.0  0.54084  0.03779  0.83202  1.0000
  C   C56       1.0  0.45916  0.96221  0.16798  1.0000
  C   C57       1.0  0.65031  0.99032  0.89504  1.0000
  C   C58       1.0  0.34969  0.00969  0.10496  1.0000
  C   C59       1.0  0.78728  0.06122  0.00758  1.0000
  C   C60       1.0  0.21273  0.93877  0.99241  1.0000
  C   C61       1.0  0.94827  0.00744  0.95813  1.0000
  C   C62       1.0  0.05174  0.99257  0.04186  1.0000
  N   N1        1.0  0.53071  0.33595  0.59186  1.0000
  N   N2        1.0  0.46928  0.66406  0.40814  1.0000
  N   N3        1.0  0.69733  0.43371  0.52523  1.0000
  N   N4        1.0  0.30266  0.56628  0.47477  1.0000
  N   N5        1.0  0.50570  0.14835  0.83136  1.0000
  N   N6        1.0  0.49430  0.85165  0.16864  1.0000
  N   N7        1.0  0.68180  0.07329  0.93302  1.0000
  N   N8        1.0  0.31819  0.92671  0.06698  1.0000
  O   O1        1.0  0.16620  0.41341  0.75139  1.0000
  O   O2        1.0  0.83382  0.58658  0.24862  1.0000
  O   O3        1.0  0.34638  0.42029  0.84043  1.0000
  O   O4        1.0  0.65362  0.57971  0.15958  1.0000
  O   O5        1.0  0.73188  0.73234  0.84651  1.0000
  O   O6        1.0  0.26811  0.26765  0.15350  1.0000
  O   O7        1.0  0.24324  0.20671  0.58775  1.0000
  O   O8        1.0  0.75674  0.79331  0.41224  1.0000
  O   O9        1.0  0.21270  0.13263  0.76815  1.0000
  O   O10       1.0  0.78733  0.86735  0.23183  1.0000
