data_image0
_chemical_formula_structural       CuH6C14N2O4F6
_chemical_formula_sum              "Cu1 H6 C14 N2 O4 F6"
_cell_length_a       5.36582
_cell_length_b       5.49941
_cell_length_c       12.6801
_cell_angle_alpha    99.0608
_cell_angle_beta     91.7957
_cell_angle_gamma    88.7675

_space_group_name_H-M_alt    "P 1"
_space_group_IT_number       1

loop_
  _space_group_symop_operation_xyz
  'x, y, z'

loop_
  _atom_site_type_symbol
  _atom_site_label
  _atom_site_symmetry_multiplicity
  _atom_site_fract_x
  _atom_site_fract_y
  _atom_site_fract_z
  _atom_site_occupancy
  Cu  Cu1       1.0  0.73060  0.23082  0.08199  1.0000
  H   H1        1.0  0.51917  0.73580  0.97489  1.0000
  H   H2        1.0  0.20957  0.53657  0.38620  1.0000
  H   H3        1.0  0.25156  0.92370  0.77802  1.0000
  H   H4        1.0  0.94176  0.72597  0.18954  1.0000
  H   H5        1.0  0.63234  0.44753  0.81189  1.0000
  H   H6        1.0  0.82778  0.01404  0.35245  1.0000
  C   C1        1.0  0.13938  0.26158  0.95738  1.0000
  C   C2        1.0  0.32195  0.19947  0.20658  1.0000
  C   C3        1.0  0.67809  0.77115  0.92841  1.0000
  C   C4        1.0  0.37277  0.58642  0.34595  1.0000
  C   C5        1.0  0.08829  0.87424  0.81833  1.0000
  C   C6        1.0  0.78272  0.69036  0.23589  1.0000
  C   C7        1.0  0.74374  0.61032  0.83680  1.0000
  C   C8        1.0  0.71689  0.85093  0.32752  1.0000
  C   C9        1.0  0.01117  0.02584  0.90996  1.0000
  C   C10       1.0  0.95085  0.66320  0.78144  1.0000
  C   C11       1.0  0.45007  0.43514  0.25422  1.0000
  C   C12       1.0  0.43444  0.96686  0.48276  1.0000
  C   C13       1.0  0.51007  0.79755  0.38292  1.0000
  C   C14       1.0  0.02692  0.49351  0.68179  1.0000
  N   N1        1.0  0.80935  0.97372  0.96281  1.0000
  N   N2        1.0  0.65193  0.48758  0.20145  1.0000
  O   O1        1.0  0.33831  0.31738  0.92030  1.0000
  O   O2        1.0  0.12315  0.14315  0.24360  1.0000
  O   O3        1.0  0.43721  0.06876  0.12811  1.0000
  O   O4        1.0  0.02391  0.39296  0.03564  1.0000
  F   F1        1.0  0.54821  0.18826  0.49297  1.0000
  F   F2        1.0  0.18335  0.01199  0.48354  1.0000
  F   F3        1.0  0.49423  0.86664  0.57263  1.0000
  F   F4        1.0  0.96716  0.59288  0.59172  1.0000
  F   F5        1.0  0.27809  0.44899  0.68122  1.0000
  F   F6        1.0  0.91358  0.27191  0.67177  1.0000
