data_image0
_chemical_formula_structural       Zn5H34C56N4O18
_chemical_formula_sum              "Zn5 H34 C56 N4 O18"
_cell_length_a       11.2515
_cell_length_b       11.3678
_cell_length_c       12.3469
_cell_angle_alpha    95.4442
_cell_angle_beta     104.605
_cell_angle_gamma    118.793

_space_group_name_H-M_alt    "P 1"
_space_group_IT_number       1

loop_
  _space_group_symop_operation_xyz
  'x, y, z'

loop_
  _atom_site_type_symbol
  _atom_site_label
  _atom_site_symmetry_multiplicity
  _atom_site_fract_x
  _atom_site_fract_y
  _atom_site_fract_z
  _atom_site_occupancy
  Zn  Zn1       1.0  0.19303  0.21898  0.26639  1.0000
  Zn  Zn2       1.0  0.80697  0.78102  0.73361  1.0000
  Zn  Zn3       1.0  0.00000  0.00000  0.00000  1.0000
  Zn  Zn4       1.0  0.15671  0.97229  0.80525  1.0000
  Zn  Zn5       1.0  0.84329  0.02771  0.19475  1.0000
  H   H1        1.0  0.36269  0.86085  0.89044  1.0000
  H   H2        1.0  0.63731  0.13915  0.10955  1.0000
  H   H3        1.0  0.61437  0.92705  0.89398  1.0000
  H   H4        1.0  0.38564  0.07295  0.10602  1.0000
  H   H5        1.0  0.75012  0.12914  0.81898  1.0000
  H   H6        1.0  0.24988  0.87086  0.18102  1.0000
  H   H7        1.0  0.75859  0.32515  0.73275  1.0000
  H   H8        1.0  0.24141  0.67485  0.26725  1.0000
  H   H9        1.0  0.63970  0.45030  0.66004  1.0000
  H   H10       1.0  0.36030  0.54971  0.33997  1.0000
  H   H11       1.0  0.42490  0.48004  0.62660  1.0000
  H   H12       1.0  0.57510  0.51996  0.37340  1.0000
  H   H13       1.0  0.17891  0.39505  0.64064  1.0000
  H   H14       1.0  0.82108  0.60495  0.35936  1.0000
  H   H15       1.0  0.06140  0.18241  0.70945  1.0000
  H   H16       1.0  0.93860  0.81759  0.29055  1.0000
  H   H17       1.0  0.79100  0.26601  0.38702  1.0000
  H   H18       1.0  0.20900  0.73399  0.61299  1.0000
  H   H19       1.0  0.75436  0.43752  0.49712  1.0000
  H   H20       1.0  0.24565  0.56248  0.50288  1.0000
  H   H21       1.0  0.31123  0.52076  0.05398  1.0000
  H   H22       1.0  0.68877  0.47925  0.94602  1.0000
  H   H23       1.0  0.48974  0.71283  0.99200  1.0000
  H   H24       1.0  0.51026  0.28717  0.00800  1.0000
  H   H25       1.0  0.57753  0.20491  0.41737  1.0000
  H   H26       1.0  0.42246  0.79509  0.58263  1.0000
  H   H27       1.0  0.75959  0.14989  0.52511  1.0000
  H   H28       1.0  0.24041  0.85011  0.47489  1.0000
  H   H29       1.0  0.09700  0.57918  0.84332  1.0000
  H   H30       1.0  0.90300  0.42082  0.15668  1.0000
  H   H31       1.0  0.04022  0.34613  0.87711  1.0000
  H   H32       1.0  0.95978  0.65387  0.12289  1.0000
  H   H33       1.0  0.05071  0.97991  0.21314  1.0000
  H   H34       1.0  0.94929  0.02009  0.78686  1.0000
  C   C1        1.0  0.42755  0.94852  0.85923  1.0000
  C   C2        1.0  0.57245  0.05148  0.14077  1.0000
  C   C3        1.0  0.56656  0.98566  0.86056  1.0000
  C   C4        1.0  0.43344  0.01434  0.13944  1.0000
  C   C5        1.0  0.64267  0.09877  0.81999  1.0000
  C   C6        1.0  0.35733  0.90123  0.18000  1.0000
  C   C7        1.0  0.57953  0.17391  0.77729  1.0000
  C   C8        1.0  0.42047  0.82608  0.22270  1.0000
  C   C9        1.0  0.65007  0.29134  0.73289  1.0000
  C   C10       1.0  0.34993  0.70866  0.26711  1.0000
  C   C11       1.0  0.58381  0.36004  0.69214  1.0000
  C   C12       1.0  0.41619  0.63996  0.30785  1.0000
  C   C13       1.0  0.44204  0.31729  0.69351  1.0000
  C   C14       1.0  0.55796  0.68271  0.30649  1.0000
  C   C15       1.0  0.37120  0.38851  0.65820  1.0000
  C   C16       1.0  0.62880  0.61149  0.34180  1.0000
  C   C17       1.0  0.23609  0.34203  0.66603  1.0000
  C   C18       1.0  0.76390  0.65797  0.33397  1.0000
  C   C19       1.0  0.17009  0.22347  0.70678  1.0000
  C   C20       1.0  0.82991  0.77653  0.29322  1.0000
  C   C21       1.0  0.36857  0.20073  0.73619  1.0000
  C   C22       1.0  0.63143  0.79927  0.26381  1.0000
  C   C23       1.0  0.43856  0.12839  0.77875  1.0000
  C   C24       1.0  0.56144  0.87161  0.22124  1.0000
  C   C25       1.0  0.88145  0.36879  0.43737  1.0000
  C   C26       1.0  0.11855  0.63122  0.56263  1.0000
  C   C27       1.0  0.86133  0.46351  0.49774  1.0000
  C   C28       1.0  0.13867  0.53649  0.50226  1.0000
  C   C29       1.0  0.02006  0.40425  0.43984  1.0000
  C   C30       1.0  0.97994  0.59575  0.56016  1.0000
  C   C31       1.0  0.03947  0.29823  0.37842  1.0000
  C   C32       1.0  0.96054  0.70177  0.62158  1.0000
  C   C33       1.0  0.39387  0.51235  0.02966  1.0000
  C   C34       1.0  0.60613  0.48765  0.97033  1.0000
  C   C35       1.0  0.39956  0.39234  0.03391  1.0000
  C   C36       1.0  0.60044  0.60767  0.96609  1.0000
  C   C37       1.0  0.49384  0.61937  0.99586  1.0000
  C   C38       1.0  0.50616  0.38063  0.00414  1.0000
  C   C39       1.0  0.29784  0.28230  0.07790  1.0000
  C   C40       1.0  0.70216  0.71770  0.92211  1.0000
  C   C41       1.0  0.54526  0.11582  0.45447  1.0000
  C   C42       1.0  0.45474  0.88417  0.54553  1.0000
  C   C43       1.0  0.39923  0.03065  0.44057  1.0000
  C   C44       1.0  0.60077  0.96935  0.55944  1.0000
  C   C45       1.0  0.64546  0.08521  0.51331  1.0000
  C   C46       1.0  0.35454  0.91479  0.48669  1.0000
  C   C47       1.0  0.28873  0.05675  0.37080  1.0000
  C   C48       1.0  0.71127  0.94325  0.62920  1.0000
  C   C49       1.0  0.05493  0.54392  0.91206  1.0000
  C   C50       1.0  0.94507  0.45608  0.08793  1.0000
  C   C51       1.0  0.03202  0.63068  0.98135  1.0000
  C   C52       1.0  0.96798  0.36932  0.01865  1.0000
  C   C53       1.0  0.02317  0.41457  0.93057  1.0000
  C   C54       1.0  0.97683  0.58543  0.06943  1.0000
  C   C55       1.0  0.06470  0.77027  0.96151  1.0000
  C   C56       1.0  0.93530  0.22973  0.03849  1.0000
  N   N1        1.0  0.36622  0.01878  0.82067  1.0000
  N   N2        1.0  0.63378  0.98122  0.17932  1.0000
  N   N3        1.0  0.23482  0.15490  0.74129  1.0000
  N   N4        1.0  0.76517  0.84510  0.25871  1.0000
  O   O1        1.0  0.93862  0.17244  0.35257  1.0000
  O   O2        1.0  0.06139  0.82756  0.64743  1.0000
  O   O3        1.0  0.15845  0.34367  0.35828  1.0000
  O   O4        1.0  0.84156  0.65634  0.64172  1.0000
  O   O5        1.0  0.27783  0.33107  0.16536  1.0000
  O   O6        1.0  0.72217  0.66894  0.83464  1.0000
  O   O7        1.0  0.24233  0.15492  0.03160  1.0000
  O   O8        1.0  0.75767  0.84509  0.96841  1.0000
  O   O9        1.0  0.33415  0.18320  0.36368  1.0000
  O   O10       1.0  0.66585  0.81680  0.63632  1.0000
  O   O11       1.0  0.16149  0.95476  0.32168  1.0000
  O   O12       1.0  0.83851  0.04524  0.67832  1.0000
  O   O13       1.0  0.12521  0.81059  0.88659  1.0000
  O   O14       1.0  0.87479  0.18941  0.11341  1.0000
  O   O15       1.0  0.03019  0.83723  0.02239  1.0000
  O   O16       1.0  0.96981  0.16277  0.97761  1.0000
  O   O17       1.0  0.01877  0.03673  0.17191  1.0000
  O   O18       1.0  0.98124  0.96327  0.82809  1.0000
