data_image0
_chemical_formula_structural       Zn4H56C56Br8N16O8
_chemical_formula_sum              "Zn4 H56 C56 Br8 N16 O8"
_cell_length_a       7.5048
_cell_length_b       12.2101
_cell_length_c       22.7675
_cell_angle_alpha    90.0001
_cell_angle_beta     90
_cell_angle_gamma    90

_space_group_name_H-M_alt    "P 1"
_space_group_IT_number       1

loop_
  _space_group_symop_operation_xyz
  'x, y, z'

loop_
  _atom_site_type_symbol
  _atom_site_label
  _atom_site_symmetry_multiplicity
  _atom_site_fract_x
  _atom_site_fract_y
  _atom_site_fract_z
  _atom_site_occupancy
  Zn  Zn1       1.0  0.25000  0.50000  0.25018  1.0000
  Zn  Zn2       1.0  0.25000  1.00000  0.24983  1.0000
  Zn  Zn3       1.0  0.75000  0.50000  0.74982  1.0000
  Zn  Zn4       1.0  0.75000  0.00000  0.75017  1.0000
  H   H1        1.0  0.49492  0.99195  0.09290  1.0000
  H   H2        1.0  0.00508  0.00805  0.09290  1.0000
  H   H3        1.0  0.00508  0.49195  0.40710  1.0000
  H   H4        1.0  0.49492  0.50805  0.40710  1.0000
  H   H5        1.0  0.50508  0.00805  0.90710  1.0000
  H   H6        1.0  0.99492  0.99195  0.90710  1.0000
  H   H7        1.0  0.99492  0.50805  0.59290  1.0000
  H   H8        1.0  0.50508  0.49195  0.59290  1.0000
  H   H9        1.0  0.14669  0.66294  0.15746  1.0000
  H   H10       1.0  0.35331  0.33706  0.15746  1.0000
  H   H11       1.0  0.35332  0.16294  0.34254  1.0000
  H   H12       1.0  0.14669  0.83706  0.34254  1.0000
  H   H13       1.0  0.85331  0.33706  0.84254  1.0000
  H   H14       1.0  0.64669  0.66294  0.84254  1.0000
  H   H15       1.0  0.64668  0.83706  0.65746  1.0000
  H   H16       1.0  0.85331  0.16294  0.65746  1.0000
  H   H17       1.0  0.29491  0.80297  0.09490  1.0000
  H   H18       1.0  0.20509  0.19703  0.09490  1.0000
  H   H19       1.0  0.20509  0.30297  0.40510  1.0000
  H   H20       1.0  0.29491  0.69703  0.40510  1.0000
  H   H21       1.0  0.70509  0.19703  0.90510  1.0000
  H   H22       1.0  0.79491  0.80297  0.90510  1.0000
  H   H23       1.0  0.79491  0.69702  0.59490  1.0000
  H   H24       1.0  0.70509  0.30297  0.59490  1.0000
  H   H25       1.0  0.79374  0.70946  0.17638  1.0000
  H   H26       1.0  0.70626  0.29054  0.17638  1.0000
  H   H27       1.0  0.70626  0.20946  0.32362  1.0000
  H   H28       1.0  0.79374  0.79054  0.32362  1.0000
  H   H29       1.0  0.20626  0.29054  0.82362  1.0000
  H   H30       1.0  0.29374  0.70946  0.82362  1.0000
  H   H31       1.0  0.29374  0.79054  0.67638  1.0000
  H   H32       1.0  0.20626  0.20946  0.67638  1.0000
  H   H33       1.0  0.62515  0.57079  0.23437  1.0000
  H   H34       1.0  0.87485  0.42921  0.23437  1.0000
  H   H35       1.0  0.87485  0.07080  0.26563  1.0000
  H   H36       1.0  0.62515  0.92920  0.26563  1.0000
  H   H37       1.0  0.37485  0.42920  0.76563  1.0000
  H   H38       1.0  0.12515  0.57080  0.76563  1.0000
  H   H39       1.0  0.12515  0.92921  0.73437  1.0000
  H   H40       1.0  0.37485  0.07080  0.73437  1.0000
  H   H41       1.0  0.76280  0.88664  0.12326  1.0000
  H   H42       1.0  0.73720  0.11336  0.12326  1.0000
  H   H43       1.0  0.73720  0.38664  0.37674  1.0000
  H   H44       1.0  0.76280  0.61336  0.37674  1.0000
  H   H45       1.0  0.23720  0.11336  0.87674  1.0000
  H   H46       1.0  0.26280  0.88664  0.87674  1.0000
  H   H47       1.0  0.26280  0.61336  0.62326  1.0000
  H   H48       1.0  0.23720  0.38664  0.62326  1.0000
  H   H49       1.0  0.73521  0.80757  0.05893  1.0000
  H   H50       1.0  0.76479  0.19243  0.05893  1.0000
  H   H51       1.0  0.76479  0.30757  0.44107  1.0000
  H   H52       1.0  0.73521  0.69243  0.44107  1.0000
  H   H53       1.0  0.26479  0.19243  0.94107  1.0000
  H   H54       1.0  0.23521  0.80757  0.94107  1.0000
  H   H55       1.0  0.23521  0.69243  0.55893  1.0000
  H   H56       1.0  0.26479  0.30757  0.55893  1.0000
  C   C1        1.0  0.29077  0.67412  0.15919  1.0000
  C   C2        1.0  0.20923  0.32588  0.15919  1.0000
  C   C3        1.0  0.20923  0.17412  0.34081  1.0000
  C   C4        1.0  0.29077  0.82588  0.34081  1.0000
  C   C5        1.0  0.70923  0.32588  0.84081  1.0000
  C   C6        1.0  0.79077  0.67412  0.84081  1.0000
  C   C7        1.0  0.79077  0.82588  0.65919  1.0000
  C   C8        1.0  0.70923  0.17412  0.65919  1.0000
  C   C9        1.0  0.37435  0.75261  0.12455  1.0000
  C   C10       1.0  0.12565  0.24739  0.12455  1.0000
  C   C11       1.0  0.12565  0.25261  0.37545  1.0000
  C   C12       1.0  0.37435  0.74739  0.37544  1.0000
  C   C13       1.0  0.62566  0.24739  0.87545  1.0000
  C   C14       1.0  0.87434  0.75261  0.87545  1.0000
  C   C15       1.0  0.87434  0.74739  0.62455  1.0000
  C   C16       1.0  0.62565  0.25260  0.62455  1.0000
  C   C17       1.0  0.55872  0.76631  0.12952  1.0000
  C   C18       1.0  0.94128  0.23369  0.12952  1.0000
  C   C19       1.0  0.94128  0.26631  0.37048  1.0000
  C   C20       1.0  0.55872  0.73369  0.37048  1.0000
  C   C21       1.0  0.44128  0.23369  0.87048  1.0000
  C   C22       1.0  0.05872  0.76631  0.87048  1.0000
  C   C23       1.0  0.05872  0.73369  0.62952  1.0000
  C   C24       1.0  0.44128  0.26631  0.62952  1.0000
  C   C25       1.0  0.65078  0.69978  0.16949  1.0000
  C   C26       1.0  0.84922  0.30022  0.16949  1.0000
  C   C27       1.0  0.84922  0.19978  0.33051  1.0000
  C   C28       1.0  0.65078  0.80022  0.33051  1.0000
  C   C29       1.0  0.34922  0.30022  0.83051  1.0000
  C   C30       1.0  0.15078  0.69978  0.83051  1.0000
  C   C31       1.0  0.15078  0.80022  0.66949  1.0000
  C   C32       1.0  0.34922  0.19978  0.66949  1.0000
  C   C33       1.0  0.55838  0.62300  0.20225  1.0000
  C   C34       1.0  0.94163  0.37700  0.20225  1.0000
  C   C35       1.0  0.94163  0.12300  0.29775  1.0000
  C   C36       1.0  0.55838  0.87700  0.29774  1.0000
  C   C37       1.0  0.44163  0.37700  0.79775  1.0000
  C   C38       1.0  0.05837  0.62300  0.79775  1.0000
  C   C39       1.0  0.05837  0.87700  0.70225  1.0000
  C   C40       1.0  0.44163  0.12300  0.70225  1.0000
  C   C41       1.0  0.66184  0.84921  0.09441  1.0000
  C   C42       1.0  0.83816  0.15079  0.09441  1.0000
  C   C43       1.0  0.83816  0.34921  0.40559  1.0000
  C   C44       1.0  0.66184  0.65079  0.40559  1.0000
  C   C45       1.0  0.33816  0.15079  0.90559  1.0000
  C   C46       1.0  0.16184  0.84921  0.90559  1.0000
  C   C47       1.0  0.16184  0.65079  0.59441  1.0000
  C   C48       1.0  0.33815  0.34921  0.59441  1.0000
  C   C49       1.0  0.55000  0.94762  0.00890  1.0000
  C   C50       1.0  0.95000  0.05238  0.00890  1.0000
  C   C51       1.0  0.95000  0.44762  0.49110  1.0000
  C   C52       1.0  0.55000  0.55238  0.49110  1.0000
  C   C53       1.0  0.45000  0.05238  0.99110  1.0000
  C   C54       1.0  0.05000  0.94762  0.99110  1.0000
  C   C55       1.0  0.05000  0.55238  0.50890  1.0000
  C   C56       1.0  0.45000  0.44762  0.50890  1.0000
  Br  Br1       1.0  0.01715  0.59159  0.30178  1.0000
  Br  Br2       1.0  0.48285  0.40841  0.30178  1.0000
  Br  Br3       1.0  0.48285  0.09159  0.19821  1.0000
  Br  Br4       1.0  0.01715  0.90841  0.19822  1.0000
  Br  Br5       1.0  0.98285  0.40841  0.69822  1.0000
  Br  Br6       1.0  0.51715  0.59159  0.69822  1.0000
  Br  Br7       1.0  0.51715  0.90841  0.80179  1.0000
  Br  Br8       1.0  0.98285  0.09159  0.80178  1.0000
  N   N1        1.0  0.38027  0.60988  0.19725  1.0000
  N   N2        1.0  0.11973  0.39012  0.19725  1.0000
  N   N3        1.0  0.11973  0.10988  0.30275  1.0000
  N   N4        1.0  0.38027  0.89012  0.30275  1.0000
  N   N5        1.0  0.61973  0.39011  0.80275  1.0000
  N   N6        1.0  0.88027  0.60988  0.80275  1.0000
  N   N7        1.0  0.88027  0.89012  0.69725  1.0000
  N   N8        1.0  0.61973  0.10988  0.69725  1.0000
  N   N9        1.0  0.55623  0.93393  0.06743  1.0000
  N   N10       1.0  0.94377  0.06607  0.06743  1.0000
  N   N11       1.0  0.94377  0.43393  0.43257  1.0000
  N   N12       1.0  0.55623  0.56606  0.43257  1.0000
  N   N13       1.0  0.44377  0.06606  0.93257  1.0000
  N   N14       1.0  0.05623  0.93394  0.93257  1.0000
  N   N15       1.0  0.05623  0.56606  0.56743  1.0000
  N   N16       1.0  0.44377  0.43393  0.56743  1.0000
  O   O1        1.0  0.61750  0.88554  0.97184  1.0000
  O   O2        1.0  0.88250  0.11446  0.97184  1.0000
  O   O3        1.0  0.88250  0.38554  0.52816  1.0000
  O   O4        1.0  0.61750  0.61446  0.52816  1.0000
  O   O5        1.0  0.38250  0.11446  0.02816  1.0000
  O   O6        1.0  0.11750  0.88554  0.02816  1.0000
  O   O7        1.0  0.11750  0.61446  0.47184  1.0000
  O   O8        1.0  0.38250  0.38554  0.47184  1.0000
