data_image0
_chemical_formula_structural       Zn4H36C28Br4N8O20
_chemical_formula_sum              "Zn4 H36 C28 Br4 N8 O20"
_cell_length_a       6.20096
_cell_length_b       9.99348
_cell_length_c       19.0182
_cell_angle_alpha    101.074
_cell_angle_beta     90
_cell_angle_gamma    90.0001

_space_group_name_H-M_alt    "P 1"
_space_group_IT_number       1

loop_
  _space_group_symop_operation_xyz
  'x, y, z'

loop_
  _atom_site_type_symbol
  _atom_site_label
  _atom_site_symmetry_multiplicity
  _atom_site_fract_x
  _atom_site_fract_y
  _atom_site_fract_z
  _atom_site_occupancy
  Zn  Zn1       1.0  0.57643  0.05832  0.89385  1.0000
  Zn  Zn2       1.0  0.07640  0.44169  0.60616  1.0000
  Zn  Zn3       1.0  0.42359  0.94168  0.10615  1.0000
  Zn  Zn4       1.0  0.92358  0.55832  0.39385  1.0000
  H   H1        1.0  0.08642  0.82993  0.98565  1.0000
  H   H2        1.0  0.58640  0.67006  0.51435  1.0000
  H   H3        1.0  0.91359  0.17007  0.01436  1.0000
  H   H4        1.0  0.41357  0.32993  0.48565  1.0000
  H   H5        1.0  0.87211  0.72996  0.00901  1.0000
  H   H6        1.0  0.37209  0.77002  0.49099  1.0000
  H   H7        1.0  0.12791  0.27004  0.99099  1.0000
  H   H8        1.0  0.62790  0.22997  0.50901  1.0000
  H   H9        1.0  0.33382  0.72380  0.87751  1.0000
  H   H10       1.0  0.83382  0.77619  0.62248  1.0000
  H   H11       1.0  0.66618  0.27621  0.12249  1.0000
  H   H12       1.0  0.16617  0.22379  0.37751  1.0000
  H   H13       1.0  0.81495  0.48802  0.93566  1.0000
  H   H14       1.0  0.31494  0.01197  0.56434  1.0000
  H   H15       1.0  0.18507  0.51198  0.06434  1.0000
  H   H16       1.0  0.68505  0.98802  0.43566  1.0000
  H   H17       1.0  0.09068  0.31774  0.84390  1.0000
  H   H18       1.0  0.59067  0.18226  0.65610  1.0000
  H   H19       1.0  0.90934  0.68227  0.15610  1.0000
  H   H20       1.0  0.40934  0.81772  0.34390  1.0000
  H   H21       1.0  0.50316  0.36782  0.80890  1.0000
  H   H22       1.0  0.00316  0.13217  0.69109  1.0000
  H   H23       1.0  0.49685  0.63219  0.19110  1.0000
  H   H24       1.0  0.99686  0.86780  0.30890  1.0000
  H   H25       1.0  0.56617  0.53983  0.80582  1.0000
  H   H26       1.0  0.06616  0.96017  0.69417  1.0000
  H   H27       1.0  0.43384  0.46018  0.19418  1.0000
  H   H28       1.0  0.93384  0.03981  0.30582  1.0000
  H   H29       1.0  0.16744  0.02284  0.87457  1.0000
  H   H30       1.0  0.66743  0.47716  0.62543  1.0000
  H   H31       1.0  0.83257  0.97716  0.12543  1.0000
  H   H32       1.0  0.33255  0.52285  0.37457  1.0000
  H   H33       1.0  0.24288  0.00443  0.95372  1.0000
  H   H34       1.0  0.74287  0.49558  0.54628  1.0000
  H   H35       1.0  0.75712  0.99558  0.04628  1.0000
  H   H36       1.0  0.25712  0.50443  0.45372  1.0000
  C   C1        1.0  0.79312  0.83139  0.92312  1.0000
  C   C2        1.0  0.29311  0.66862  0.57689  1.0000
  C   C3        1.0  0.20689  0.16862  0.07689  1.0000
  C   C4        1.0  0.70686  0.33140  0.42311  1.0000
  C   C5        1.0  0.95643  0.76055  0.96373  1.0000
  C   C6        1.0  0.45643  0.73945  0.53627  1.0000
  C   C7        1.0  0.04357  0.23945  0.03627  1.0000
  C   C8        1.0  0.54357  0.26055  0.46373  1.0000
  C   C9        1.0  0.23019  0.63753  0.88072  1.0000
  C   C10       1.0  0.73017  0.86247  0.61928  1.0000
  C   C11       1.0  0.76984  0.36248  0.11929  1.0000
  C   C12       1.0  0.26981  0.13752  0.38072  1.0000
  C   C13       1.0  0.96265  0.51025  0.90967  1.0000
  C   C14       1.0  0.46264  0.98974  0.59033  1.0000
  C   C15       1.0  0.03737  0.48975  0.09033  1.0000
  C   C16       1.0  0.53735  0.01025  0.40967  1.0000
  C   C17       1.0  0.09774  0.42679  0.86428  1.0000
  C   C18       1.0  0.59773  0.07320  0.63571  1.0000
  C   C19       1.0  0.90227  0.57322  0.13571  1.0000
  C   C20       1.0  0.40227  0.92678  0.36428  1.0000
  C   C21       1.0  0.43695  0.46311  0.79706  1.0000
  C   C22       1.0  0.93694  0.03689  0.70293  1.0000
  C   C23       1.0  0.56306  0.53691  0.20294  1.0000
  C   C24       1.0  0.06306  0.96309  0.29706  1.0000
  C   C25       1.0  0.36520  0.44041  0.71866  1.0000
  C   C26       1.0  0.86523  0.05959  0.78134  1.0000
  C   C27       1.0  0.63478  0.55960  0.28134  1.0000
  C   C28       1.0  0.13478  0.94040  0.21866  1.0000
  Br  Br1       1.0  0.54062  0.29291  0.94954  1.0000
  Br  Br2       1.0  0.04058  0.20707  0.55046  1.0000
  Br  Br3       1.0  0.45939  0.70710  0.05046  1.0000
  Br  Br4       1.0  0.95939  0.79292  0.44955  1.0000
  N   N1        1.0  0.04855  0.64012  0.91932  1.0000
  N   N2        1.0  0.54855  0.85987  0.58068  1.0000
  N   N3        1.0  0.95147  0.35988  0.08069  1.0000
  N   N4        1.0  0.45145  0.14012  0.41931  1.0000
  N   N5        1.0  0.26286  0.50825  0.84720  1.0000
  N   N6        1.0  0.76285  0.99175  0.65279  1.0000
  N   N7        1.0  0.73714  0.49176  0.15280  1.0000
  N   N8        1.0  0.23714  0.00823  0.34721  1.0000
  O   O1        1.0  0.75280  0.95721  0.95527  1.0000
  O   O2        1.0  0.25280  0.54280  0.54474  1.0000
  O   O3        1.0  0.24720  0.04281  0.04474  1.0000
  O   O4        1.0  0.74719  0.45721  0.45526  1.0000
  O   O5        1.0  0.70980  0.77322  0.86643  1.0000
  O   O6        1.0  0.20981  0.72678  0.63357  1.0000
  O   O7        1.0  0.29019  0.22678  0.13357  1.0000
  O   O8        1.0  0.79016  0.27323  0.36643  1.0000
  O   O9        1.0  0.50645  0.39869  0.67212  1.0000
  O   O10       1.0  0.00652  0.10129  0.82786  1.0000
  O   O11       1.0  0.49351  0.60132  0.32787  1.0000
  O   O12       1.0  0.99352  0.89869  0.17212  1.0000
  O   O13       1.0  0.16702  0.46426  0.70709  1.0000
  O   O14       1.0  0.66704  0.03575  0.79292  1.0000
  O   O15       1.0  0.83297  0.53577  0.29292  1.0000
  O   O16       1.0  0.33297  0.96425  0.20709  1.0000
  O   O17       1.0  0.27727  0.97848  0.90137  1.0000
  O   O18       1.0  0.77725  0.52153  0.59863  1.0000
  O   O19       1.0  0.72275  0.02153  0.09863  1.0000
  O   O20       1.0  0.22274  0.47848  0.40137  1.0000
