data_image0
_chemical_formula_structural       Ag4H16C16N12O8
_chemical_formula_sum              "Ag4 H16 C16 N12 O8"
_cell_length_a       5.90199
_cell_length_b       7.23432
_cell_length_c       14.4366
_cell_angle_alpha    89.9981
_cell_angle_beta     90.0054
_cell_angle_gamma    90.0035

_space_group_name_H-M_alt    "P 1"
_space_group_IT_number       1

loop_
  _space_group_symop_operation_xyz
  'x, y, z'

loop_
  _atom_site_type_symbol
  _atom_site_label
  _atom_site_symmetry_multiplicity
  _atom_site_fract_x
  _atom_site_fract_y
  _atom_site_fract_z
  _atom_site_occupancy
  Ag  Ag1       1.0  0.46858  0.25011  0.14136  1.0000
  Ag  Ag2       1.0  0.03143  0.74992  0.64136  1.0000
  Ag  Ag3       1.0  0.96857  0.25008  0.35864  1.0000
  Ag  Ag4       1.0  0.53146  0.74983  0.85863  1.0000
  H   H1        1.0  0.12421  0.57528  0.18589  1.0000
  H   H2        1.0  0.37574  0.42479  0.68585  1.0000
  H   H3        1.0  0.62425  0.92484  0.31414  1.0000
  H   H4        1.0  0.87569  0.07520  0.81414  1.0000
  H   H5        1.0  0.87571  0.42471  0.81414  1.0000
  H   H6        1.0  0.62423  0.57524  0.31414  1.0000
  H   H7        1.0  0.37574  0.07519  0.68584  1.0000
  H   H8        1.0  0.12426  0.92486  0.18587  1.0000
  H   H9        1.0  0.75002  0.57664  0.05279  1.0000
  H   H10       1.0  0.74997  0.42339  0.55278  1.0000
  H   H11       1.0  0.25015  0.92373  0.44723  1.0000
  H   H12       1.0  0.24991  0.07626  0.94722  1.0000
  H   H13       1.0  0.25004  0.42333  0.94720  1.0000
  H   H14       1.0  0.25007  0.57663  0.44723  1.0000
  H   H15       1.0  0.74988  0.07630  0.55277  1.0000
  H   H16       1.0  0.75015  0.92375  0.05277  1.0000
  C   C1        1.0  0.26497  0.65403  0.15696  1.0000
  C   C2        1.0  0.23499  0.34600  0.65692  1.0000
  C   C3        1.0  0.76501  0.84607  0.34306  1.0000
  C   C4        1.0  0.73497  0.15393  0.84304  1.0000
  C   C5        1.0  0.73497  0.34594  0.84306  1.0000
  C   C6        1.0  0.76502  0.65400  0.34305  1.0000
  C   C7        1.0  0.23500  0.15398  0.65693  1.0000
  C   C8        1.0  0.26502  0.84607  0.15698  1.0000
  C   C9        1.0  0.61012  0.65393  0.08337  1.0000
  C   C10       1.0  0.88983  0.34608  0.58335  1.0000
  C   C11       1.0  0.11023  0.84646  0.41664  1.0000
  C   C12       1.0  0.38984  0.15351  0.91661  1.0000
  C   C13       1.0  0.38987  0.34604  0.91662  1.0000
  C   C14       1.0  0.11021  0.65391  0.41663  1.0000
  C   C15       1.0  0.88981  0.15356  0.58336  1.0000
  C   C16       1.0  0.61019  0.84649  0.08340  1.0000
  N   N1        1.0  0.43762  0.55695  0.12013  1.0000
  N   N2        1.0  0.06233  0.44307  0.62007  1.0000
  N   N3        1.0  0.93760  0.94325  0.37989  1.0000
  N   N4        1.0  0.56245  0.05671  0.87986  1.0000
  N   N5        1.0  0.56234  0.44300  0.87989  1.0000
  N   N6        1.0  0.93766  0.55695  0.37991  1.0000
  N   N7        1.0  0.06242  0.05677  0.62012  1.0000
  N   N8        1.0  0.43754  0.94328  0.12013  1.0000
  N   N9        1.0  0.50333  0.25012  0.37987  1.0000
  N   N10       1.0  0.99673  0.74992  0.87987  1.0000
  N   N11       1.0  0.00333  0.25007  0.12014  1.0000
  N   N12       1.0  0.49659  0.74989  0.62014  1.0000
  O   O1        1.0  0.41185  0.25014  0.45820  1.0000
  O   O2        1.0  0.08834  0.74994  0.95819  1.0000
  O   O3        1.0  0.91180  0.25001  0.04181  1.0000
  O   O4        1.0  0.58800  0.74979  0.54180  1.0000
  O   O5        1.0  0.36726  0.24995  0.31038  1.0000
  O   O6        1.0  0.13274  0.74999  0.81037  1.0000
  O   O7        1.0  0.86725  0.25004  0.18962  1.0000
  O   O8        1.0  0.63273  0.75006  0.68961  1.0000
