data_image0
_chemical_formula_structural       Zn4H56C44N8O16
_chemical_formula_sum              "Zn4 H56 C44 N8 O16"
_cell_length_a       8.62284
_cell_length_b       8.62286
_cell_length_c       17.4358
_cell_angle_alpha    88.837
_cell_angle_beta     88.8371
_cell_angle_gamma    73.0416

_space_group_name_H-M_alt    "P 1"
_space_group_IT_number       1

loop_
  _space_group_symop_operation_xyz
  'x, y, z'

loop_
  _atom_site_type_symbol
  _atom_site_label
  _atom_site_symmetry_multiplicity
  _atom_site_fract_x
  _atom_site_fract_y
  _atom_site_fract_z
  _atom_site_occupancy
  Zn  Zn1       1.0  0.56704  0.97345  0.07567  1.0000
  Zn  Zn2       1.0  0.02655  0.43296  0.42433  1.0000
  Zn  Zn3       1.0  0.43296  0.02655  0.92433  1.0000
  Zn  Zn4       1.0  0.97345  0.56704  0.57567  1.0000
  H   H1        1.0  0.29939  0.60575  0.96492  1.0000
  H   H2        1.0  0.39425  0.70061  0.53508  1.0000
  H   H3        1.0  0.70061  0.39424  0.03508  1.0000
  H   H4        1.0  0.60575  0.29939  0.46492  1.0000
  H   H5        1.0  0.14301  0.51866  0.94586  1.0000
  H   H6        1.0  0.48134  0.85699  0.55414  1.0000
  H   H7        1.0  0.85699  0.48134  0.05414  1.0000
  H   H8        1.0  0.51866  0.14301  0.44586  1.0000
  H   H9        1.0  0.22199  0.77673  0.18979  1.0000
  H   H10       1.0  0.22327  0.77801  0.31021  1.0000
  H   H11       1.0  0.77801  0.22327  0.81021  1.0000
  H   H12       1.0  0.77674  0.22199  0.68978  1.0000
  H   H13       1.0  0.06780  0.68557  0.17046  1.0000
  H   H14       1.0  0.31443  0.93220  0.32954  1.0000
  H   H15       1.0  0.93220  0.31443  0.82954  1.0000
  H   H16       1.0  0.68557  0.06780  0.67046  1.0000
  H   H17       1.0  0.01931  0.93116  0.09278  1.0000
  H   H18       1.0  0.06885  0.98069  0.40722  1.0000
  H   H19       1.0  0.98069  0.06884  0.90722  1.0000
  H   H20       1.0  0.93116  0.01931  0.59278  1.0000
  H   H21       1.0  0.41386  0.58362  0.10216  1.0000
  H   H22       1.0  0.41638  0.58614  0.39784  1.0000
  H   H23       1.0  0.58614  0.41638  0.89784  1.0000
  H   H24       1.0  0.58362  0.41386  0.60216  1.0000
  H   H25       1.0  0.33802  0.47675  0.17408  1.0000
  H   H26       1.0  0.52325  0.66198  0.32591  1.0000
  H   H27       1.0  0.66198  0.52325  0.82591  1.0000
  H   H28       1.0  0.47675  0.33802  0.67409  1.0000
  H   H29       1.0  0.12773  0.44550  0.08418  1.0000
  H   H30       1.0  0.55450  0.87227  0.41582  1.0000
  H   H31       1.0  0.87227  0.55450  0.91582  1.0000
  H   H32       1.0  0.44550  0.12773  0.58418  1.0000
  H   H33       1.0  0.81077  0.69428  0.32390  1.0000
  H   H34       1.0  0.30572  0.18924  0.17610  1.0000
  H   H35       1.0  0.18923  0.30572  0.67610  1.0000
  H   H36       1.0  0.69428  0.81076  0.82390  1.0000
  H   H37       1.0  0.68468  0.66792  0.19443  1.0000
  H   H38       1.0  0.33208  0.31532  0.30557  1.0000
  H   H39       1.0  0.31532  0.33208  0.80557  1.0000
  H   H40       1.0  0.66792  0.68468  0.69443  1.0000
  H   H41       1.0  0.72001  0.14402  0.20385  1.0000
  H   H42       1.0  0.85598  0.27999  0.29615  1.0000
  H   H43       1.0  0.27999  0.85598  0.79615  1.0000
  H   H44       1.0  0.14402  0.72001  0.70385  1.0000
  H   H45       1.0  0.85841  0.97219  0.33579  1.0000
  H   H46       1.0  0.02781  0.14160  0.16421  1.0000
  H   H47       1.0  0.14159  0.02781  0.66421  1.0000
  H   H48       1.0  0.97219  0.85841  0.83579  1.0000
  H   H49       1.0  0.95130  0.71695  0.03078  1.0000
  H   H50       1.0  0.28306  0.04870  0.46922  1.0000
  H   H51       1.0  0.04870  0.28305  0.96922  1.0000
  H   H52       1.0  0.71695  0.95130  0.53078  1.0000
  H   H53       1.0  0.03563  0.82099  0.96098  1.0000
  H   H54       1.0  0.17901  0.96437  0.53902  1.0000
  H   H55       1.0  0.96437  0.17901  0.03902  1.0000
  H   H56       1.0  0.82099  0.03563  0.46098  1.0000
  C   C1        1.0  0.35031  0.30234  0.04167  1.0000
  C   C2        1.0  0.69766  0.64969  0.45834  1.0000
  C   C3        1.0  0.64969  0.69766  0.95834  1.0000
  C   C4        1.0  0.30234  0.35031  0.54166  1.0000
  C   C5        1.0  0.25699  0.90067  0.04936  1.0000
  C   C6        1.0  0.09933  0.74301  0.45064  1.0000
  C   C7        1.0  0.74301  0.09932  0.95064  1.0000
  C   C8        1.0  0.90068  0.25699  0.54936  1.0000
  C   C9        1.0  0.19042  0.58101  0.99003  1.0000
  C   C10       1.0  0.41899  0.80958  0.50997  1.0000
  C   C11       1.0  0.80958  0.41899  0.00997  1.0000
  C   C12       1.0  0.58101  0.19042  0.49003  1.0000
  C   C13       1.0  0.17513  0.71414  0.14573  1.0000
  C   C14       1.0  0.28586  0.82487  0.35427  1.0000
  C   C15       1.0  0.82487  0.28586  0.85427  1.0000
  C   C16       1.0  0.71414  0.17513  0.64573  1.0000
  C   C17       1.0  0.12270  0.82714  0.07587  1.0000
  C   C18       1.0  0.17286  0.87729  0.42413  1.0000
  C   C19       1.0  0.87730  0.17286  0.92413  1.0000
  C   C20       1.0  0.82714  0.12271  0.57587  1.0000
  C   C21       1.0  0.30314  0.55653  0.12358  1.0000
  C   C22       1.0  0.44347  0.69686  0.37642  1.0000
  C   C23       1.0  0.69686  0.44347  0.87642  1.0000
  C   C24       1.0  0.55653  0.30314  0.62358  1.0000
  C   C25       1.0  0.23894  0.47028  0.06079  1.0000
  C   C26       1.0  0.52972  0.76106  0.43922  1.0000
  C   C27       1.0  0.76106  0.52972  0.93922  1.0000
  C   C28       1.0  0.47028  0.23894  0.56078  1.0000
  C   C29       1.0  0.71190  0.77505  0.21454  1.0000
  C   C30       1.0  0.22495  0.28810  0.28546  1.0000
  C   C31       1.0  0.28810  0.22495  0.78546  1.0000
  C   C32       1.0  0.77505  0.71190  0.71454  1.0000
  C   C33       1.0  0.73351  0.01994  0.22209  1.0000
  C   C34       1.0  0.98006  0.26649  0.27791  1.0000
  C   C35       1.0  0.26649  0.98006  0.77791  1.0000
  C   C36       1.0  0.01995  0.73351  0.72209  1.0000
  C   C37       1.0  0.80108  0.93690  0.28721  1.0000
  C   C38       1.0  0.06310  0.19892  0.21279  1.0000
  C   C39       1.0  0.19892  0.06310  0.71279  1.0000
  C   C40       1.0  0.93690  0.80108  0.78721  1.0000
  C   C41       1.0  0.06479  0.74029  0.01139  1.0000
  C   C42       1.0  0.25972  0.93521  0.48861  1.0000
  C   C43       1.0  0.93521  0.25971  0.98861  1.0000
  C   C44       1.0  0.74028  0.06479  0.51139  1.0000
  N   N1        1.0  0.67853  0.91728  0.17726  1.0000
  N   N2        1.0  0.08272  0.32147  0.32274  1.0000
  N   N3        1.0  0.32147  0.08272  0.82274  1.0000
  N   N4        1.0  0.91728  0.67853  0.67726  1.0000
  N   N5        1.0  0.78645  0.78294  0.28108  1.0000
  N   N6        1.0  0.21706  0.21355  0.21892  1.0000
  N   N7        1.0  0.21355  0.21706  0.71892  1.0000
  N   N8        1.0  0.78294  0.78645  0.78108  1.0000
  O   O1        1.0  0.35130  0.92348  0.10041  1.0000
  O   O2        1.0  0.07652  0.64870  0.39959  1.0000
  O   O3        1.0  0.64870  0.07652  0.89959  1.0000
  O   O4        1.0  0.92348  0.35130  0.60041  1.0000
  O   O5        1.0  0.35234  0.25512  0.97319  1.0000
  O   O6        1.0  0.74488  0.64766  0.52681  1.0000
  O   O7        1.0  0.64766  0.74488  0.02680  1.0000
  O   O8        1.0  0.25512  0.35234  0.47319  1.0000
  O   O9        1.0  0.43023  0.21615  0.09671  1.0000
  O   O10       1.0  0.78385  0.56977  0.40330  1.0000
  O   O11       1.0  0.56977  0.78385  0.90329  1.0000
  O   O12       1.0  0.21615  0.43023  0.59671  1.0000
  O   O13       1.0  0.26401  0.93723  0.97848  1.0000
  O   O14       1.0  0.06277  0.73599  0.52152  1.0000
  O   O15       1.0  0.73599  0.06277  0.02151  1.0000
  O   O16       1.0  0.93723  0.26401  0.47848  1.0000
