data_image0
_chemical_formula_structural       Mg2Ag2H36C36N6O12
_chemical_formula_sum              "Mg2 Ag2 H36 C36 N6 O12"
_cell_length_a       10.7506
_cell_length_b       11.4129
_cell_length_c       14.2188
_cell_angle_alpha    98.6068
_cell_angle_beta     107.112
_cell_angle_gamma    113.794

_space_group_name_H-M_alt    "P 1"
_space_group_IT_number       1

loop_
  _space_group_symop_operation_xyz
  'x, y, z'

loop_
  _atom_site_type_symbol
  _atom_site_label
  _atom_site_symmetry_multiplicity
  _atom_site_fract_x
  _atom_site_fract_y
  _atom_site_fract_z
  _atom_site_occupancy
  Mg  Mg1       1.0  0.24632  0.56641  0.32365  1.0000
  Mg  Mg2       1.0  0.75368  0.43359  0.67635  1.0000
  Ag  Ag1       1.0  0.54732  0.86962  0.94444  1.0000
  Ag  Ag2       1.0  0.45268  0.13038  0.05557  1.0000
  H   H1        1.0  0.67631  0.68304  0.58204  1.0000
  H   H2        1.0  0.32369  0.31697  0.41797  1.0000
  H   H3        1.0  0.60567  0.63817  0.67680  1.0000
  H   H4        1.0  0.39433  0.36184  0.32320  1.0000
  H   H5        1.0  0.66554  0.80483  0.67088  1.0000
  H   H6        1.0  0.33446  0.19518  0.32912  1.0000
  H   H7        1.0  0.03390  0.69887  0.51774  1.0000
  H   H8        1.0  0.96610  0.30113  0.48225  1.0000
  H   H9        1.0  0.18426  0.77442  0.64242  1.0000
  H   H10       1.0  0.81574  0.22558  0.35758  1.0000
  H   H11       1.0  0.06417  0.59922  0.59787  1.0000
  H   H12       1.0  0.93583  0.40078  0.40213  1.0000
  H   H13       1.0  0.99222  0.07972  0.19180  1.0000
  H   H14       1.0  0.00778  0.92027  0.80821  1.0000
  H   H15       1.0  0.83869  0.07210  0.21708  1.0000
  H   H16       1.0  0.16131  0.92789  0.78292  1.0000
  H   H17       1.0  0.01430  0.13488  0.32245  1.0000
  H   H18       1.0  0.98569  0.86512  0.67755  1.0000
  H   H19       1.0  0.88137  0.53995  0.04869  1.0000
  H   H20       1.0  0.11863  0.46005  0.95131  1.0000
  H   H21       1.0  0.73337  0.38773  0.04433  1.0000
  H   H22       1.0  0.26664  0.61227  0.95568  1.0000
  H   H23       1.0  0.83981  0.37963  0.97198  1.0000
  H   H24       1.0  0.16019  0.62036  0.02802  1.0000
  H   H25       1.0  0.43587  0.38696  0.13468  1.0000
  H   H26       1.0  0.56414  0.61305  0.86532  1.0000
  H   H27       1.0  0.57172  0.53731  0.12699  1.0000
  H   H28       1.0  0.42829  0.46270  0.87302  1.0000
  H   H29       1.0  0.38680  0.45804  0.03570  1.0000
  H   H30       1.0  0.61321  0.54197  0.96430  1.0000
  H   H31       1.0  0.45266  0.94655  0.18779  1.0000
  H   H32       1.0  0.54735  0.05345  0.81221  1.0000
  H   H33       1.0  0.62316  0.98123  0.28163  1.0000
  H   H34       1.0  0.37683  0.01876  0.71837  1.0000
  H   H35       1.0  0.48431  0.99349  0.32198  1.0000
  H   H36       1.0  0.51570  0.00651  0.67802  1.0000
  C   C1        1.0  0.61057  0.69888  0.62341  1.0000
  C   C2        1.0  0.38943  0.30113  0.37660  1.0000
  C   C3        1.0  0.45866  0.65909  0.54781  1.0000
  C   C4        1.0  0.54134  0.34091  0.45220  1.0000
  C   C5        1.0  0.35701  0.68077  0.58700  1.0000
  C   C6        1.0  0.64299  0.31922  0.41300  1.0000
  C   C7        1.0  0.21465  0.66148  0.52241  1.0000
  C   C8        1.0  0.78534  0.33852  0.47759  1.0000
  C   C9        1.0  0.11917  0.68621  0.57316  1.0000
  C   C10       1.0  0.88084  0.31380  0.42684  1.0000
  C   C11       1.0  0.40236  0.72578  0.69438  1.0000
  C   C12       1.0  0.59763  0.27422  0.30562  1.0000
  C   C13       1.0  0.95900  0.13181  0.24332  1.0000
  C   C14       1.0  0.04100  0.86819  0.75668  1.0000
  C   C15       1.0  0.00667  0.27377  0.23819  1.0000
  C   C16       1.0  0.99333  0.72623  0.76181  1.0000
  C   C17       1.0  0.91860  0.29588  0.15127  1.0000
  C   C18       1.0  0.08141  0.70411  0.84872  1.0000
  C   C19       1.0  0.95314  0.42623  0.13648  1.0000
  C   C20       1.0  0.04686  0.57376  0.86352  1.0000
  C   C21       1.0  0.84554  0.43436  0.04508  1.0000
  C   C22       1.0  0.15446  0.56564  0.95492  1.0000
  C   C23       1.0  0.78942  0.18470  0.07827  1.0000
  C   C24       1.0  0.21059  0.81529  0.92173  1.0000
  C   C25       1.0  0.45605  0.48164  0.11737  1.0000
  C   C26       1.0  0.54396  0.51837  0.88263  1.0000
  C   C27       1.0  0.41590  0.56208  0.18566  1.0000
  C   C28       1.0  0.58409  0.43792  0.81434  1.0000
  C   C29       1.0  0.46698  0.70271  0.19492  1.0000
  C   C30       1.0  0.53302  0.29729  0.80508  1.0000
  C   C31       1.0  0.43918  0.79166  0.25981  1.0000
  C   C32       1.0  0.56082  0.20834  0.74019  1.0000
  C   C33       1.0  0.50401  0.93728  0.26370  1.0000
  C   C34       1.0  0.49599  0.06271  0.73630  1.0000
  C   C35       1.0  0.54191  0.75600  0.13360  1.0000
  C   C36       1.0  0.45808  0.24399  0.86640  1.0000
  N   N1        1.0  0.44156  0.76276  0.78457  1.0000
  N   N2        1.0  0.55843  0.23724  0.21542  1.0000
  N   N3        1.0  0.67934  0.09132  0.01774  1.0000
  N   N4        1.0  0.32067  0.90867  0.98226  1.0000
  N   N5        1.0  0.60140  0.80177  0.08044  1.0000
  N   N6        1.0  0.39860  0.19823  0.91956  1.0000
  O   O1        1.0  0.42478  0.60934  0.45324  1.0000
  O   O2        1.0  0.57523  0.39067  0.54676  1.0000
  O   O3        1.0  0.16497  0.62375  0.42502  1.0000
  O   O4        1.0  0.83503  0.37626  0.57498  1.0000
  O   O5        1.0  0.12218  0.36729  0.30969  1.0000
  O   O6        1.0  0.87782  0.63271  0.69032  1.0000
  O   O7        1.0  0.06773  0.53251  0.19587  1.0000
  O   O8        1.0  0.93226  0.46748  0.80413  1.0000
  O   O9        1.0  0.33745  0.50220  0.23107  1.0000
  O   O10       1.0  0.66255  0.49779  0.76892  1.0000
  O   O11       1.0  0.36286  0.75327  0.31178  1.0000
  O   O12       1.0  0.63712  0.24673  0.68821  1.0000
