data_image0
_chemical_formula_structural       V4Cd4H16C4N4O14
_chemical_formula_sum              "V4 Cd4 H16 C4 N4 O14"
_cell_length_a       5.15509
_cell_length_b       6.34588
_cell_length_c       14.7116
_cell_angle_alpha    90
_cell_angle_beta     90
_cell_angle_gamma    90.0011

_space_group_name_H-M_alt    "P 1"
_space_group_IT_number       1

loop_
  _space_group_symop_operation_xyz
  'x, y, z'

loop_
  _atom_site_type_symbol
  _atom_site_label
  _atom_site_symmetry_multiplicity
  _atom_site_fract_x
  _atom_site_fract_y
  _atom_site_fract_z
  _atom_site_occupancy
  V   V1        1.0  0.53791  0.50000  0.87872  1.0000
  V   V2        1.0  0.46209  0.50000  0.12128  1.0000
  V   V3        1.0  0.96209  0.00000  0.37872  1.0000
  V   V4        1.0  0.03791  0.00000  0.62128  1.0000
  Cd  Cd1       1.0  0.10995  0.50001  0.72782  1.0000
  Cd  Cd2       1.0  0.89005  0.50000  0.27218  1.0000
  Cd  Cd3       1.0  0.39005  0.99999  0.22782  1.0000
  Cd  Cd4       1.0  0.60995  0.00000  0.77218  1.0000
  H   H1        1.0  0.26062  0.36013  0.51444  1.0000
  H   H2        1.0  0.73939  0.36016  0.48556  1.0000
  H   H3        1.0  0.23938  0.13987  0.01444  1.0000
  H   H4        1.0  0.76060  0.13984  0.98556  1.0000
  H   H5        1.0  0.73938  0.63987  0.48556  1.0000
  H   H6        1.0  0.26060  0.63985  0.51445  1.0000
  H   H7        1.0  0.76062  0.86013  0.98556  1.0000
  H   H8        1.0  0.23940  0.86016  0.01445  1.0000
  H   H9        1.0  0.55952  0.37069  0.64080  1.0000
  H   H10       1.0  0.44048  0.37069  0.35920  1.0000
  H   H11       1.0  0.94048  0.12931  0.14080  1.0000
  H   H12       1.0  0.05952  0.12931  0.85920  1.0000
  H   H13       1.0  0.44048  0.62932  0.35919  1.0000
  H   H14       1.0  0.55953  0.62931  0.64080  1.0000
  H   H15       1.0  0.05953  0.87068  0.85920  1.0000
  H   H16       1.0  0.94047  0.87069  0.14080  1.0000
  C   C1        1.0  0.37869  0.50000  0.52976  1.0000
  C   C2        1.0  0.62130  0.50001  0.47024  1.0000
  C   C3        1.0  0.12131  1.00000  0.02976  1.0000
  C   C4        1.0  0.87870  0.99999  0.97024  1.0000
  N   N1        1.0  0.44484  0.49999  0.62716  1.0000
  N   N2        1.0  0.55516  0.50000  0.37284  1.0000
  N   N3        1.0  0.05516  0.00001  0.12716  1.0000
  N   N4        1.0  0.94484  1.00000  0.87284  1.0000
  O   O1        1.0  0.39247  0.28215  0.83112  1.0000
  O   O2        1.0  0.60753  0.28215  0.16888  1.0000
  O   O3        1.0  0.10753  0.21785  0.33112  1.0000
  O   O4        1.0  0.89247  0.21785  0.66888  1.0000
  O   O5        1.0  0.60753  0.71785  0.16888  1.0000
  O   O6        1.0  0.39247  0.71785  0.83112  1.0000
  O   O7        1.0  0.89247  0.78215  0.66888  1.0000
  O   O8        1.0  0.10753  0.78216  0.33112  1.0000
  O   O9        1.0  0.85379  0.50000  0.85172  1.0000
  O   O10       1.0  0.14622  0.49999  0.14828  1.0000
  O   O11       1.0  0.64621  1.00000  0.35172  1.0000
  O   O12       1.0  0.35378  0.00001  0.64828  1.0000
  O   O13       1.0  0.50000  0.50000  0.00000  1.0000
  O   O14       1.0  1.00000  0.00000  0.50000  1.0000
