data_image0
_chemical_formula_structural       Cu2H16C18N16
_chemical_formula_sum              "Cu2 H16 C18 N16"
_cell_length_a       7.37479
_cell_length_b       8.58048
_cell_length_c       10.3572
_cell_angle_alpha    102.604
_cell_angle_beta     93.6866
_cell_angle_gamma    112.966

_space_group_name_H-M_alt    "P 1"
_space_group_IT_number       1

loop_
  _space_group_symop_operation_xyz
  'x, y, z'

loop_
  _atom_site_type_symbol
  _atom_site_label
  _atom_site_symmetry_multiplicity
  _atom_site_fract_x
  _atom_site_fract_y
  _atom_site_fract_z
  _atom_site_occupancy
  Cu  Cu1       1.0  1.00000  0.00000  1.00000  1.0000
  Cu  Cu2       1.0  0.50000  0.99999  0.50000  1.0000
  H   H1        1.0  0.83839  0.72485  0.13316  1.0000
  H   H2        1.0  0.16162  0.27515  0.86684  1.0000
  H   H3        1.0  0.66967  0.31774  0.77593  1.0000
  H   H4        1.0  0.33033  0.68227  0.22406  1.0000
  H   H5        1.0  0.89560  0.78996  0.70109  1.0000
  H   H6        1.0  0.10441  0.21005  0.29891  1.0000
  H   H7        1.0  0.67693  0.59358  0.62615  1.0000
  H   H8        1.0  0.32308  0.40643  0.37385  1.0000
  H   H9        1.0  0.91449  0.58787  0.63619  1.0000
  H   H10       1.0  0.08552  0.41214  0.36381  1.0000
  H   H11       1.0  0.71061  0.42750  0.18221  1.0000
  H   H12       1.0  0.28938  0.57251  0.81779  1.0000
  H   H13       1.0  0.75270  0.26706  0.06276  1.0000
  H   H14       1.0  0.24730  0.73294  0.93724  1.0000
  H   H15       1.0  0.51391  0.27258  0.05151  1.0000
  H   H16       1.0  0.48609  0.72742  0.94849  1.0000
  C   C1        1.0  0.80422  0.60929  0.82234  1.0000
  C   C2        1.0  0.19579  0.39071  0.17766  1.0000
  C   C3        1.0  0.72611  0.44370  0.84953  1.0000
  C   C4        1.0  0.27390  0.55630  0.15047  1.0000
  C   C5        1.0  0.73665  0.47511  0.98819  1.0000
  C   C6        1.0  0.26335  0.52489  0.01181  1.0000
  C   C7        1.0  0.82435  0.64842  0.68944  1.0000
  C   C8        1.0  0.17566  0.35159  0.31056  1.0000
  C   C9        1.0  0.67531  0.35437  0.07629  1.0000
  C   C10       1.0  0.32469  0.64563  0.92371  1.0000
  C   C11       1.0  0.34315  0.99495  0.78796  1.0000
  C   C12       1.0  0.65684  0.00504  0.21204  1.0000
  C   C13       1.0  0.64814  0.98826  0.81424  1.0000
  C   C14       1.0  0.35185  0.01173  0.18576  1.0000
  C   C15       1.0  0.95103  0.21351  0.58904  1.0000
  C   C16       1.0  0.04896  0.78647  0.41096  1.0000
  C   C17       1.0  0.26440  0.21639  0.58566  1.0000
  C   C18       1.0  0.73560  0.78360  0.41434  1.0000
  N   N1        1.0  0.86020  0.73543  0.93915  1.0000
  N   N2        1.0  0.13980  0.26457  0.06085  1.0000
  N   N3        1.0  0.81914  0.65159  0.03732  1.0000
  N   N4        1.0  0.18087  0.34841  0.96268  1.0000
  N   N5        1.0  0.20949  0.02826  0.82049  1.0000
  N   N6        1.0  0.79051  0.97174  0.17951  1.0000
  N   N7        1.0  0.48281  0.95427  0.73979  1.0000
  N   N8        1.0  0.51718  0.04573  0.26021  1.0000
  N   N9        1.0  0.80585  0.01953  0.87244  1.0000
  N   N10       1.0  0.19415  0.98047  0.12756  1.0000
  N   N11       1.0  0.78016  0.17522  0.55509  1.0000
  N   N12       1.0  0.21983  0.82477  0.44491  1.0000
  N   N13       1.0  0.13805  0.27090  0.63692  1.0000
  N   N14       1.0  0.86195  0.72909  0.36308  1.0000
  N   N15       1.0  0.39420  0.18134  0.54660  1.0000
  N   N16       1.0  0.60580  0.81864  0.45339  1.0000
