data_image0
_chemical_formula_structural       Zn2H28C12O4
_chemical_formula_sum              "Zn2 H28 C12 O4"
_cell_length_a       7.12803
_cell_length_b       7.13949
_cell_length_c       8.75299
_cell_angle_alpha    87.6322
_cell_angle_beta     86.7147
_cell_angle_gamma    61.3123

_space_group_name_H-M_alt    "P 1"
_space_group_IT_number       1

loop_
  _space_group_symop_operation_xyz
  'x, y, z'

loop_
  _atom_site_type_symbol
  _atom_site_label
  _atom_site_symmetry_multiplicity
  _atom_site_fract_x
  _atom_site_fract_y
  _atom_site_fract_z
  _atom_site_occupancy
  Zn  Zn1       1.0  0.48219  0.09003  0.23315  1.0000
  Zn  Zn2       1.0  0.51781  0.90997  0.76685  1.0000
  H   H1        1.0  0.11545  0.12699  0.17417  1.0000
  H   H2        1.0  0.88455  0.87300  0.82583  1.0000
  H   H3        1.0  0.07985  0.37643  0.23523  1.0000
  H   H4        1.0  0.92015  0.62356  0.76477  1.0000
  H   H5        1.0  0.12645  0.16980  0.37103  1.0000
  H   H6        1.0  0.87354  0.83019  0.62897  1.0000
  H   H7        1.0  0.82586  0.76880  0.32754  1.0000
  H   H8        1.0  0.17414  0.23120  0.67246  1.0000
  H   H9        1.0  0.88794  0.96530  0.24643  1.0000
  H   H10       1.0  0.11206  0.03470  0.75357  1.0000
  H   H11       1.0  0.84272  0.79848  0.12546  1.0000
  H   H12       1.0  0.15728  0.20151  0.87454  1.0000
  H   H13       1.0  0.24762  0.47050  0.56658  1.0000
  H   H14       1.0  0.75238  0.52950  0.43342  1.0000
  H   H15       1.0  0.17991  0.56938  0.37532  1.0000
  H   H16       1.0  0.82009  0.43062  0.62468  1.0000
  H   H17       1.0  0.80749  0.15889  0.45038  1.0000
  H   H18       1.0  0.19251  0.84111  0.54961  1.0000
  H   H19       1.0  0.62133  0.22572  0.61152  1.0000
  H   H20       1.0  0.37867  0.77428  0.38848  1.0000
  H   H21       1.0  0.17091  0.48282  0.01211  1.0000
  H   H22       1.0  0.82909  0.51718  0.98790  1.0000
  H   H23       1.0  0.31710  0.49451  0.84168  1.0000
  H   H24       1.0  0.68290  0.50549  0.15833  1.0000
  H   H25       1.0  0.71082  0.29969  0.84936  1.0000
  H   H26       1.0  0.28918  0.70031  0.15065  1.0000
  H   H27       1.0  0.82056  0.16397  0.02513  1.0000
  H   H28       1.0  0.17944  0.83603  0.97488  1.0000
  C   C1        1.0  0.17081  0.20267  0.25445  1.0000
  C   C2        1.0  0.82919  0.79732  0.74555  1.0000
  C   C3        1.0  0.78984  0.88640  0.23336  1.0000
  C   C4        1.0  0.21016  0.11360  0.76664  1.0000
  C   C5        1.0  0.30093  0.52518  0.46127  1.0000
  C   C6        1.0  0.69907  0.47481  0.53873  1.0000
  C   C7        1.0  0.66385  0.28801  0.50502  1.0000
  C   C8        1.0  0.33615  0.71199  0.49497  1.0000
  C   C9        1.0  0.31260  0.49331  0.96785  1.0000
  C   C10       1.0  0.68740  0.50669  0.03215  1.0000
  C   C11       1.0  0.69030  0.30771  0.97514  1.0000
  C   C12       1.0  0.30970  0.69229  0.02487  1.0000
  O   O1        1.0  0.49551  0.35163  0.39940  1.0000
  O   O2        1.0  0.50449  0.64837  0.60060  1.0000
  O   O3        1.0  0.49523  0.30357  0.02144  1.0000
  O   O4        1.0  0.50477  0.69643  0.97856  1.0000
