data_image0
_chemical_formula_structural       Cd2H32C30N4O12
_chemical_formula_sum              "Cd2 H32 C30 N4 O12"
_cell_length_a       8.46167
_cell_length_b       10.4857
_cell_length_c       10.4403
_cell_angle_alpha    65.4479
_cell_angle_beta     81.0018
_cell_angle_gamma    79.9822

_space_group_name_H-M_alt    "P 1"
_space_group_IT_number       1

loop_
  _space_group_symop_operation_xyz
  'x, y, z'

loop_
  _atom_site_type_symbol
  _atom_site_label
  _atom_site_symmetry_multiplicity
  _atom_site_fract_x
  _atom_site_fract_y
  _atom_site_fract_z
  _atom_site_occupancy
  Cd  Cd1       1.0  0.75051  0.63742  0.79489  1.0000
  Cd  Cd2       1.0  0.24948  0.36258  0.20510  1.0000
  H   H1        1.0  0.80663  0.49856  0.57263  1.0000
  H   H2        1.0  0.19334  0.50143  0.42738  1.0000
  H   H3        1.0  0.96458  0.30298  0.50659  1.0000
  H   H4        1.0  0.03539  0.69701  0.49342  1.0000
  H   H5        1.0  0.14803  0.12283  0.67329  1.0000
  H   H6        1.0  0.85195  0.87716  0.32671  1.0000
  H   H7        1.0  0.00971  0.34021  0.95395  1.0000
  H   H8        1.0  0.99030  0.65980  0.04604  1.0000
  H   H9        1.0  0.46248  0.66000  0.02554  1.0000
  H   H10       1.0  0.53755  0.34002  0.97448  1.0000
  H   H11       1.0  0.25080  0.82691  0.08904  1.0000
  H   H12       1.0  0.74921  0.17311  0.91096  1.0000
  H   H13       1.0  0.42205  0.16381  0.70818  1.0000
  H   H14       1.0  0.57794  0.83619  0.29181  1.0000
  H   H15       1.0  0.64080  0.98512  0.67054  1.0000
  H   H16       1.0  0.35920  0.01489  0.32946  1.0000
  H   H17       1.0  0.26502  0.80766  0.62826  1.0000
  H   H18       1.0  0.73501  0.19231  0.37175  1.0000
  H   H19       1.0  0.19084  0.88568  0.74938  1.0000
  H   H20       1.0  0.80917  0.11430  0.25063  1.0000
  H   H21       1.0  0.13286  0.96920  0.57035  1.0000
  H   H22       1.0  0.86716  0.03077  0.42965  1.0000
  H   H23       1.0  0.33421  0.62981  0.50973  1.0000
  H   H24       1.0  0.66577  0.37019  0.49028  1.0000
  H   H25       1.0  0.25771  0.54295  0.69158  1.0000
  H   H26       1.0  0.74228  0.45705  0.30843  1.0000
  H   H27       1.0  0.39983  0.44952  0.60840  1.0000
  H   H28       1.0  0.60016  0.55049  0.39160  1.0000
  H   H29       1.0  0.83332  0.44219  0.08509  1.0000
  H   H30       1.0  0.16668  0.55780  0.91491  1.0000
  H   H31       1.0  0.64559  0.49453  0.09922  1.0000
  H   H32       1.0  0.35442  0.50547  0.90078  1.0000
  C   C1        1.0  0.88966  0.41677  0.64214  1.0000
  C   C2        1.0  0.11032  0.58322  0.35786  1.0000
  C   C3        1.0  0.97588  0.30876  0.60634  1.0000
  C   C4        1.0  0.02410  0.69124  0.39366  1.0000
  C   C5        1.0  0.08005  0.20806  0.69969  1.0000
  C   C6        1.0  0.91994  0.79194  0.30031  1.0000
  C   C7        1.0  0.09104  0.21671  0.82828  1.0000
  C   C8        1.0  0.90896  0.78330  0.17171  1.0000
  C   C9        1.0  0.00128  0.33058  0.85519  1.0000
  C   C10       1.0  0.99872  0.66942  0.14480  1.0000
  C   C11       1.0  0.18090  0.10206  0.94215  1.0000
  C   C12       1.0  0.81911  0.89795  0.05784  1.0000
  C   C13       1.0  0.45290  0.77257  0.95937  1.0000
  C   C14       1.0  0.54712  0.22744  0.04064  1.0000
  C   C15       1.0  0.33381  0.86507  0.99428  1.0000
  C   C16       1.0  0.66620  0.13494  0.00572  1.0000
  C   C17       1.0  0.31774  0.00826  0.90366  1.0000
  C   C18       1.0  0.68226  0.99176  0.09634  1.0000
  C   C19       1.0  0.42841  0.05388  0.78371  1.0000
  C   C20       1.0  0.57159  0.94613  0.21628  1.0000
  C   C21       1.0  0.54923  0.95463  0.76018  1.0000
  C   C22       1.0  0.45078  0.04538  0.23981  1.0000
  C   C23       1.0  0.01860  0.78383  0.70933  1.0000
  C   C24       1.0  0.98142  0.21614  0.29067  1.0000
  C   C25       1.0  0.15926  0.86877  0.66014  1.0000
  C   C26       1.0  0.84076  0.13120  0.33987  1.0000
  C   C27       1.0  0.50318  0.59377  0.65913  1.0000
  C   C28       1.0  0.49681  0.40623  0.34088  1.0000
  C   C29       1.0  0.36410  0.55290  0.61482  1.0000
  C   C30       1.0  0.63588  0.44710  0.38519  1.0000
  N   N1        1.0  0.90385  0.42939  0.76316  1.0000
  N   N2        1.0  0.09614  0.57061  0.23683  1.0000
  N   N3        1.0  0.55963  0.81624  0.84452  1.0000
  N   N4        1.0  0.44039  0.18377  0.15548  1.0000
  O   O1        1.0  0.13802  0.07737  0.06784  1.0000
  O   O2        1.0  0.86199  0.92266  0.93215  1.0000
  O   O3        1.0  0.02275  0.67175  0.82362  1.0000
  O   O4        1.0  0.97726  0.32823  0.17640  1.0000
  O   O5        1.0  0.60191  0.66927  0.56791  1.0000
  O   O6        1.0  0.39807  0.33074  0.43209  1.0000
  O   O7        1.0  0.51794  0.54493  0.79335  1.0000
  O   O8        1.0  0.48205  0.45508  0.20665  1.0000
  O   O9        1.0  0.89831  0.82271  0.63597  1.0000
  O   O10       1.0  0.10172  0.17725  0.36402  1.0000
  O   O11       1.0  0.74815  0.51942  0.03724  1.0000
  O   O12       1.0  0.25186  0.48057  0.96275  1.0000
