data_image0
_chemical_formula_structural       H24Pb2C28Br4N4
_chemical_formula_sum              "H24 Pb2 C28 Br4 N4"
_cell_length_a       7.67893
_cell_length_b       10.5494
_cell_length_c       10.5497
_cell_angle_alpha    67.898
_cell_angle_beta     72.8804
_cell_angle_gamma    72.8808

_space_group_name_H-M_alt    "P 1"
_space_group_IT_number       1

loop_
  _space_group_symop_operation_xyz
  'x, y, z'

loop_
  _atom_site_type_symbol
  _atom_site_label
  _atom_site_symmetry_multiplicity
  _atom_site_fract_x
  _atom_site_fract_y
  _atom_site_fract_z
  _atom_site_occupancy
  H   H1        1.0  0.51286  0.70653  0.93057  1.0000
  H   H2        1.0  0.98713  0.06943  0.29348  1.0000
  H   H3        1.0  0.48713  0.29346  0.06942  1.0000
  H   H4        1.0  0.01289  0.93057  0.70652  1.0000
  H   H5        1.0  0.70293  0.55988  0.93833  1.0000
  H   H6        1.0  0.79706  0.06168  0.44013  1.0000
  H   H7        1.0  0.29705  0.44012  0.06167  1.0000
  H   H8        1.0  0.20295  0.93833  0.55987  1.0000
  H   H9        1.0  0.71510  0.70517  0.98015  1.0000
  H   H10       1.0  0.78489  0.01986  0.29485  1.0000
  H   H11       1.0  0.28489  0.29483  0.01985  1.0000
  H   H12       1.0  0.21512  0.98015  0.70516  1.0000
  H   H13       1.0  0.74105  0.37266  0.14165  1.0000
  H   H14       1.0  0.75894  0.85834  0.62735  1.0000
  H   H15       1.0  0.25895  0.62734  0.85835  1.0000
  H   H16       1.0  0.24105  0.14166  0.37264  1.0000
  H   H17       1.0  0.60980  0.25311  0.39211  1.0000
  H   H18       1.0  0.89020  0.60789  0.74689  1.0000
  H   H19       1.0  0.39020  0.74689  0.60789  1.0000
  H   H20       1.0  0.10979  0.39211  0.25311  1.0000
  H   H21       1.0  0.38490  0.26008  0.60946  1.0000
  H   H22       1.0  0.11511  0.39054  0.73992  1.0000
  H   H23       1.0  0.61511  0.73993  0.39054  1.0000
  H   H24       1.0  0.88489  0.60947  0.26008  1.0000
  Pb  Pb1       1.0  0.24999  0.90406  0.09595  1.0000
  Pb  Pb2       1.0  0.75001  0.09594  0.90405  1.0000
  C   C1        1.0  0.62175  0.63923  0.98859  1.0000
  C   C2        1.0  0.87824  0.01142  0.36077  1.0000
  C   C3        1.0  0.37824  0.36076  0.01141  1.0000
  C   C4        1.0  0.12177  0.98859  0.63923  1.0000
  C   C5        1.0  0.54382  0.56884  0.13842  1.0000
  C   C6        1.0  0.95617  0.86158  0.43117  1.0000
  C   C7        1.0  0.45617  0.43116  0.86158  1.0000
  C   C8        1.0  0.04383  0.13842  0.56883  1.0000
  C   C9        1.0  0.62417  0.42785  0.20254  1.0000
  C   C10       1.0  0.87583  0.79746  0.57216  1.0000
  C   C11       1.0  0.37583  0.57215  0.79746  1.0000
  C   C12       1.0  0.12416  0.20254  0.42784  1.0000
  C   C13       1.0  0.55227  0.36200  0.34000  1.0000
  C   C14       1.0  0.94773  0.66000  0.63801  1.0000
  C   C15       1.0  0.44773  0.63800  0.66000  1.0000
  C   C16       1.0  0.05227  0.34001  0.36199  1.0000
  C   C17       1.0  0.40099  0.43531  0.41625  1.0000
  C   C18       1.0  0.09901  0.58375  0.56469  1.0000
  C   C19       1.0  0.59901  0.56469  0.58375  1.0000
  C   C20       1.0  0.90099  0.41626  0.43531  1.0000
  C   C21       1.0  0.32759  0.57749  0.34563  1.0000
  C   C22       1.0  0.17240  0.65437  0.42250  1.0000
  C   C23       1.0  0.67241  0.42250  0.65436  1.0000
  C   C24       1.0  0.82760  0.34563  0.57750  1.0000
  C   C25       1.0  0.32366  0.36896  0.55909  1.0000
  C   C26       1.0  0.17635  0.44091  0.63104  1.0000
  C   C27       1.0  0.67634  0.63104  0.44091  1.0000
  C   C28       1.0  0.82365  0.55910  0.36896  1.0000
  Br  Br1       1.0  0.49279  0.99135  0.21086  1.0000
  Br  Br2       1.0  0.00724  0.78914  0.00865  1.0000
  Br  Br3       1.0  0.50721  0.00865  0.78914  1.0000
  Br  Br4       1.0  0.99277  0.21086  0.99136  1.0000
  N   N1        1.0  0.40004  0.64073  0.20888  1.0000
  N   N2        1.0  0.09996  0.79113  0.35927  1.0000
  N   N3        1.0  0.59997  0.35926  0.79112  1.0000
  N   N4        1.0  0.90004  0.20887  0.64073  1.0000
