data_image0
_chemical_formula_structural       Sn4H40C32N4Cl4O12
_chemical_formula_sum              "Sn4 H40 C32 N4 Cl4 O12"
_cell_length_a       9.67482
_cell_length_b       10.6662
_cell_length_c       11.1048
_cell_angle_alpha    90
_cell_angle_beta     90.0002
_cell_angle_gamma    104.047

_space_group_name_H-M_alt    "P 1"
_space_group_IT_number       1

loop_
  _space_group_symop_operation_xyz
  'x, y, z'

loop_
  _atom_site_type_symbol
  _atom_site_label
  _atom_site_symmetry_multiplicity
  _atom_site_fract_x
  _atom_site_fract_y
  _atom_site_fract_z
  _atom_site_occupancy
  Sn  Sn1       1.0  0.23484  0.30892  0.90644  1.0000
  Sn  Sn2       1.0  0.26516  0.19108  0.40643  1.0000
  Sn  Sn3       1.0  0.76516  0.69108  0.09357  1.0000
  Sn  Sn4       1.0  0.73484  0.80892  0.59357  1.0000
  H   H1        1.0  0.35651  0.95559  0.19489  1.0000
  H   H2        1.0  0.14349  0.54441  0.69489  1.0000
  H   H3        1.0  0.64349  0.04441  0.80511  1.0000
  H   H4        1.0  0.85651  0.45559  0.30511  1.0000
  H   H5        1.0  0.33898  0.74918  0.93793  1.0000
  H   H6        1.0  0.16102  0.75082  0.43793  1.0000
  H   H7        1.0  0.66102  0.25082  0.06207  1.0000
  H   H8        1.0  0.83898  0.24918  0.56207  1.0000
  H   H9        1.0  0.28760  0.83166  0.73494  1.0000
  H   H10       1.0  0.21240  0.66834  0.23494  1.0000
  H   H11       1.0  0.71240  0.16834  0.26506  1.0000
  H   H12       1.0  0.78760  0.33166  0.76506  1.0000
  H   H13       1.0  0.25157  0.05600  0.71794  1.0000
  H   H14       1.0  0.24843  0.44400  0.21794  1.0000
  H   H15       1.0  0.74843  0.94399  0.28206  1.0000
  H   H16       1.0  0.75157  0.55600  0.78206  1.0000
  H   H17       1.0  0.45421  0.30873  0.75793  1.0000
  H   H18       1.0  0.04578  0.19127  0.25792  1.0000
  H   H19       1.0  0.54578  0.69127  0.24208  1.0000
  H   H20       1.0  0.95422  0.80873  0.74208  1.0000
  H   H21       1.0  0.52149  0.36717  0.90332  1.0000
  H   H22       1.0  0.97852  0.13283  0.40331  1.0000
  H   H23       1.0  0.47851  0.63283  0.09668  1.0000
  H   H24       1.0  0.02148  0.86717  0.59668  1.0000
  H   H25       1.0  0.45762  0.47230  0.80309  1.0000
  H   H26       1.0  0.04238  0.02770  0.30309  1.0000
  H   H27       1.0  0.54237  0.52770  0.19691  1.0000
  H   H28       1.0  0.95762  0.97230  0.69691  1.0000
  H   H29       1.0  0.99045  0.15010  0.83060  1.0000
  H   H30       1.0  0.50955  0.34990  0.33060  1.0000
  H   H31       1.0  0.00955  0.84990  0.16940  1.0000
  H   H32       1.0  0.49045  0.65010  0.66940  1.0000
  H   H33       1.0  0.95221  0.28043  0.91773  1.0000
  H   H34       1.0  0.54779  0.21957  0.41773  1.0000
  H   H35       1.0  0.04779  0.71957  0.08227  1.0000
  H   H36       1.0  0.45221  0.78043  0.58227  1.0000
  H   H37       1.0  0.99848  0.14635  0.99229  1.0000
  H   H38       1.0  0.50152  0.35365  0.49229  1.0000
  H   H39       1.0  0.00152  0.85364  0.00771  1.0000
  H   H40       1.0  0.49848  0.64635  0.50771  1.0000
  C   C1        1.0  0.31063  0.14216  0.11200  1.0000
  C   C2        1.0  0.18937  0.35784  0.61200  1.0000
  C   C3        1.0  0.68937  0.85784  0.88800  1.0000
  C   C4        1.0  0.81063  0.64216  0.38800  1.0000
  C   C5        1.0  0.30716  0.05102  0.01078  1.0000
  C   C6        1.0  0.19284  0.44898  0.51078  1.0000
  C   C7        1.0  0.69284  0.94898  0.98922  1.0000
  C   C8        1.0  0.80716  0.55102  0.48922  1.0000
  C   C9        1.0  0.33048  0.92653  0.02814  1.0000
  C   C10       1.0  0.16951  0.57347  0.52814  1.0000
  C   C11       1.0  0.66952  0.07347  0.97186  1.0000
  C   C12       1.0  0.83049  0.42653  0.47186  1.0000
  C   C13       1.0  0.32403  0.84653  0.92651  1.0000
  C   C14       1.0  0.17597  0.65347  0.42651  1.0000
  C   C15       1.0  0.67597  0.15347  0.07349  1.0000
  C   C16       1.0  0.82403  0.34653  0.57349  1.0000
  C   C17       1.0  0.29512  0.89208  0.81494  1.0000
  C   C18       1.0  0.20487  0.60793  0.31494  1.0000
  C   C19       1.0  0.70488  0.10793  0.18506  1.0000
  C   C20       1.0  0.79512  0.39207  0.68506  1.0000
  C   C21       1.0  0.27335  0.01704  0.80471  1.0000
  C   C22       1.0  0.22665  0.48296  0.30471  1.0000
  C   C23       1.0  0.72665  0.98296  0.19529  1.0000
  C   C24       1.0  0.77335  0.51703  0.69529  1.0000
  C   C25       1.0  0.44374  0.37230  0.83299  1.0000
  C   C26       1.0  0.05626  0.12770  0.33298  1.0000
  C   C27       1.0  0.55626  0.62770  0.16702  1.0000
  C   C28       1.0  0.94374  0.87230  0.66702  1.0000
  C   C29       1.0  0.01569  0.20852  0.91244  1.0000
  C   C30       1.0  0.48431  0.29148  0.41244  1.0000
  C   C31       1.0  0.98431  0.79148  0.08756  1.0000
  C   C32       1.0  0.51569  0.70852  0.58756  1.0000
  N   N1        1.0  0.27923  0.09267  0.90087  1.0000
  N   N2        1.0  0.22077  0.40733  0.40087  1.0000
  N   N3        1.0  0.72077  0.90733  0.09913  1.0000
  N   N4        1.0  0.77923  0.59267  0.59913  1.0000
  Cl  Cl1       1.0  0.21281  0.51747  0.99094  1.0000
  Cl  Cl2       1.0  0.28719  0.98254  0.49093  1.0000
  Cl  Cl3       1.0  0.78719  0.48253  0.00906  1.0000
  Cl  Cl4       1.0  0.71281  0.01747  0.50906  1.0000
  O   O1        1.0  0.28904  0.25442  0.09238  1.0000
  O   O2        1.0  0.21096  0.24558  0.59238  1.0000
  O   O3        1.0  0.71096  0.74558  0.90762  1.0000
  O   O4        1.0  0.78904  0.75442  0.40762  1.0000
  O   O5        1.0  0.33470  0.10317  0.21690  1.0000
  O   O6        1.0  0.16530  0.39683  0.71690  1.0000
  O   O7        1.0  0.66530  0.89683  0.78310  1.0000
  O   O8        1.0  0.83471  0.60317  0.28310  1.0000
  O   O9        1.0  0.35805  0.88312  0.13686  1.0000
  O   O10       1.0  0.14195  0.61688  0.63686  1.0000
  O   O11       1.0  0.64195  0.11688  0.86314  1.0000
  O   O12       1.0  0.85806  0.38312  0.36314  1.0000
