data_image0
_chemical_formula_structural       Cd4H48C36N16Cl8
_chemical_formula_sum              "Cd4 H48 C36 N16 Cl8"
_cell_length_a       7.819
_cell_length_b       9.75036
_cell_length_c       15.2212
_cell_angle_alpha    89.9999
_cell_angle_beta     90.0001
_cell_angle_gamma    90.0001

_space_group_name_H-M_alt    "P 1"
_space_group_IT_number       1

loop_
  _space_group_symop_operation_xyz
  'x, y, z'

loop_
  _atom_site_type_symbol
  _atom_site_label
  _atom_site_symmetry_multiplicity
  _atom_site_fract_x
  _atom_site_fract_y
  _atom_site_fract_z
  _atom_site_occupancy
  Cd  Cd1       1.0  0.61607  0.99999  0.25712  1.0000
  Cd  Cd2       1.0  0.11607  0.00001  0.24288  1.0000
  Cd  Cd3       1.0  0.38393  0.50001  0.75712  1.0000
  Cd  Cd4       1.0  0.88393  0.49999  0.74288  1.0000
  H   H1        1.0  0.92924  0.17110  0.06730  1.0000
  H   H2        1.0  0.42924  0.82890  0.43270  1.0000
  H   H3        1.0  0.07076  0.32890  0.56730  1.0000
  H   H4        1.0  0.57076  0.67110  0.93270  1.0000
  H   H5        1.0  0.31438  0.87033  0.05923  1.0000
  H   H6        1.0  0.81438  0.12967  0.44077  1.0000
  H   H7        1.0  0.68562  0.62967  0.55923  1.0000
  H   H8        1.0  0.18562  0.37033  0.94077  1.0000
  H   H9        1.0  0.03085  0.13341  0.89200  1.0000
  H   H10       1.0  0.53085  0.86659  0.60800  1.0000
  H   H11       1.0  0.96915  0.36659  0.39200  1.0000
  H   H12       1.0  0.46915  0.63341  0.10800  1.0000
  H   H13       1.0  0.17543  0.90563  0.82741  1.0000
  H   H14       1.0  0.67543  0.09437  0.67260  1.0000
  H   H15       1.0  0.82456  0.59437  0.32740  1.0000
  H   H16       1.0  0.32457  0.40563  0.17259  1.0000
  H   H17       1.0  0.32283  0.82110  0.89480  1.0000
  H   H18       1.0  0.82283  0.17890  0.60520  1.0000
  H   H19       1.0  0.67717  0.67890  0.39480  1.0000
  H   H20       1.0  0.17717  0.32110  0.10520  1.0000
  H   H21       1.0  0.38119  0.11490  0.82573  1.0000
  H   H22       1.0  0.88119  0.88510  0.67427  1.0000
  H   H23       1.0  0.61881  0.38511  0.32573  1.0000
  H   H24       1.0  0.11881  0.61489  0.17427  1.0000
  H   H25       1.0  0.43592  0.96605  0.76599  1.0000
  H   H26       1.0  0.93592  0.03395  0.73401  1.0000
  H   H27       1.0  0.56407  0.53395  0.26599  1.0000
  H   H28       1.0  0.06408  0.46604  0.23401  1.0000
  H   H29       1.0  0.63713  0.88903  0.87941  1.0000
  H   H30       1.0  0.13713  0.11098  0.62059  1.0000
  H   H31       1.0  0.36287  0.61098  0.37941  1.0000
  H   H32       1.0  0.86287  0.38903  0.12059  1.0000
  H   H33       1.0  0.68880  0.05421  0.83742  1.0000
  H   H34       1.0  0.18880  0.94580  0.66258  1.0000
  H   H35       1.0  0.31120  0.44580  0.33742  1.0000
  H   H36       1.0  0.81120  0.55420  0.16258  1.0000
  H   H37       1.0  0.53666  0.26266  0.93980  1.0000
  H   H38       1.0  0.03666  0.73734  0.56020  1.0000
  H   H39       1.0  0.46334  0.23734  0.43980  1.0000
  H   H40       1.0  0.96334  0.76266  0.06020  1.0000
  H   H41       1.0  0.54630  0.27320  0.12437  1.0000
  H   H42       1.0  0.04630  0.72680  0.37563  1.0000
  H   H43       1.0  0.45370  0.22680  0.62437  1.0000
  H   H44       1.0  0.95370  0.77320  0.87563  1.0000
  H   H45       1.0  0.66041  0.87141  0.04242  1.0000
  H   H46       1.0  0.16041  0.12859  0.45758  1.0000
  H   H47       1.0  0.33959  0.62859  0.54242  1.0000
  H   H48       1.0  0.83959  0.37141  0.95758  1.0000
  C   C1        1.0  0.02688  0.10545  0.03920  1.0000
  C   C2        1.0  0.52688  0.89455  0.46080  1.0000
  C   C3        1.0  0.97312  0.39455  0.53920  1.0000
  C   C4        1.0  0.47312  0.60545  0.96080  1.0000
  C   C5        1.0  0.22494  0.94879  0.03846  1.0000
  C   C6        1.0  0.72494  0.05121  0.46154  1.0000
  C   C7        1.0  0.77506  0.55120  0.53846  1.0000
  C   C8        1.0  0.27506  0.44879  0.96154  1.0000
  C   C9        1.0  0.07198  0.08521  0.95279  1.0000
  C   C10       1.0  0.57198  0.91479  0.54721  1.0000
  C   C11       1.0  0.92802  0.41479  0.45279  1.0000
  C   C12       1.0  0.42802  0.58521  0.04721  1.0000
  C   C13       1.0  0.27722  0.92325  0.87566  1.0000
  C   C14       1.0  0.77722  0.07675  0.62434  1.0000
  C   C15       1.0  0.72278  0.57675  0.37566  1.0000
  C   C16       1.0  0.22278  0.42325  0.12434  1.0000
  C   C17       1.0  0.41992  0.00700  0.83287  1.0000
  C   C18       1.0  0.91992  0.99300  0.66713  1.0000
  C   C19       1.0  0.58008  0.49300  0.33287  1.0000
  C   C20       1.0  0.08008  0.50700  0.16713  1.0000
  C   C21       1.0  0.59534  0.99642  0.87656  1.0000
  C   C22       1.0  0.09534  0.00358  0.62344  1.0000
  C   C23       1.0  0.40466  0.50358  0.37656  1.0000
  C   C24       1.0  0.90466  0.49642  0.12344  1.0000
  C   C25       1.0  0.56143  0.18513  0.98930  1.0000
  C   C26       1.0  0.06143  0.81487  0.51070  1.0000
  C   C27       1.0  0.43857  0.31487  0.48930  1.0000
  C   C28       1.0  0.93857  0.68513  0.01070  1.0000
  C   C29       1.0  0.56807  0.18870  0.07960  1.0000
  C   C30       1.0  0.06807  0.81130  0.42040  1.0000
  C   C31       1.0  0.43193  0.31130  0.57960  1.0000
  C   C32       1.0  0.93193  0.68870  0.92040  1.0000
  C   C33       1.0  0.62591  0.97915  0.04100  1.0000
  C   C34       1.0  0.12591  0.02085  0.45900  1.0000
  C   C35       1.0  0.37409  0.52085  0.54100  1.0000
  C   C36       1.0  0.87409  0.47915  0.95900  1.0000
  N   N1        1.0  0.12406  0.02041  0.09188  1.0000
  N   N2        1.0  0.62406  0.97960  0.40812  1.0000
  N   N3        1.0  0.87593  0.47959  0.59188  1.0000
  N   N4        1.0  0.37593  0.52040  0.90812  1.0000
  N   N5        1.0  0.60780  0.05993  0.11074  1.0000
  N   N6        1.0  0.10780  0.94007  0.38926  1.0000
  N   N7        1.0  0.39220  0.44007  0.61074  1.0000
  N   N8        1.0  0.89220  0.55993  0.88926  1.0000
  N   N9        1.0  0.59797  0.05117  0.96596  1.0000
  N   N10       1.0  0.09797  0.94883  0.53404  1.0000
  N   N11       1.0  0.40203  0.44883  0.46596  1.0000
  N   N12       1.0  0.90203  0.55117  0.03404  1.0000
  N   N13       1.0  0.19802  0.98541  0.95349  1.0000
  N   N14       1.0  0.69802  0.01459  0.54651  1.0000
  N   N15       1.0  0.80198  0.51459  0.45349  1.0000
  N   N16       1.0  0.30198  0.48541  0.04651  1.0000
  Cl  Cl1       1.0  0.85760  0.81783  0.22082  1.0000
  Cl  Cl2       1.0  0.35760  0.18217  0.27918  1.0000
  Cl  Cl3       1.0  0.14240  0.68217  0.72082  1.0000
  Cl  Cl4       1.0  0.64240  0.31783  0.77918  1.0000
  Cl  Cl5       1.0  0.37441  0.80668  0.23513  1.0000
  Cl  Cl6       1.0  0.87441  0.19332  0.26487  1.0000
  Cl  Cl7       1.0  0.62559  0.69332  0.73513  1.0000
  Cl  Cl8       1.0  0.12559  0.30668  0.76487  1.0000
