data_image0
_chemical_formula_structural       Zn2H36C44N8O8
_chemical_formula_sum              "Zn2 H36 C44 N8 O8"
_cell_length_a       10.3341
_cell_length_b       10.2085
_cell_length_c       11.4145
_cell_angle_alpha    75.4354
_cell_angle_beta     83.1087
_cell_angle_gamma    60.3194

_space_group_name_H-M_alt    "P 1"
_space_group_IT_number       1

loop_
  _space_group_symop_operation_xyz
  'x, y, z'

loop_
  _atom_site_type_symbol
  _atom_site_label
  _atom_site_symmetry_multiplicity
  _atom_site_fract_x
  _atom_site_fract_y
  _atom_site_fract_z
  _atom_site_occupancy
  Zn  Zn1       1.0  0.87213  0.60440  0.19007  1.0000
  Zn  Zn2       1.0  0.12787  0.39561  0.80993  1.0000
  H   H1        1.0  0.33917  0.26133  0.13349  1.0000
  H   H2        1.0  0.66084  0.73867  0.86651  1.0000
  H   H3        1.0  0.61427  0.13103  0.09978  1.0000
  H   H4        1.0  0.38573  0.86897  0.90022  1.0000
  H   H5        1.0  0.75867  0.26107  0.11457  1.0000
  H   H6        1.0  0.24133  0.73893  0.88543  1.0000
  H   H7        1.0  0.35668  0.65281  0.19033  1.0000
  H   H8        1.0  0.64332  0.34720  0.80967  1.0000
  H   H9        1.0  0.03948  0.66980  0.94279  1.0000
  H   H10       1.0  0.96052  0.33020  0.05721  1.0000
  H   H11       1.0  0.60082  0.92866  0.05989  1.0000
  H   H12       1.0  0.39918  0.07134  0.94011  1.0000
  H   H13       1.0  0.64546  0.09998  0.84229  1.0000
  H   H14       1.0  0.35455  0.90002  0.15771  1.0000
  H   H15       1.0  0.04427  0.82981  0.74493  1.0000
  H   H16       1.0  0.95573  0.17019  0.25507  1.0000
  H   H17       1.0  0.98762  0.00833  0.78527  1.0000
  H   H18       1.0  0.01237  0.99167  0.21473  1.0000
  H   H19       1.0  0.81206  0.24390  0.68188  1.0000
  H   H20       1.0  0.18794  0.75610  0.31812  1.0000
  H   H21       1.0  0.64886  0.40868  0.50034  1.0000
  H   H22       1.0  0.35113  0.59133  0.49965  1.0000
  H   H23       1.0  0.59982  0.28257  0.36255  1.0000
  H   H24       1.0  0.40017  0.71743  0.63745  1.0000
  H   H25       1.0  0.71176  0.99909  0.40527  1.0000
  H   H26       1.0  0.28823  0.00091  0.59473  1.0000
  H   H27       1.0  0.01537  0.73061  0.58841  1.0000
  H   H28       1.0  0.98463  0.26939  0.41159  1.0000
  H   H29       1.0  0.87027  0.73775  0.68966  1.0000
  H   H30       1.0  0.12974  0.26225  0.31034  1.0000
  H   H31       1.0  0.01079  0.68776  0.37734  1.0000
  H   H32       1.0  0.98922  0.31224  0.62266  1.0000
  H   H33       1.0  0.60668  0.67722  0.39098  1.0000
  H   H34       1.0  0.39332  0.32278  0.60902  1.0000
  H   H35       1.0  0.63450  0.75552  0.60117  1.0000
  H   H36       1.0  0.36550  0.24448  0.39883  1.0000
  C   C1        1.0  0.16480  0.54946  0.18164  1.0000
  C   C2        1.0  0.83520  0.45054  0.81836  1.0000
  C   C3        1.0  0.33043  0.46511  0.16487  1.0000
  C   C4        1.0  0.66957  0.53489  0.83513  1.0000
  C   C5        1.0  0.40386  0.31689  0.14055  1.0000
  C   C6        1.0  0.59614  0.68311  0.85945  1.0000
  C   C7        1.0  0.55752  0.24424  0.12202  1.0000
  C   C8        1.0  0.44248  0.75576  0.87799  1.0000
  C   C9        1.0  0.63896  0.31734  0.12965  1.0000
  C   C10       1.0  0.36104  0.68266  0.87035  1.0000
  C   C11       1.0  0.56723  0.46406  0.15672  1.0000
  C   C12       1.0  0.43277  0.53594  0.84328  1.0000
  C   C13       1.0  0.41299  0.53752  0.17219  1.0000
  C   C14       1.0  0.58701  0.46248  0.82781  1.0000
  C   C15       1.0  0.65111  0.54319  0.17305  1.0000
  C   C16       1.0  0.34889  0.45682  0.82694  1.0000
  C   C17       1.0  0.92678  0.76261  0.94845  1.0000
  C   C18       1.0  0.07322  0.23740  0.05155  1.0000
  C   C19       1.0  0.69856  0.90250  0.00338  1.0000
  C   C20       1.0  0.30144  0.09750  0.99662  1.0000
  C   C21       1.0  0.71985  0.98634  0.89546  1.0000
  C   C22       1.0  0.28015  0.01367  0.10454  1.0000
  C   C23       1.0  0.94728  0.93835  0.75877  1.0000
  C   C24       1.0  0.05272  0.06165  0.24123  1.0000
  C   C25       1.0  0.85197  0.03017  0.64653  1.0000
  C   C26       1.0  0.14803  0.96983  0.35347  1.0000
  C   C27       1.0  0.78903  0.19131  0.62031  1.0000
  C   C28       1.0  0.21097  0.80870  0.37969  1.0000
  C   C29       1.0  0.69776  0.28315  0.51897  1.0000
  C   C30       1.0  0.30224  0.71685  0.48102  1.0000
  C   C31       1.0  0.67005  0.21285  0.44234  1.0000
  C   C32       1.0  0.32994  0.78715  0.55765  1.0000
  C   C33       1.0  0.73374  0.05201  0.46692  1.0000
  C   C34       1.0  0.26626  0.94798  0.53308  1.0000
  C   C35       1.0  0.82415  0.95897  0.56892  1.0000
  C   C36       1.0  0.17585  0.04103  0.43108  1.0000
  C   C37       1.0  0.89337  0.78433  0.59660  1.0000
  C   C38       1.0  0.10663  0.21566  0.40340  1.0000
  C   C39       1.0  0.90623  0.69215  0.41035  1.0000
  C   C40       1.0  0.09378  0.30784  0.58965  1.0000
  C   C41       1.0  0.69573  0.68778  0.42146  1.0000
  C   C42       1.0  0.30427  0.31222  0.57855  1.0000
  C   C43       1.0  0.70728  0.72833  0.52419  1.0000
  C   C44       1.0  0.29272  0.27166  0.47581  1.0000
  N   N1        1.0  0.82800  0.76418  0.03532  1.0000
  N   N2        1.0  0.17200  0.23582  0.96468  1.0000
  N   N3        1.0  0.86506  0.89516  0.86202  1.0000
  N   N4        1.0  0.13494  0.10485  0.13798  1.0000
  N   N5        1.0  0.84127  0.72991  0.51576  1.0000
  N   N6        1.0  0.15873  0.27009  0.48425  1.0000
  N   N7        1.0  0.82089  0.66534  0.35122  1.0000
  N   N8        1.0  0.17911  0.33466  0.64878  1.0000
  O   O1        1.0  0.10219  0.68629  0.19447  1.0000
  O   O2        1.0  0.89781  0.31371  0.80553  1.0000
  O   O3        1.0  0.09494  0.47297  0.18128  1.0000
  O   O4        1.0  0.90506  0.52703  0.81873  1.0000
  O   O5        1.0  0.79576  0.45993  0.18016  1.0000
  O   O6        1.0  0.20424  0.54007  0.81984  1.0000
  O   O7        1.0  0.58231  0.68173  0.18188  1.0000
  O   O8        1.0  0.41770  0.31827  0.81812  1.0000
