data_image0
_chemical_formula_structural       Cd6H28C40O40
_chemical_formula_sum              "Cd6 H28 C40 O40"
_cell_length_a       7.96962
_cell_length_b       13.3179
_cell_length_c       13.369
_cell_angle_alpha    84.8945
_cell_angle_beta     82.8698
_cell_angle_gamma    86.0504

_space_group_name_H-M_alt    "P 1"
_space_group_IT_number       1

loop_
  _space_group_symop_operation_xyz
  'x, y, z'

loop_
  _atom_site_type_symbol
  _atom_site_label
  _atom_site_symmetry_multiplicity
  _atom_site_fract_x
  _atom_site_fract_y
  _atom_site_fract_z
  _atom_site_occupancy
  Cd  Cd1       1.0  0.15787  0.01346  0.10359  1.0000
  Cd  Cd2       1.0  0.84214  0.98654  0.89641  1.0000
  Cd  Cd3       1.0  0.39642  0.71760  0.54721  1.0000
  Cd  Cd4       1.0  0.60358  0.28240  0.45279  1.0000
  Cd  Cd5       1.0  0.18738  0.50339  0.25504  1.0000
  Cd  Cd6       1.0  0.81261  0.49661  0.74496  1.0000
  H   H1        1.0  0.56368  0.10176  0.12052  1.0000
  H   H2        1.0  0.43632  0.89825  0.87948  1.0000
  H   H3        1.0  0.43202  0.28834  0.10549  1.0000
  H   H4        1.0  0.56799  0.71167  0.89451  1.0000
  H   H5        1.0  0.22919  0.13198  0.26182  1.0000
  H   H6        1.0  0.77081  0.86801  0.73818  1.0000
  H   H7        1.0  0.02273  0.14089  0.25083  1.0000
  H   H8        1.0  0.97728  0.85910  0.74918  1.0000
  H   H9        1.0  0.32713  0.84074  0.04789  1.0000
  H   H10       1.0  0.67288  0.15926  0.95211  1.0000
  H   H11       1.0  0.24420  0.80102  0.15956  1.0000
  H   H12       1.0  0.75580  0.19898  0.84044  1.0000
  H   H13       1.0  0.57086  0.87880  0.62877  1.0000
  H   H14       1.0  0.42915  0.12121  0.37123  1.0000
  H   H15       1.0  0.73516  0.80242  0.61637  1.0000
  H   H16       1.0  0.26484  0.19759  0.38363  1.0000
  H   H17       1.0  0.03884  0.32867  0.33614  1.0000
  H   H18       1.0  0.96115  0.67133  0.66386  1.0000
  H   H19       1.0  0.89287  0.39865  0.29146  1.0000
  H   H20       1.0  0.10711  0.60135  0.70854  1.0000
  H   H21       1.0  0.92651  0.84112  0.14803  1.0000
  H   H22       1.0  0.07349  0.15889  0.85197  1.0000
  H   H23       1.0  0.84039  0.94475  0.49949  1.0000
  H   H24       1.0  0.15961  0.05524  0.50051  1.0000
  H   H25       1.0  0.33683  0.54292  0.89738  1.0000
  H   H26       1.0  0.66317  0.45708  0.10262  1.0000
  H   H27       1.0  0.39975  0.19373  0.79404  1.0000
  H   H28       1.0  0.60025  0.80627  0.20596  1.0000
  C   C1        1.0  0.77191  0.02404  0.15980  1.0000
  C   C2        1.0  0.22809  0.97596  0.84020  1.0000
  C   C3        1.0  0.06048  0.70183  0.27695  1.0000
  C   C4        1.0  0.93952  0.29816  0.72305  1.0000
  C   C5        1.0  0.00754  0.76007  0.48726  1.0000
  C   C6        1.0  0.99247  0.23993  0.51274  1.0000
  C   C7        1.0  0.75311  0.09693  0.36125  1.0000
  C   C8        1.0  0.24689  0.90306  0.63875  1.0000
  C   C9        1.0  0.83369  0.95886  0.24493  1.0000
  C   C10       1.0  0.16631  0.04115  0.75507  1.0000
  C   C11       1.0  0.91504  0.86529  0.22456  1.0000
  C   C12       1.0  0.08496  0.13471  0.77544  1.0000
  C   C13       1.0  0.97156  0.80044  0.30289  1.0000
  C   C14       1.0  0.02844  0.19957  0.69711  1.0000
  C   C15       1.0  0.94081  0.82781  0.40277  1.0000
  C   C16       1.0  0.05919  0.17218  0.59723  1.0000
  C   C17       1.0  0.86001  0.92193  0.42237  1.0000
  C   C18       1.0  0.14000  0.07806  0.57763  1.0000
  C   C19       1.0  0.80982  0.98910  0.34409  1.0000
  C   C20       1.0  0.19018  0.01090  0.65590  1.0000
  C   C21       1.0  0.37043  0.19208  0.99182  1.0000
  C   C22       1.0  0.62956  0.80792  0.00818  1.0000
  C   C23       1.0  0.31348  0.41369  0.05667  1.0000
  C   C24       1.0  0.68653  0.58631  0.94333  1.0000
  C   C25       1.0  0.43720  0.53855  0.69827  1.0000
  C   C26       1.0  0.56279  0.46146  0.30173  1.0000
  C   C27       1.0  0.44737  0.32509  0.63549  1.0000
  C   C28       1.0  0.55263  0.67492  0.36451  1.0000
  C   C29       1.0  0.36288  0.28569  0.92116  1.0000
  C   C30       1.0  0.63712  0.71431  0.07884  1.0000
  C   C31       1.0  0.34408  0.38591  0.95008  1.0000
  C   C32       1.0  0.65592  0.61410  0.04992  1.0000
  C   C33       1.0  0.35502  0.46604  0.87450  1.0000
  C   C34       1.0  0.64498  0.53397  0.12550  1.0000
  C   C35       1.0  0.39590  0.44904  0.77237  1.0000
  C   C36       1.0  0.60409  0.55097  0.22763  1.0000
  C   C37       1.0  0.40552  0.34961  0.74371  1.0000
  C   C38       1.0  0.59448  0.65039  0.25629  1.0000
  C   C39       1.0  0.38580  0.26995  0.81843  1.0000
  C   C40       1.0  0.61421  0.73005  0.18157  1.0000
  O   O1        1.0  0.86895  0.04759  0.08023  1.0000
  O   O2        1.0  0.13105  0.95241  0.91978  1.0000
  O   O3        1.0  0.61063  0.05059  0.17395  1.0000
  O   O4        1.0  0.38938  0.94942  0.82605  1.0000
  O   O5        1.0  0.19115  0.70272  0.21073  1.0000
  O   O6        1.0  0.80885  0.29728  0.78927  1.0000
  O   O7        1.0  0.99961  0.62076  0.31843  1.0000
  O   O8        1.0  0.00038  0.37924  0.68157  1.0000
  O   O9        1.0  0.15735  0.72363  0.46849  1.0000
  O   O10       1.0  0.84265  0.27636  0.53150  1.0000
  O   O11       1.0  0.91038  0.74675  0.56958  1.0000
  O   O12       1.0  0.08963  0.25325  0.43042  1.0000
  O   O13       1.0  0.63489  0.11304  0.43286  1.0000
  O   O14       1.0  0.36510  0.88695  0.56714  1.0000
  O   O15       1.0  0.82830  0.16498  0.30429  1.0000
  O   O16       1.0  0.17170  0.83502  0.69572  1.0000
  O   O17       1.0  0.27788  0.12184  0.98102  1.0000
  O   O18       1.0  0.72211  0.87817  0.01898  1.0000
  O   O19       1.0  0.48052  0.18760  0.05577  1.0000
  O   O20       1.0  0.51947  0.81240  0.94423  1.0000
  O   O21       1.0  0.37152  0.35299  0.12993  1.0000
  O   O22       1.0  0.62850  0.64702  0.87007  1.0000
  O   O23       1.0  0.23804  0.49543  0.07863  1.0000
  O   O24       1.0  0.76195  0.50457  0.92137  1.0000
  O   O25       1.0  0.31464  0.59422  0.66765  1.0000
  O   O26       1.0  0.68534  0.40577  0.33235  1.0000
  O   O27       1.0  0.59002  0.56129  0.67577  1.0000
  O   O28       1.0  0.40997  0.43872  0.32423  1.0000
  O   O29       1.0  0.48776  0.39742  0.57025  1.0000
  O   O30       1.0  0.51225  0.60258  0.42976  1.0000
  O   O31       1.0  0.44820  0.23347  0.61540  1.0000
  O   O32       1.0  0.55179  0.76654  0.38460  1.0000
  O   O33       1.0  0.13914  0.12258  0.21576  1.0000
  O   O34       1.0  0.86086  0.87741  0.78424  1.0000
  O   O35       1.0  0.28944  0.86455  0.11474  1.0000
  O   O36       1.0  0.71055  0.13545  0.88526  1.0000
  O   O37       1.0  0.64786  0.83407  0.66675  1.0000
  O   O38       1.0  0.35215  0.16593  0.33325  1.0000
  O   O39       1.0  0.01535  0.37788  0.27664  1.0000
  O   O40       1.0  0.98464  0.62212  0.72336  1.0000
