data_image0
_chemical_formula_structural       Sr2H14C14N2O12
_chemical_formula_sum              "Sr2 H14 C14 N2 O12"
_cell_length_a       7.77135
_cell_length_b       8.07467
_cell_length_c       8.07734
_cell_angle_alpha    88.2423
_cell_angle_beta     71.4519
_cell_angle_gamma    71.9487

_space_group_name_H-M_alt    "P 1"
_space_group_IT_number       1

loop_
  _space_group_symop_operation_xyz
  'x, y, z'

loop_
  _atom_site_type_symbol
  _atom_site_label
  _atom_site_symmetry_multiplicity
  _atom_site_fract_x
  _atom_site_fract_y
  _atom_site_fract_z
  _atom_site_occupancy
  Sr  Sr1       1.0  0.69303  0.64892  0.37221  1.0000
  Sr  Sr2       1.0  0.30697  0.35108  0.62779  1.0000
  H   H1        1.0  0.65277  0.28893  0.83657  1.0000
  H   H2        1.0  0.34723  0.71107  0.16343  1.0000
  H   H3        1.0  0.78755  0.73384  0.88346  1.0000
  H   H4        1.0  0.21245  0.26616  0.11654  1.0000
  H   H5        1.0  0.70010  0.05697  0.31362  1.0000
  H   H6        1.0  0.29991  0.94303  0.68638  1.0000
  H   H7        1.0  0.13633  0.56166  0.11888  1.0000
  H   H8        1.0  0.86367  0.43834  0.88112  1.0000
  H   H9        1.0  0.99031  0.28084  0.43287  1.0000
  H   H10       1.0  0.00968  0.71917  0.56713  1.0000
  H   H11       1.0  0.77980  0.26545  0.51494  1.0000
  H   H12       1.0  0.22020  0.73456  0.48507  1.0000
  H   H13       1.0  0.11577  0.58574  0.32215  1.0000
  H   H14       1.0  0.88423  0.41426  0.67785  1.0000
  C   C1        1.0  0.71285  0.98716  0.65591  1.0000
  C   C2        1.0  0.28715  0.01283  0.34409  1.0000
  C   C3        1.0  0.72378  0.00868  0.83618  1.0000
  C   C4        1.0  0.27622  0.99132  0.16382  1.0000
  C   C5        1.0  0.68462  0.17548  0.91110  1.0000
  C   C6        1.0  0.31538  0.82452  0.08890  1.0000
  C   C7        1.0  0.67801  0.19476  0.08395  1.0000
  C   C8        1.0  0.32198  0.80524  0.91605  1.0000
  C   C9        1.0  0.75708  0.86582  0.93807  1.0000
  C   C10       1.0  0.24292  0.13418  0.06193  1.0000
  C   C11       1.0  0.63688  0.36956  0.17246  1.0000
  C   C12       1.0  0.36311  0.63044  0.82754  1.0000
  C   C13       1.0  0.70916  0.04489  0.17635  1.0000
  C   C14       1.0  0.29085  0.95511  0.82365  1.0000
  N   N1        1.0  0.74806  0.88322  0.10617  1.0000
  N   N2        1.0  0.25194  0.11679  0.89383  1.0000
  O   O1        1.0  0.53045  0.40343  0.33146  1.0000
  O   O2        1.0  0.46954  0.59657  0.66853  1.0000
  O   O3        1.0  0.63734  0.12524  0.58950  1.0000
  O   O4        1.0  0.36266  0.87477  0.41051  1.0000
  O   O5        1.0  0.71464  0.47769  0.08664  1.0000
  O   O6        1.0  0.28536  0.52231  0.91336  1.0000
  O   O7        1.0  0.77534  0.83459  0.57994  1.0000
  O   O8        1.0  0.22466  0.16542  0.42006  1.0000
  O   O9        1.0  0.85220  0.34953  0.48058  1.0000
  O   O10       1.0  0.14779  0.65047  0.51942  1.0000
  O   O11       1.0  0.05102  0.56415  0.24160  1.0000
  O   O12       1.0  0.94898  0.43585  0.75840  1.0000
