data_image0
_chemical_formula_structural       Mn6H18C30N12Cl6O12
_chemical_formula_sum              "Mn6 H18 C30 N12 Cl6 O12"
_cell_length_a       6.83529
_cell_length_b       15.2897
_cell_length_c       15.2897
_cell_angle_alpha    120.002
_cell_angle_beta     89.9992
_cell_angle_gamma    90.0001

_space_group_name_H-M_alt    "P 1"
_space_group_IT_number       1

loop_
  _space_group_symop_operation_xyz
  'x, y, z'

loop_
  _atom_site_type_symbol
  _atom_site_label
  _atom_site_symmetry_multiplicity
  _atom_site_fract_x
  _atom_site_fract_y
  _atom_site_fract_z
  _atom_site_occupancy
  Mn  Mn1       1.0  0.50000  0.00000  0.37854  1.0000
  Mn  Mn2       1.0  0.49999  0.62147  0.62147  1.0000
  Mn  Mn3       1.0  0.50001  0.37854  0.00001  1.0000
  Mn  Mn4       1.0  0.50000  1.00000  0.62147  1.0000
  Mn  Mn5       1.0  0.50000  0.37853  0.37853  1.0000
  Mn  Mn6       1.0  0.50000  0.62147  0.99999  1.0000
  H   H1        1.0  0.87599  0.25402  0.50803  1.0000
  H   H2        1.0  0.87601  0.49197  0.74599  1.0000
  H   H3        1.0  0.87601  0.25402  0.74598  1.0000
  H   H4        1.0  0.12398  0.50803  0.25401  1.0000
  H   H5        1.0  0.12400  0.74598  0.49196  1.0000
  H   H6        1.0  0.12400  0.74598  0.25401  1.0000
  H   H7        1.0  0.05292  0.09308  0.46888  1.0000
  H   H8        1.0  0.05292  0.53114  0.62420  1.0000
  H   H9        1.0  0.05292  0.37580  0.90693  1.0000
  H   H10       1.0  0.94707  0.46887  0.09307  1.0000
  H   H11       1.0  0.94709  0.62420  0.53113  1.0000
  H   H12       1.0  0.94708  0.90693  0.37580  1.0000
  H   H13       1.0  0.94708  0.90692  0.53113  1.0000
  H   H14       1.0  0.94708  0.46887  0.37579  1.0000
  H   H15       1.0  0.94708  0.62420  0.09307  1.0000
  H   H16       1.0  0.05292  0.53114  0.90693  1.0000
  H   H17       1.0  0.05292  0.37579  0.46886  1.0000
  H   H18       1.0  0.05293  0.09307  0.62421  1.0000
  C   C1        1.0  0.58675  0.17453  0.34907  1.0000
  C   C2        1.0  0.58676  0.65094  0.82545  1.0000
  C   C3        1.0  0.58676  0.17454  0.82547  1.0000
  C   C4        1.0  0.41323  0.34906  0.17452  1.0000
  C   C5        1.0  0.41324  0.82546  0.65093  1.0000
  C   C6        1.0  0.41325  0.82547  0.17455  1.0000
  C   C7        1.0  0.38301  0.19770  0.39540  1.0000
  C   C8        1.0  0.38302  0.60461  0.80231  1.0000
  C   C9        1.0  0.38302  0.19770  0.80231  1.0000
  C   C10       1.0  0.61698  0.39539  0.19769  1.0000
  C   C11       1.0  0.61699  0.80231  0.60461  1.0000
  C   C12       1.0  0.61698  0.80230  0.19770  1.0000
  C   C13       1.0  0.02285  0.23824  0.47648  1.0000
  C   C14       1.0  0.02283  0.52353  0.76176  1.0000
  C   C15       1.0  0.02285  0.23824  0.76176  1.0000
  C   C16       1.0  0.97715  0.47648  0.23824  1.0000
  C   C17       1.0  0.97716  0.76176  0.52352  1.0000
  C   C18       1.0  0.97715  0.76176  0.23824  1.0000
  C   C19       1.0  0.11970  0.14958  0.45470  1.0000
  C   C20       1.0  0.11974  0.54532  0.69489  1.0000
  C   C21       1.0  0.11973  0.30512  0.85042  1.0000
  C   C22       1.0  0.88027  0.45469  0.14957  1.0000
  C   C23       1.0  0.88028  0.69489  0.54531  1.0000
  C   C24       1.0  0.88027  0.85043  0.30512  1.0000
  C   C25       1.0  0.88027  0.85042  0.54531  1.0000
  C   C26       1.0  0.88027  0.45469  0.30511  1.0000
  C   C27       1.0  0.88027  0.69488  0.14957  1.0000
  C   C28       1.0  0.11974  0.54532  0.85043  1.0000
  C   C29       1.0  0.11970  0.30511  0.45469  1.0000
  C   C30       1.0  0.11973  0.14957  0.69488  1.0000
  N   N1        1.0  0.30038  0.12964  0.41454  1.0000
  N   N2        1.0  0.30035  0.58546  0.71510  1.0000
  N   N3        1.0  0.30036  0.28490  0.87037  1.0000
  N   N4        1.0  0.69963  0.41454  0.12964  1.0000
  N   N5        1.0  0.69964  0.71510  0.58545  1.0000
  N   N6        1.0  0.69963  0.87036  0.28490  1.0000
  N   N7        1.0  0.69964  0.87036  0.58546  1.0000
  N   N8        1.0  0.69964  0.41453  0.28490  1.0000
  N   N9        1.0  0.69963  0.71509  0.12964  1.0000
  N   N10       1.0  0.30036  0.58546  0.87037  1.0000
  N   N11       1.0  0.30038  0.28490  0.41454  1.0000
  N   N12       1.0  0.30038  0.12964  0.71510  1.0000
  Cl  Cl1       1.0  0.29527  0.92669  0.46334  1.0000
  Cl  Cl2       1.0  0.29526  0.53665  0.46334  1.0000
  Cl  Cl3       1.0  0.29527  0.53666  0.07331  1.0000
  Cl  Cl4       1.0  0.70474  0.46335  0.92668  1.0000
  Cl  Cl5       1.0  0.70473  0.46334  0.53666  1.0000
  Cl  Cl6       1.0  0.70474  0.07332  0.53666  1.0000
  O   O1        1.0  0.66291  0.09230  0.33276  1.0000
  O   O2        1.0  0.66292  0.66724  0.75954  1.0000
  O   O3        1.0  0.66292  0.24046  0.90770  1.0000
  O   O4        1.0  0.33709  0.33277  0.09231  1.0000
  O   O5        1.0  0.33707  0.75954  0.66723  1.0000
  O   O6        1.0  0.33708  0.90770  0.24046  1.0000
  O   O7        1.0  0.33708  0.90769  0.66723  1.0000
  O   O8        1.0  0.33708  0.33276  0.24045  1.0000
  O   O9        1.0  0.33707  0.75954  0.09231  1.0000
  O   O10       1.0  0.66294  0.66724  0.90770  1.0000
  O   O11       1.0  0.66291  0.24045  0.33276  1.0000
  O   O12       1.0  0.66292  0.09230  0.75954  1.0000
