data_image0
_chemical_formula_structural       Cu2H36C38N4O8
_chemical_formula_sum              "Cu2 H36 C38 N4 O8"
_cell_length_a       9.66057
_cell_length_b       10.1746
_cell_length_c       10.9008
_cell_angle_alpha    113.484
_cell_angle_beta     116.875
_cell_angle_gamma    91.4113

_space_group_name_H-M_alt    "P 1"
_space_group_IT_number       1

loop_
  _space_group_symop_operation_xyz
  'x, y, z'

loop_
  _atom_site_type_symbol
  _atom_site_label
  _atom_site_symmetry_multiplicity
  _atom_site_fract_x
  _atom_site_fract_y
  _atom_site_fract_z
  _atom_site_occupancy
  Cu  Cu1       1.0  0.56768  0.56090  0.70533  1.0000
  Cu  Cu2       1.0  0.43232  0.43911  0.29468  1.0000
  H   H1        1.0  0.66776  0.87819  0.97559  1.0000
  H   H2        1.0  0.33225  0.12181  0.02441  1.0000
  H   H3        1.0  0.58760  0.99300  0.17633  1.0000
  H   H4        1.0  0.41240  0.00702  0.82367  1.0000
  H   H5        1.0  0.38057  0.83891  0.17736  1.0000
  H   H6        1.0  0.61942  0.16110  0.82262  1.0000
  H   H7        1.0  0.19284  0.58730  0.05375  1.0000
  H   H8        1.0  0.80715  0.41272  0.94626  1.0000
  H   H9        1.0  0.08478  0.32678  0.85338  1.0000
  H   H10       1.0  0.91523  0.67324  0.14664  1.0000
  H   H11       1.0  0.09040  0.11518  0.62826  1.0000
  H   H12       1.0  0.90960  0.88482  0.37175  1.0000
  H   H13       1.0  0.20031  0.03485  0.44615  1.0000
  H   H14       1.0  0.79969  0.96517  0.55388  1.0000
  H   H15       1.0  0.39480  0.22295  0.46991  1.0000
  H   H16       1.0  0.60518  0.77705  0.53010  1.0000
  H   H17       1.0  0.94992  0.93040  0.81864  1.0000
  H   H18       1.0  0.05012  0.06959  0.18137  1.0000
  H   H19       1.0  0.10035  0.89087  0.96091  1.0000
  H   H20       1.0  0.89966  0.10909  0.03908  1.0000
  H   H21       1.0  0.04845  0.63570  0.75350  1.0000
  H   H22       1.0  0.95155  0.36427  0.24648  1.0000
  H   H23       1.0  0.89789  0.67434  0.61389  1.0000
  H   H24       1.0  0.10210  0.32563  0.38609  1.0000
  H   H25       1.0  0.25398  0.83790  0.81372  1.0000
  H   H26       1.0  0.74601  0.16209  0.18626  1.0000
  H   H27       1.0  0.10617  0.89068  0.68609  1.0000
  H   H28       1.0  0.89382  0.10930  0.31389  1.0000
  H   H29       1.0  0.04499  0.64124  0.46310  1.0000
  H   H30       1.0  0.95502  0.35875  0.53688  1.0000
  H   H31       1.0  0.20027  0.59484  0.59116  1.0000
  H   H32       1.0  0.79974  0.40515  0.40882  1.0000
  H   H33       1.0  0.24465  0.86292  0.53667  1.0000
  H   H34       1.0  0.75537  0.13708  0.46335  1.0000
  H   H35       1.0  0.39994  0.80975  0.66179  1.0000
  H   H36       1.0  0.60005  0.19025  0.33821  1.0000
  C   C1        1.0  0.57802  0.81509  0.97896  1.0000
  C   C2        1.0  0.42198  0.18492  0.02103  1.0000
  C   C3        1.0  0.53157  0.87778  0.09056  1.0000
  C   C4        1.0  0.46844  0.12223  0.90944  1.0000
  C   C5        1.0  0.41778  0.79325  0.09128  1.0000
  C   C6        1.0  0.58223  0.20676  0.90872  1.0000
  C   C7        1.0  0.35019  0.64304  0.97933  1.0000
  C   C8        1.0  0.64982  0.35696  0.02068  1.0000
  C   C9        1.0  0.23193  0.54483  0.96887  1.0000
  C   C10       1.0  0.76806  0.45518  0.03113  1.0000
  C   C11       1.0  0.17290  0.40000  0.85779  1.0000
  C   C12       1.0  0.82709  0.60002  0.14221  1.0000
  C   C13       1.0  0.22908  0.34190  0.75046  1.0000
  C   C14       1.0  0.77092  0.65811  0.24956  1.0000
  C   C15       1.0  0.17753  0.19282  0.63589  1.0000
  C   C16       1.0  0.82246  0.80719  0.36412  1.0000
  C   C17       1.0  0.23796  0.14861  0.53651  1.0000
  C   C18       1.0  0.76203  0.85139  0.46352  1.0000
  C   C19       1.0  0.35036  0.25252  0.55047  1.0000
  C   C20       1.0  0.64963  0.74748  0.44954  1.0000
  C   C21       1.0  0.34468  0.43738  0.75748  1.0000
  C   C22       1.0  0.65532  0.56263  0.24252  1.0000
  C   C23       1.0  0.40515  0.58884  0.87222  1.0000
  C   C24       1.0  0.59484  0.41117  0.12778  1.0000
  C   C25       1.0  0.86278  0.77078  0.86829  1.0000
  C   C26       1.0  0.13723  0.22922  0.13170  1.0000
  C   C27       1.0  0.98755  0.84128  0.84918  1.0000
  C   C28       1.0  0.01245  0.15870  0.15082  1.0000
  C   C29       1.0  0.01257  0.72549  0.72366  1.0000
  C   C30       1.0  0.98742  0.27449  0.27634  1.0000
  C   C31       1.0  0.13851  0.79393  0.70425  1.0000
  C   C32       1.0  0.86148  0.20606  0.29573  1.0000
  C   C33       1.0  0.16071  0.68887  0.57223  1.0000
  C   C34       1.0  0.83930  0.31112  0.42776  1.0000
  C   C35       1.0  0.28226  0.76820  0.55495  1.0000
  C   C36       1.0  0.71774  0.23180  0.44505  1.0000
  C   C37       1.0  0.30607  0.66912  0.42215  1.0000
  C   C38       1.0  0.69396  0.33089  0.57786  1.0000
  N   N1        1.0  0.51552  0.67400  0.87193  1.0000
  N   N2        1.0  0.48447  0.32600  0.12806  1.0000
  N   N3        1.0  0.40299  0.39289  0.65896  1.0000
  N   N4        1.0  0.59700  0.60709  0.34104  1.0000
  O   O1        1.0  0.71613  0.73168  0.75218  1.0000
  O   O2        1.0  0.28387  0.26834  0.24783  1.0000
  O   O3        1.0  0.90306  0.75022  0.98361  1.0000
  O   O4        1.0  0.09693  0.24977  0.01637  1.0000
  O   O5        1.0  0.26440  0.69032  0.30692  1.0000
  O   O6        1.0  0.73559  0.30969  0.69310  1.0000
  O   O7        1.0  0.37490  0.56585  0.44528  1.0000
  O   O8        1.0  0.62509  0.43415  0.55472  1.0000
