data_image0
_chemical_formula_structural       Cr2CdH42C42N8O12
_chemical_formula_sum              "Cr2 Cd1 H42 C42 N8 O12"
_cell_length_a       10.623
_cell_length_b       10.8997
_cell_length_c       11.1018
_cell_angle_alpha    69.8385
_cell_angle_beta     69.905
_cell_angle_gamma    67.265

_space_group_name_H-M_alt    "P 1"
_space_group_IT_number       1

loop_
  _space_group_symop_operation_xyz
  'x, y, z'

loop_
  _atom_site_type_symbol
  _atom_site_label
  _atom_site_symmetry_multiplicity
  _atom_site_fract_x
  _atom_site_fract_y
  _atom_site_fract_z
  _atom_site_occupancy
  Cr  Cr1       1.0  0.32557  0.96658  0.70149  1.0000
  Cr  Cr2       1.0  0.67443  0.03341  0.29852  1.0000
  Cd  Cd1       1.0  1.00000  1.00000  0.00000  1.0000
  H   H1        1.0  0.61913  0.64688  0.69327  1.0000
  H   H2        1.0  0.38086  0.35313  0.30672  1.0000
  H   H3        1.0  0.58422  0.79782  0.56259  1.0000
  H   H4        1.0  0.41577  0.20219  0.43742  1.0000
  H   H5        1.0  0.66076  0.79435  0.68503  1.0000
  H   H6        1.0  0.33922  0.20565  0.31498  1.0000
  H   H7        1.0  0.82037  0.94251  0.52684  1.0000
  H   H8        1.0  0.17963  0.05749  0.47316  1.0000
  H   H9        1.0  0.13605  0.58275  0.74922  1.0000
  H   H10       1.0  0.86396  0.41724  0.25078  1.0000
  H   H11       1.0  0.16355  0.21619  0.88319  1.0000
  H   H12       1.0  0.83645  0.78380  0.11681  1.0000
  H   H13       1.0  0.88436  0.63158  0.82546  1.0000
  H   H14       1.0  0.11565  0.36842  0.17454  1.0000
  H   H15       1.0  0.68440  0.53510  0.89605  1.0000
  H   H16       1.0  0.31560  0.46489  0.10395  1.0000
  H   H17       1.0  0.73448  0.27918  0.96392  1.0000
  H   H18       1.0  0.26552  0.72082  0.03609  1.0000
  H   H19       1.0  0.65618  0.09249  0.01950  1.0000
  H   H20       1.0  0.34382  0.90752  0.98050  1.0000
  H   H21       1.0  0.50337  0.12279  0.87623  1.0000
  H   H22       1.0  0.49662  0.87722  0.12377  1.0000
  H   H23       1.0  0.61459  0.03386  0.67197  1.0000
  H   H24       1.0  0.38540  0.96615  0.32803  1.0000
  H   H25       1.0  0.01459  0.89497  0.77216  1.0000
  H   H26       1.0  0.98540  0.10502  0.22785  1.0000
  H   H27       1.0  0.98057  0.84367  0.37045  1.0000
  H   H28       1.0  0.01943  0.15633  0.62956  1.0000
  H   H29       1.0  0.15613  0.75889  0.38975  1.0000
  H   H30       1.0  0.84387  0.24111  0.61025  1.0000
  H   H31       1.0  0.81260  0.71476  0.43630  1.0000
  H   H32       1.0  0.18740  0.28524  0.56370  1.0000
  H   H33       1.0  0.22912  0.50943  0.50315  1.0000
  H   H34       1.0  0.77088  0.49057  0.49685  1.0000
  H   H35       1.0  0.46328  0.45965  0.83325  1.0000
  H   H36       1.0  0.53673  0.54036  0.16674  1.0000
  H   H37       1.0  0.32793  0.61223  0.78758  1.0000
  H   H38       1.0  0.67207  0.38777  0.21241  1.0000
  H   H39       1.0  0.51544  0.28289  0.67404  1.0000
  H   H40       1.0  0.48456  0.71712  0.32595  1.0000
  H   H41       1.0  0.37943  0.72439  0.56009  1.0000
  H   H42       1.0  0.62058  0.27561  0.43991  1.0000
  C   C1        1.0  0.58548  0.75961  0.66786  1.0000
  C   C2        1.0  0.41451  0.24039  0.33215  1.0000
  C   C3        1.0  0.05907  0.28960  0.88586  1.0000
  C   C4        1.0  0.94093  0.71040  0.11413  1.0000
  C   C5        1.0  0.04005  0.43125  0.84958  1.0000
  C   C6        1.0  0.95995  0.56874  0.15042  1.0000
  C   C7        1.0  0.90317  0.52107  0.85132  1.0000
  C   C8        1.0  0.09684  0.47892  0.14867  1.0000
  C   C9        1.0  0.79193  0.46731  0.89090  1.0000
  C   C10       1.0  0.20808  0.53269  0.10909  1.0000
  C   C11       1.0  0.81890  0.32569  0.92863  1.0000
  C   C12       1.0  0.18110  0.67431  0.07137  1.0000
  C   C13       1.0  0.70055  0.05537  0.92960  1.0000
  C   C14       1.0  0.29944  0.94464  0.07040  1.0000
  C   C15       1.0  0.61598  0.07023  0.85043  1.0000
  C   C16       1.0  0.38402  0.92977  0.14957  1.0000
  C   C17       1.0  0.67803  0.02027  0.73737  1.0000
  C   C18       1.0  0.32197  0.97973  0.26264  1.0000
  C   C19       1.0  0.82328  0.95287  0.70787  1.0000
  C   C20       1.0  0.17672  0.04712  0.29214  1.0000
  C   C21       1.0  0.90130  0.94259  0.79228  1.0000
  C   C22       1.0  0.09870  0.05741  0.20773  1.0000
  C   C23       1.0  0.00987  0.80626  0.56581  1.0000
  C   C24       1.0  0.99013  0.19374  0.43419  1.0000
  C   C25       1.0  0.04508  0.76546  0.43706  1.0000
  C   C26       1.0  0.95492  0.23454  0.56294  1.0000
  C   C27       1.0  0.02335  0.62782  0.46651  1.0000
  C   C28       1.0  0.97666  0.37218  0.53350  1.0000
  C   C29       1.0  0.89487  0.62068  0.46524  1.0000
  C   C30       1.0  0.10513  0.37932  0.53476  1.0000
  C   C31       1.0  0.12857  0.50568  0.50132  1.0000
  C   C32       1.0  0.87143  0.49432  0.49868  1.0000
  C   C33       1.0  0.27799  0.42168  0.84490  1.0000
  C   C34       1.0  0.72202  0.57832  0.15509  1.0000
  C   C35       1.0  0.38046  0.50577  0.77866  1.0000
  C   C36       1.0  0.61955  0.49423  0.22133  1.0000
  C   C37       1.0  0.44236  0.50374  0.63427  1.0000
  C   C38       1.0  0.55764  0.49627  0.36573  1.0000
  C   C39       1.0  0.50953  0.37855  0.59787  1.0000
  C   C40       1.0  0.49047  0.62145  0.40212  1.0000
  C   C41       1.0  0.43280  0.62561  0.53450  1.0000
  C   C42       1.0  0.56720  0.37439  0.46549  1.0000
  N   N1        1.0  0.95040  0.23949  0.92501  1.0000
  N   N2        1.0  0.04960  0.76051  0.07499  1.0000
  N   N3        1.0  0.84036  0.99492  0.89909  1.0000
  N   N4        1.0  0.15964  0.00508  0.10091  1.0000
  N   N5        1.0  0.88408  0.90401  0.59284  1.0000
  N   N6        1.0  0.11592  0.09599  0.40716  1.0000
  N   N7        1.0  0.15190  0.48481  0.80974  1.0000
  N   N8        1.0  0.84811  0.51518  0.19025  1.0000
  O   O1        1.0  0.17619  0.96494  0.81138  1.0000
  O   O2        1.0  0.82380  0.03506  0.18862  1.0000
  O   O3        1.0  0.37524  0.09108  0.69689  1.0000
  O   O4        1.0  0.62474  0.90891  0.30314  1.0000
  O   O5        1.0  0.44913  0.80554  0.75054  1.0000
  O   O6        1.0  0.55086  0.19446  0.24946  1.0000
  O   O7        1.0  0.31180  0.98178  0.55494  1.0000
  O   O8        1.0  0.68820  0.01824  0.44506  1.0000
  O   O9        1.0  0.08978  0.75005  0.64217  1.0000
  O   O10       1.0  0.91022  0.24995  0.35783  1.0000
  O   O11       1.0  0.30754  0.30700  0.92160  1.0000
  O   O12       1.0  0.69247  0.69300  0.07839  1.0000
