data_image0
_chemical_formula_structural       Cd2H16C8N8O16
_chemical_formula_sum              "Cd2 H16 C8 N8 O16"
_cell_length_a       7.4894
_cell_length_b       8.77525
_cell_length_c       8.77526
_cell_angle_alpha    84.9566
_cell_angle_beta     73.5826
_cell_angle_gamma    73.5823

_space_group_name_H-M_alt    "P 1"
_space_group_IT_number       1

loop_
  _space_group_symop_operation_xyz
  'x, y, z'

loop_
  _atom_site_type_symbol
  _atom_site_label
  _atom_site_symmetry_multiplicity
  _atom_site_fract_x
  _atom_site_fract_y
  _atom_site_fract_z
  _atom_site_occupancy
  Cd  Cd1       1.0  0.50000  0.50000  0.50000  1.0000
  Cd  Cd2       1.0  0.00000  1.00000  0.00000  1.0000
  H   H1        1.0  0.31279  0.50524  0.24734  1.0000
  H   H2        1.0  0.18722  0.25266  0.99476  1.0000
  H   H3        1.0  0.68721  0.49476  0.75266  1.0000
  H   H4        1.0  0.81278  0.74734  0.00524  1.0000
  H   H5        1.0  0.48911  0.58103  0.18029  1.0000
  H   H6        1.0  0.01089  0.31970  0.91897  1.0000
  H   H7        1.0  0.51089  0.41897  0.81971  1.0000
  H   H8        1.0  0.98911  0.68030  0.08103  1.0000
  H   H9        1.0  0.75000  0.27627  0.22374  1.0000
  H   H10       1.0  0.24999  0.72373  0.77627  1.0000
  H   H11       1.0  0.54996  0.14997  0.69551  1.0000
  H   H12       1.0  0.95004  0.80449  0.35002  1.0000
  H   H13       1.0  0.45004  0.85002  0.30449  1.0000
  H   H14       1.0  0.04997  0.19551  0.64998  1.0000
  H   H15       1.0  0.75000  0.86560  0.63439  1.0000
  H   H16       1.0  0.25001  0.13440  0.36561  1.0000
  C   C1        1.0  0.75001  0.18446  0.31554  1.0000
  C   C2        1.0  0.24999  0.81555  0.68446  1.0000
  C   C3        1.0  0.64045  0.11341  0.57657  1.0000
  C   C4        1.0  0.85956  0.92343  0.38658  1.0000
  C   C5        1.0  0.35954  0.88660  0.42343  1.0000
  C   C6        1.0  0.14044  0.07658  0.61342  1.0000
  C   C7        1.0  0.75000  0.95735  0.54265  1.0000
  C   C8        1.0  0.25001  0.04265  0.45735  1.0000
  N   N1        1.0  0.94795  0.49820  0.31947  1.0000
  N   N2        1.0  0.55205  0.18053  0.00180  1.0000
  N   N3        1.0  0.05205  0.50180  0.68053  1.0000
  N   N4        1.0  0.44795  0.81947  0.99820  1.0000
  N   N5        1.0  0.64207  0.22681  0.46280  1.0000
  N   N6        1.0  0.85793  0.03721  0.27319  1.0000
  N   N7        1.0  0.35793  0.77319  0.53720  1.0000
  N   N8        1.0  0.14207  0.96279  0.72681  1.0000
  O   O1        1.0  0.44620  0.49662  0.25232  1.0000
  O   O2        1.0  0.05381  0.24768  0.00337  1.0000
  O   O3        1.0  0.55380  0.50338  0.74768  1.0000
  O   O4        1.0  0.94619  0.75232  0.99663  1.0000
  O   O5        1.0  0.77277  0.57673  0.32913  1.0000
  O   O6        1.0  0.72722  0.17087  0.92328  1.0000
  O   O7        1.0  0.22723  0.42327  0.67087  1.0000
  O   O8        1.0  0.27277  0.82913  0.07672  1.0000
  O   O9        1.0  0.98831  0.37615  0.40027  1.0000
  O   O10       1.0  0.51169  0.09972  0.12385  1.0000
  O   O11       1.0  0.01169  0.62386  0.59972  1.0000
  O   O12       1.0  0.48831  0.90028  0.87614  1.0000
  O   O13       1.0  0.08029  0.55157  0.22285  1.0000
  O   O14       1.0  0.41971  0.27715  0.94843  1.0000
  O   O15       1.0  0.91971  0.44843  0.77715  1.0000
  O   O16       1.0  0.58029  0.72285  0.05157  1.0000
