data_image0
_chemical_formula_structural       K2H72PdC48S4N4O12
_chemical_formula_sum              "K2 H72 Pd1 C48 S4 N4 O12"
_cell_length_a       10.768
_cell_length_b       11.3423
_cell_length_c       12.7786
_cell_angle_alpha    101.578
_cell_angle_beta     110.666
_cell_angle_gamma    98.9043

_space_group_name_H-M_alt    "P 1"
_space_group_IT_number       1

loop_
  _space_group_symop_operation_xyz
  'x, y, z'

loop_
  _atom_site_type_symbol
  _atom_site_label
  _atom_site_symmetry_multiplicity
  _atom_site_fract_x
  _atom_site_fract_y
  _atom_site_fract_z
  _atom_site_occupancy
  K   K1        1.0  0.53320  0.28733  0.75050  1.0000
  K   K2        1.0  0.46680  0.71267  0.24950  1.0000
  H   H1        1.0  0.26000  0.11783  0.38659  1.0000
  H   H2        1.0  0.73999  0.88217  0.61340  1.0000
  H   H3        1.0  0.05103  0.18599  0.31869  1.0000
  H   H4        1.0  0.94896  0.81401  0.68132  1.0000
  H   H5        1.0  0.02623  0.07254  0.38913  1.0000
  H   H6        1.0  0.97377  0.92746  0.61087  1.0000
  H   H7        1.0  0.06348  0.23760  0.56814  1.0000
  H   H8        1.0  0.93652  0.76240  0.43186  1.0000
  H   H9        1.0  0.93070  0.25245  0.44509  1.0000
  H   H10       1.0  0.06930  0.74755  0.55492  1.0000
  H   H11       1.0  0.09232  0.41991  0.42526  1.0000
  H   H12       1.0  0.90767  0.58008  0.57474  1.0000
  H   H13       1.0  0.09405  0.45910  0.56694  1.0000
  H   H14       1.0  0.90595  0.54090  0.43306  1.0000
  H   H15       1.0  0.33593  0.49752  0.57866  1.0000
  H   H16       1.0  0.66406  0.50248  0.42134  1.0000
  H   H17       1.0  0.30164  0.38094  0.64366  1.0000
  H   H18       1.0  0.69836  0.61906  0.35634  1.0000
  H   H19       1.0  0.29095  0.33593  0.39481  1.0000
  H   H20       1.0  0.70904  0.66407  0.60519  1.0000
  H   H21       1.0  0.49936  0.29524  0.38462  1.0000
  H   H22       1.0  0.50064  0.70476  0.61538  1.0000
  H   H23       1.0  0.49368  0.16885  0.44864  1.0000
  H   H24       1.0  0.50631  0.83115  0.55136  1.0000
  H   H25       1.0  0.73314  0.28500  0.48305  1.0000
  H   H26       1.0  0.26685  0.71500  0.51695  1.0000
  H   H27       1.0  0.70686  0.41883  0.56580  1.0000
  H   H28       1.0  0.29314  0.58117  0.43420  1.0000
  H   H29       1.0  0.88096  0.42499  0.72840  1.0000
  H   H30       1.0  0.11903  0.57501  0.27160  1.0000
  H   H31       1.0  0.92434  0.28404  0.67806  1.0000
  H   H32       1.0  0.07566  0.71596  0.32194  1.0000
  H   H33       1.0  0.84317  0.19635  0.81780  1.0000
  H   H34       1.0  0.15682  0.80365  0.18220  1.0000
  H   H35       1.0  0.99218  0.32169  0.88473  1.0000
  H   H36       1.0  0.00782  0.67831  0.11527  1.0000
  H   H37       1.0  0.95034  0.39923  0.05763  1.0000
  H   H38       1.0  0.04966  0.60077  0.94237  1.0000
  H   H39       1.0  0.65298  0.42184  0.99321  1.0000
  H   H40       1.0  0.34701  0.57816  0.00679  1.0000
  H   H41       1.0  0.79957  0.54541  0.04294  1.0000
  H   H42       1.0  0.20042  0.45459  0.95705  1.0000
  H   H43       1.0  0.72128  0.51664  0.20109  1.0000
  H   H44       1.0  0.27872  0.48336  0.79891  1.0000
  H   H45       1.0  0.88908  0.49576  0.23355  1.0000
  H   H46       1.0  0.11092  0.50424  0.76645  1.0000
  H   H47       1.0  0.75133  0.32732  0.27398  1.0000
  H   H48       1.0  0.24867  0.67268  0.72602  1.0000
  H   H49       1.0  0.62483  0.28859  0.13091  1.0000
  H   H50       1.0  0.37517  0.71141  0.86909  1.0000
  H   H51       1.0  0.78413  0.14428  0.14604  1.0000
  H   H52       1.0  0.21587  0.85572  0.85396  1.0000
  H   H53       1.0  0.92451  0.27254  0.19510  1.0000
  H   H54       1.0  0.07549  0.72746  0.80490  1.0000
  H   H55       1.0  0.86205  0.17683  0.99154  1.0000
  H   H56       1.0  0.13794  0.82317  0.00846  1.0000
  H   H57       1.0  0.68529  0.01581  0.84755  1.0000
  H   H58       1.0  0.31471  0.98419  0.15246  1.0000
  H   H59       1.0  0.65710  0.00981  0.97535  1.0000
  H   H60       1.0  0.34290  0.99019  0.02465  1.0000
  H   H61       1.0  0.41720  0.03269  0.87820  1.0000
  H   H62       1.0  0.58280  0.96731  0.12180  1.0000
  H   H63       1.0  0.45147  0.89298  0.81293  1.0000
  H   H64       1.0  0.54853  0.10702  0.18707  1.0000
  H   H65       1.0  0.23710  0.02647  0.70392  1.0000
  H   H66       1.0  0.76290  0.97352  0.29608  1.0000
  H   H67       1.0  0.26131  0.88111  0.64060  1.0000
  H   H68       1.0  0.73869  0.11889  0.35940  1.0000
  H   H69       1.0  0.31490  0.97187  0.49204  1.0000
  H   H70       1.0  0.68510  0.02813  0.50796  1.0000
  H   H71       1.0  0.14586  0.96582  0.48633  1.0000
  H   H72       1.0  0.85414  0.03418  0.51367  1.0000
  Pd  Pd1       1.0  0.00000  0.00000  1.00000  1.0000
  C   C1        1.0  0.23603  0.17871  0.45228  1.0000
  C   C2        1.0  0.76397  0.82129  0.54772  1.0000
  C   C3        1.0  0.08157  0.16860  0.40482  1.0000
  C   C4        1.0  0.91843  0.83140  0.59518  1.0000
  C   C5        1.0  0.04150  0.26062  0.48462  1.0000
  C   C6        1.0  0.95850  0.73938  0.51539  1.0000
  C   C7        1.0  0.12111  0.39352  0.50773  1.0000
  C   C8        1.0  0.87888  0.60647  0.49228  1.0000
  C   C9        1.0  0.27480  0.40316  0.55977  1.0000
  C   C10       1.0  0.72520  0.59684  0.44023  1.0000
  C   C11       1.0  0.31560  0.31344  0.47925  1.0000
  C   C12       1.0  0.68440  0.68656  0.52075  1.0000
  C   C13       1.0  0.52543  0.27096  0.46812  1.0000
  C   C14       1.0  0.47457  0.72904  0.53188  1.0000
  C   C15       1.0  0.67831  0.31632  0.53798  1.0000
  C   C16       1.0  0.32169  0.68368  0.46202  1.0000
  C   C17       1.0  0.85651  0.32338  0.71549  1.0000
  C   C18       1.0  0.14349  0.67662  0.28450  1.0000
  C   C19       1.0  0.88096  0.29669  0.83128  1.0000
  C   C20       1.0  0.11904  0.70331  0.16872  1.0000
  C   C21       1.0  0.83859  0.36517  0.00468  1.0000
  C   C22       1.0  0.16141  0.63482  0.99532  1.0000
  C   C23       1.0  0.76295  0.45239  0.04949  1.0000
  C   C24       1.0  0.23705  0.54761  0.95051  1.0000
  C   C25       1.0  0.78061  0.45554  0.17419  1.0000
  C   C26       1.0  0.21939  0.54446  0.82581  1.0000
  C   C27       1.0  0.73555  0.32488  0.18349  1.0000
  C   C28       1.0  0.26445  0.67512  0.81651  1.0000
  C   C29       1.0  0.81402  0.23915  0.14019  1.0000
  C   C30       1.0  0.18598  0.76085  0.85981  1.0000
  C   C31       1.0  0.79643  0.23401  0.01497  1.0000
  C   C32       1.0  0.20357  0.76599  0.98503  1.0000
  C   C33       1.0  0.62680  0.04697  0.89896  1.0000
  C   C34       1.0  0.37320  0.95303  0.10104  1.0000
  C   C35       1.0  0.47558  0.99509  0.82914  1.0000
  C   C36       1.0  0.52442  0.00491  0.17087  1.0000
  C   C37       1.0  0.29272  0.98263  0.65527  1.0000
  C   C38       1.0  0.70728  0.01736  0.34473  1.0000
  C   C39       1.0  0.25546  0.01096  0.53931  1.0000
  C   C40       1.0  0.74454  0.98904  0.46069  1.0000
  C   C41       1.0  0.29003  0.24976  0.90590  1.0000
  C   C42       1.0  0.70999  0.75025  0.09410  1.0000
  C   C43       1.0  0.21331  0.19334  0.96006  1.0000
  C   C44       1.0  0.78671  0.80666  0.03994  1.0000
  C   C45       1.0  0.24132  0.24087  0.07689  1.0000
  C   C46       1.0  0.75870  0.75913  0.92312  1.0000
  C   C47       1.0  0.34476  0.35051  0.14484  1.0000
  C   C48       1.0  0.65524  0.64949  0.85516  1.0000
  S   S1        1.0  0.08510  0.06083  0.87163  1.0000
  S   S2        1.0  0.91492  0.93917  0.12837  1.0000
  S   S3        1.0  0.15136  0.17102  0.14645  1.0000
  S   S4        1.0  0.84864  0.82898  0.85355  1.0000
  N   N1        1.0  0.35169  0.29293  0.85757  1.0000
  N   N2        1.0  0.64833  0.70707  0.14244  1.0000
  N   N3        1.0  0.42929  0.44202  0.20225  1.0000
  N   N4        1.0  0.57072  0.55799  0.79776  1.0000
  O   O1        1.0  0.28179  0.14225  0.55846  1.0000
  O   O2        1.0  0.71821  0.85775  0.44154  1.0000
  O   O3        1.0  0.46084  0.33154  0.53558  1.0000
  O   O4        1.0  0.53916  0.66846  0.46442  1.0000
  O   O5        1.0  0.71588  0.27057  0.63828  1.0000
  O   O6        1.0  0.28412  0.72943  0.36172  1.0000
  O   O7        1.0  0.81270  0.36873  0.88714  1.0000
  O   O8        1.0  0.18730  0.63127  0.11286  1.0000
  O   O9        1.0  0.65642  0.17949  0.93398  1.0000
  O   O10       1.0  0.34358  0.82051  0.06602  1.0000
  O   O11       1.0  0.43689  0.02624  0.72093  1.0000
  O   O12       1.0  0.56311  0.97376  0.27907  1.0000
