data_image0
_chemical_formula_structural       Dy2H14C16N2O16
_chemical_formula_sum              "Dy2 H14 C16 N2 O16"
_cell_length_a       5.81322
_cell_length_b       10.3359
_cell_length_c       11.2363
_cell_angle_alpha    105.907
_cell_angle_beta     99.6561
_cell_angle_gamma    106.967

_space_group_name_H-M_alt    "P 1"
_space_group_IT_number       1

loop_
  _space_group_symop_operation_xyz
  'x, y, z'

loop_
  _atom_site_type_symbol
  _atom_site_label
  _atom_site_symmetry_multiplicity
  _atom_site_fract_x
  _atom_site_fract_y
  _atom_site_fract_z
  _atom_site_occupancy
  Dy  Dy1       1.0  0.35902  0.81334  0.55742  1.0000
  Dy  Dy2       1.0  0.64097  0.18665  0.44258  1.0000
  H   H1        1.0  0.21087  0.70134  0.10347  1.0000
  H   H2        1.0  0.78914  0.29867  0.89652  1.0000
  H   H3        1.0  0.61393  0.93081  0.99513  1.0000
  H   H4        1.0  0.38608  0.06920  0.00488  1.0000
  H   H5        1.0  0.69373  0.77834  0.77778  1.0000
  H   H6        1.0  0.30627  0.22166  0.22222  1.0000
  H   H7        1.0  0.76181  0.71840  0.64488  1.0000
  H   H8        1.0  0.23820  0.28160  0.35512  1.0000
  H   H9        1.0  0.71663  0.87111  0.40648  1.0000
  H   H10       1.0  0.28337  0.12890  0.59353  1.0000
  H   H11       1.0  0.70230  0.71725  0.40517  1.0000
  H   H12       1.0  0.29770  0.28275  0.59483  1.0000
  H   H13       1.0  0.01761  0.67345  0.87615  1.0000
  H   H14       1.0  0.98238  0.32656  0.12384  1.0000
  C   C1        1.0  0.07954  0.75435  0.08293  1.0000
  C   C2        1.0  0.92047  0.24566  0.91707  1.0000
  C   C3        1.0  0.01706  0.83977  0.18336  1.0000
  C   C4        1.0  0.98296  0.16023  0.81663  1.0000
  C   C5        1.0  0.84994  0.90781  0.15300  1.0000
  C   C6        1.0  0.15007  0.09219  0.84701  1.0000
  C   C7        1.0  0.74756  0.88204  0.02307  1.0000
  C   C8        1.0  0.25245  0.11797  0.97694  1.0000
  C   C9        1.0  0.77808  0.00610  0.25224  1.0000
  C   C10       1.0  0.22193  0.99390  0.74776  1.0000
  C   C11       1.0  0.13409  0.85155  0.31761  1.0000
  C   C12       1.0  0.86592  0.14845  0.68239  1.0000
  C   C13       1.0  0.08289  0.47166  0.46083  1.0000
  C   C14       1.0  0.91705  0.52831  0.53918  1.0000
  C   C15       1.0  0.97145  0.73776  0.95699  1.0000
  C   C16       1.0  0.02855  0.26224  0.04301  1.0000
  N   N1        1.0  0.80495  0.79890  0.92745  1.0000
  N   N2        1.0  0.19506  0.20111  0.07255  1.0000
  O   O1        1.0  0.04138  0.74837  0.35587  1.0000
  O   O2        1.0  0.95863  0.25163  0.64413  1.0000
  O   O3        1.0  0.33302  0.95682  0.38440  1.0000
  O   O4        1.0  0.66697  0.04318  0.61559  1.0000
  O   O5        1.0  0.84848  0.01749  0.37080  1.0000
  O   O6        1.0  0.15154  0.98252  0.62920  1.0000
  O   O7        1.0  0.64933  0.07676  0.21904  1.0000
  O   O8        1.0  0.35067  0.92324  0.78097  1.0000
  O   O9        1.0  0.64485  0.76090  0.68142  1.0000
  O   O10       1.0  0.35516  0.23910  0.31858  1.0000
  O   O11       1.0  0.26858  0.56191  0.45005  1.0000
  O   O12       1.0  0.73136  0.43806  0.54995  1.0000
  O   O13       1.0  0.60857  0.78206  0.41607  1.0000
  O   O14       1.0  0.39143  0.21794  0.58394  1.0000
  O   O15       1.0  0.01415  0.33452  0.41268  1.0000
  O   O16       1.0  0.98583  0.66547  0.58732  1.0000
