data_image0
_chemical_formula_structural       Sm2H14C16N2O16
_chemical_formula_sum              "Sm2 H14 C16 N2 O16"
_cell_length_a       5.93035
_cell_length_b       10.4714
_cell_length_c       11.6039
_cell_angle_alpha    112.628
_cell_angle_beta     103.619
_cell_angle_gamma    106.73

_space_group_name_H-M_alt    "P 1"
_space_group_IT_number       1

loop_
  _space_group_symop_operation_xyz
  'x, y, z'

loop_
  _atom_site_type_symbol
  _atom_site_label
  _atom_site_symmetry_multiplicity
  _atom_site_fract_x
  _atom_site_fract_y
  _atom_site_fract_z
  _atom_site_occupancy
  Sm  Sm1       1.0  0.14271  0.67984  0.45564  1.0000
  Sm  Sm2       1.0  0.85730  0.32018  0.54436  1.0000
  H   H1        1.0  0.35037  0.83298  0.92504  1.0000
  H   H2        1.0  0.64966  0.16702  0.07497  1.0000
  H   H3        1.0  0.89962  0.58229  0.01887  1.0000
  H   H4        1.0  0.10040  0.41771  0.98114  1.0000
  H   H5        1.0  0.52981  0.85379  0.15373  1.0000
  H   H6        1.0  0.47018  0.14620  0.84627  1.0000
  H   H7        1.0  0.79145  0.71309  0.23570  1.0000
  H   H8        1.0  0.20854  0.28690  0.76428  1.0000
  H   H9        1.0  0.71078  0.75630  0.36448  1.0000
  H   H10       1.0  0.28921  0.24370  0.63551  1.0000
  H   H11       1.0  0.83900  0.81107  0.62080  1.0000
  H   H12       1.0  0.16102  0.18894  0.37923  1.0000
  H   H13       1.0  0.82136  0.65785  0.61730  1.0000
  H   H14       1.0  0.17866  0.34215  0.38270  1.0000
  C   C1        1.0  0.47364  0.77686  0.94253  1.0000
  C   C2        1.0  0.52636  0.22313  0.05747  1.0000
  C   C3        1.0  0.53287  0.69115  0.83738  1.0000
  C   C4        1.0  0.46713  0.30884  0.16263  1.0000
  C   C5        1.0  0.69102  0.61990  0.86382  1.0000
  C   C6        1.0  0.30897  0.38009  0.13619  1.0000
  C   C7        1.0  0.77930  0.63740  0.99433  1.0000
  C   C8        1.0  0.22070  0.36259  0.00568  1.0000
  C   C9        1.0  0.41575  0.67887  0.70171  1.0000
  C   C10       1.0  0.58427  0.32113  0.29829  1.0000
  C   C11       1.0  0.76191  0.52397  0.75795  1.0000
  C   C12       1.0  0.23808  0.47602  0.24205  1.0000
  C   C13       1.0  0.42791  0.03715  0.53986  1.0000
  C   C14       1.0  0.57207  0.96287  0.46012  1.0000
  C   C15       1.0  0.57117  0.78780  0.06898  1.0000
  C   C16       1.0  0.42881  0.21219  0.93102  1.0000
  N   N1        1.0  0.72081  0.71869  0.09424  1.0000
  N   N2        1.0  0.27919  0.28130  0.90576  1.0000
  O   O1        1.0  0.51771  0.78504  0.67840  1.0000
  O   O2        1.0  0.48233  0.21498  0.32161  1.0000
  O   O3        1.0  0.19935  0.56704  0.61730  1.0000
  O   O4        1.0  0.80066  0.43299  0.38271  1.0000
  O   O5        1.0  0.68020  0.50922  0.63822  1.0000
  O   O6        1.0  0.31979  0.49078  0.36178  1.0000
  O   O7        1.0  0.89790  0.45792  0.78616  1.0000
  O   O8        1.0  0.10208  0.54206  0.21383  1.0000
  O   O9        1.0  0.81572  0.70841  0.32414  1.0000
  O   O10       1.0  0.18426  0.29156  0.67585  1.0000
  O   O11       1.0  0.92745  0.74453  0.60911  1.0000
  O   O12       1.0  0.07257  0.25548  0.39089  1.0000
  O   O13       1.0  0.26860  0.95684  0.56641  1.0000
  O   O14       1.0  0.73139  0.04319  0.43357  1.0000
  O   O15       1.0  0.48557  0.17712  0.57254  1.0000
  O   O16       1.0  0.51443  0.82290  0.42745  1.0000
