data_image0
_chemical_formula_structural       Cr4Cu2H12C16N8O14
_chemical_formula_sum              "Cr4 Cu2 H12 C16 N8 O14"
_cell_length_a       8.1349
_cell_length_b       8.60167
_cell_length_c       9.99363
_cell_angle_alpha    114.646
_cell_angle_beta     92.3633
_cell_angle_gamma    90.7675

_space_group_name_H-M_alt    "P 1"
_space_group_IT_number       1

loop_
  _space_group_symop_operation_xyz
  'x, y, z'

loop_
  _atom_site_type_symbol
  _atom_site_label
  _atom_site_symmetry_multiplicity
  _atom_site_fract_x
  _atom_site_fract_y
  _atom_site_fract_z
  _atom_site_occupancy
  Cr  Cr1       1.0  0.61736  0.73296  0.49866  1.0000
  Cr  Cr2       1.0  0.38266  0.26702  0.50132  1.0000
  Cr  Cr3       1.0  0.22604  0.26152  0.20415  1.0000
  Cr  Cr4       1.0  0.77398  0.73847  0.79584  1.0000
  Cu  Cu1       1.0  0.05262  0.35059  0.70564  1.0000
  Cu  Cu2       1.0  0.94740  0.64940  0.29436  1.0000
  H   H1        1.0  0.69591  0.17289  0.71188  1.0000
  H   H2        1.0  0.30411  0.82716  0.28817  1.0000
  H   H3        1.0  0.50460  0.23434  0.92329  1.0000
  H   H4        1.0  0.49540  0.76569  0.07675  1.0000
  H   H5        1.0  0.60329  0.44911  0.17621  1.0000
  H   H6        1.0  0.39669  0.55091  0.82383  1.0000
  H   H7        1.0  0.83041  0.41064  0.48518  1.0000
  H   H8        1.0  0.16958  0.58935  0.51482  1.0000
  H   H9        1.0  0.70984  0.22196  0.23074  1.0000
  H   H10       1.0  0.29014  0.77804  0.76924  1.0000
  H   H11       1.0  0.76752  0.90387  0.12879  1.0000
  H   H12       1.0  0.23246  0.09610  0.87118  1.0000
  C   C1        1.0  0.72920  0.26522  0.82405  1.0000
  C   C2        1.0  0.27082  0.73480  0.17599  1.0000
  C   C3        1.0  0.62524  0.29758  0.93996  1.0000
  C   C4        1.0  0.37476  0.70243  0.06006  1.0000
  C   C5        1.0  0.67845  0.41519  0.08054  1.0000
  C   C6        1.0  0.32153  0.58482  0.91948  1.0000
  C   C7        1.0  0.91924  0.45710  0.98676  1.0000
  C   C8        1.0  0.08077  0.54291  0.01326  1.0000
  C   C9        1.0  0.84547  0.27292  0.43532  1.0000
  C   C10       1.0  0.15451  0.72708  0.56468  1.0000
  C   C11       1.0  0.78084  0.16808  0.29447  1.0000
  C   C12       1.0  0.21915  0.83193  0.70552  1.0000
  C   C13       1.0  0.81056  0.99447  0.23968  1.0000
  C   C14       1.0  0.18942  0.00553  0.76030  1.0000
  C   C15       1.0  0.95296  0.03618  0.45537  1.0000
  C   C16       1.0  0.04703  0.96381  0.54463  1.0000
  N   N1        1.0  0.87536  0.34905  0.84883  1.0000
  N   N2        1.0  0.12466  0.65096  0.15121  1.0000
  N   N3        1.0  0.82838  0.49218  0.10313  1.0000
  N   N4        1.0  0.17160  0.50783  0.89688  1.0000
  N   N5        1.0  0.93196  0.20626  0.51482  1.0000
  N   N6        1.0  0.06801  0.79373  0.48518  1.0000
  N   N7        1.0  0.89485  0.92913  0.32159  1.0000
  N   N8        1.0  0.10515  0.07087  0.67840  1.0000
  O   O1        1.0  0.76519  0.61107  0.39817  1.0000
  O   O2        1.0  0.23483  0.38892  0.60178  1.0000
  O   O3        1.0  0.44328  0.67597  0.40629  1.0000
  O   O4        1.0  0.55674  0.32400  0.59370  1.0000
  O   O5        1.0  0.66164  0.93113  0.53910  1.0000
  O   O6        1.0  0.33835  0.06886  0.46089  1.0000
  O   O7        1.0  0.60553  0.70585  0.66363  1.0000
  O   O8        1.0  0.39448  0.29413  0.33634  1.0000
  O   O9        1.0  0.29383  0.30107  0.06993  1.0000
  O   O10       1.0  0.70617  0.69895  0.93007  1.0000
  O   O11       1.0  0.07963  0.39148  0.28359  1.0000
  O   O12       1.0  0.92037  0.60851  0.71640  1.0000
  O   O13       1.0  0.15856  0.06556  0.14270  1.0000
  O   O14       1.0  0.84145  0.93443  0.85727  1.0000
