data_image0
_chemical_formula_structural       K2H16Au2C24N8
_chemical_formula_sum              "K2 H16 Au2 C24 N8"
_cell_length_a       3.75192
_cell_length_b       9.15397
_cell_length_c       18.8444
_cell_angle_alpha    90.0008
_cell_angle_beta     90.0003
_cell_angle_gamma    100.84

_space_group_name_H-M_alt    "P 1"
_space_group_IT_number       1

loop_
  _space_group_symop_operation_xyz
  'x, y, z'

loop_
  _atom_site_type_symbol
  _atom_site_label
  _atom_site_symmetry_multiplicity
  _atom_site_fract_x
  _atom_site_fract_y
  _atom_site_fract_z
  _atom_site_occupancy
  K   K1        1.0  0.75677  0.24126  0.49226  1.0000
  K   K2        1.0  0.24326  0.75874  0.99225  1.0000
  H   H1        1.0  0.37004  0.85782  0.45161  1.0000
  H   H2        1.0  0.62995  0.14217  0.95161  1.0000
  H   H3        1.0  0.56822  0.92173  0.57605  1.0000
  H   H4        1.0  0.43179  0.07826  0.07604  1.0000
  H   H5        1.0  0.63771  0.71622  0.65985  1.0000
  H   H6        1.0  0.36228  0.28377  0.15985  1.0000
  H   H7        1.0  0.48099  0.45241  0.61584  1.0000
  H   H8        1.0  0.51900  0.54759  0.11584  1.0000
  H   H9        1.0  0.54113  0.77928  0.34680  1.0000
  H   H10       1.0  0.45885  0.22071  0.84679  1.0000
  H   H11       1.0  0.36279  0.70114  0.22333  1.0000
  H   H12       1.0  0.63718  0.29886  0.72332  1.0000
  H   H13       1.0  0.94566  0.45427  0.20399  1.0000
  H   H14       1.0  0.05431  0.54573  0.70399  1.0000
  H   H15       1.0  0.73163  0.29779  0.31021  1.0000
  H   H16       1.0  0.26834  0.70221  0.81021  1.0000
  Au  Au1       1.0  0.99576  0.01530  0.74826  1.0000
  Au  Au2       1.0  0.00430  0.98470  0.24826  1.0000
  C   C1        1.0  0.13325  0.09813  0.65341  1.0000
  C   C2        1.0  0.86683  0.90189  0.15341  1.0000
  C   C3        1.0  0.86858  0.94568  0.84574  1.0000
  C   C4        1.0  0.13147  0.05433  0.34575  1.0000
  C   C5        1.0  0.33492  0.62071  0.46795  1.0000
  C   C6        1.0  0.66507  0.37929  0.96794  1.0000
  C   C7        1.0  0.40642  0.77060  0.48879  1.0000
  C   C8        1.0  0.59357  0.22939  0.98878  1.0000
  C   C9        1.0  0.51468  0.80651  0.55831  1.0000
  C   C10       1.0  0.48531  0.19349  0.05830  1.0000
  C   C11       1.0  0.54895  0.69231  0.60526  1.0000
  C   C12       1.0  0.45105  0.30768  0.10526  1.0000
  C   C13       1.0  0.46489  0.54612  0.58065  1.0000
  C   C14       1.0  0.53511  0.45388  0.08065  1.0000
  C   C15       1.0  0.22891  0.57871  0.39352  1.0000
  C   C16       1.0  0.77108  0.42129  0.89352  1.0000
  C   C17       1.0  0.35807  0.67389  0.33705  1.0000
  C   C18       1.0  0.64192  0.32611  0.83705  1.0000
  C   C19       1.0  0.26015  0.62963  0.26792  1.0000
  C   C20       1.0  0.73983  0.37037  0.76792  1.0000
  C   C21       1.0  0.03178  0.49282  0.25707  1.0000
  C   C22       1.0  0.96820  0.50718  0.75707  1.0000
  C   C23       1.0  0.91371  0.40529  0.31621  1.0000
  C   C24       1.0  0.08626  0.59471  0.81621  1.0000
  N   N1        1.0  0.22142  0.15468  0.59869  1.0000
  N   N2        1.0  0.77863  0.84533  0.09868  1.0000
  N   N3        1.0  0.79753  0.91078  0.90470  1.0000
  N   N4        1.0  0.20251  0.08922  0.40471  1.0000
  N   N5        1.0  0.35928  0.50936  0.51387  1.0000
  N   N6        1.0  0.64070  0.49064  0.01386  1.0000
  N   N7        1.0  0.01027  0.44554  0.38284  1.0000
  N   N8        1.0  0.98970  0.55445  0.88284  1.0000
