data_image0
_chemical_formula_structural       Cu2H40C36N4O8
_chemical_formula_sum              "Cu2 H40 C36 N4 O8"
_cell_length_a       5.10405
_cell_length_b       9.55497
_cell_length_c       16.5886
_cell_angle_alpha    100.207
_cell_angle_beta     90.0001
_cell_angle_gamma    90.0007

_space_group_name_H-M_alt    "P 1"
_space_group_IT_number       1

loop_
  _space_group_symop_operation_xyz
  'x, y, z'

loop_
  _atom_site_type_symbol
  _atom_site_label
  _atom_site_symmetry_multiplicity
  _atom_site_fract_x
  _atom_site_fract_y
  _atom_site_fract_z
  _atom_site_occupancy
  Cu  Cu1       1.0  0.25479  0.25028  0.49154  1.0000
  Cu  Cu2       1.0  0.75479  0.74972  0.50846  1.0000
  H   H1        1.0  0.85268  0.35939  0.72182  1.0000
  H   H2        1.0  0.35267  0.64061  0.27818  1.0000
  H   H3        1.0  0.96862  0.24458  0.83846  1.0000
  H   H4        1.0  0.46861  0.75542  0.16154  1.0000
  H   H5        1.0  0.68996  0.28233  0.96440  1.0000
  H   H6        1.0  0.18995  0.71767  0.03560  1.0000
  H   H7        1.0  0.29953  0.43990  0.97165  1.0000
  H   H8        1.0  0.79951  0.56009  0.02835  1.0000
  H   H9        1.0  0.18908  0.55881  0.85500  1.0000
  H   H10       1.0  0.68908  0.44118  0.14501  1.0000
  H   H11       1.0  0.00570  0.93522  0.34276  1.0000
  H   H12       1.0  0.50569  0.06478  0.65723  1.0000
  H   H13       1.0  0.34070  0.24320  0.17717  1.0000
  H   H14       1.0  0.84070  0.75680  0.82283  1.0000
  H   H15       1.0  0.19008  0.36052  0.66639  1.0000
  H   H16       1.0  0.69009  0.63948  0.33361  1.0000
  H   H17       1.0  0.61584  0.40867  0.55522  1.0000
  H   H18       1.0  0.11584  0.59133  0.44478  1.0000
  H   H19       1.0  0.60026  0.27741  0.60786  1.0000
  H   H20       1.0  0.10026  0.72259  0.39215  1.0000
  H   H21       1.0  0.61700  0.58572  0.68454  1.0000
  H   H22       1.0  0.11700  0.41429  0.31546  1.0000
  H   H23       1.0  0.30355  0.62598  0.72873  1.0000
  H   H24       1.0  0.80355  0.37402  0.27128  1.0000
  H   H25       1.0  0.92403  0.21323  0.37136  1.0000
  H   H26       1.0  0.42404  0.78678  0.62864  1.0000
  H   H27       1.0  0.84980  0.11501  0.43966  1.0000
  H   H28       1.0  0.34980  0.88499  0.56034  1.0000
  H   H29       1.0  0.38868  0.16109  0.30231  1.0000
  H   H30       1.0  0.88868  0.83892  0.69768  1.0000
  H   H31       1.0  0.41821  0.97834  0.26280  1.0000
  H   H32       1.0  0.91819  0.02167  0.73720  1.0000
  H   H33       1.0  0.83275  0.90917  0.22666  1.0000
  H   H34       1.0  0.33273  0.09083  0.77334  1.0000
  H   H35       1.0  0.57685  0.92617  0.10166  1.0000
  H   H36       1.0  0.07683  0.07383  0.89834  1.0000
  H   H37       1.0  0.70817  0.09299  0.01170  1.0000
  H   H38       1.0  0.20818  0.90701  0.98830  1.0000
  H   H39       1.0  0.09460  0.25398  0.04975  1.0000
  H   H40       1.0  0.59461  0.74602  0.95024  1.0000
  C   C1        1.0  0.36293  0.97662  0.41132  1.0000
  C   C2        1.0  0.86293  0.02342  0.58868  1.0000
  C   C3        1.0  0.11578  0.50598  0.58807  1.0000
  C   C4        1.0  0.61578  0.49398  0.41192  1.0000
  C   C5        1.0  0.14157  0.02487  0.35983  1.0000
  C   C6        1.0  0.64156  0.97513  0.64016  1.0000
  C   C7        1.0  0.31099  0.43567  0.63929  1.0000
  C   C8        1.0  0.81098  0.56433  0.36071  1.0000
  C   C9        1.0  0.27471  0.06296  0.28358  1.0000
  C   C10       1.0  0.77470  0.93705  0.71642  1.0000
  C   C11       1.0  0.44265  0.53903  0.70858  1.0000
  C   C12       1.0  0.94265  0.46097  0.29142  1.0000
  C   C13       1.0  0.10266  0.07683  0.21151  1.0000
  C   C14       1.0  0.60264  0.92318  0.78849  1.0000
  C   C15       1.0  0.51398  0.46890  0.78009  1.0000
  C   C16       1.0  0.01398  0.53110  0.21992  1.0000
  C   C17       1.0  0.88734  0.98751  0.18911  1.0000
  C   C18       1.0  0.38731  0.01249  0.81090  1.0000
  C   C19       1.0  0.73127  0.37842  0.77661  1.0000
  C   C20       1.0  0.23127  0.62158  0.22338  1.0000
  C   C21       1.0  0.74554  0.99508  0.11816  1.0000
  C   C22       1.0  0.24553  0.00492  0.88185  1.0000
  C   C23       1.0  0.79494  0.31166  0.84225  1.0000
  C   C24       1.0  0.29493  0.68833  0.15775  1.0000
  C   C25       1.0  0.81898  0.09036  0.06755  1.0000
  C   C26       1.0  0.31898  0.90964  0.93245  1.0000
  C   C27       1.0  0.64070  0.33357  0.91275  1.0000
  C   C28       1.0  0.14069  0.66643  0.08724  1.0000
  C   C29       1.0  0.03422  0.17927  0.08880  1.0000
  C   C30       1.0  0.53423  0.82073  0.91120  1.0000
  C   C31       1.0  0.42156  0.42194  0.91681  1.0000
  C   C32       1.0  0.92154  0.57806  0.08320  1.0000
  C   C33       1.0  0.17288  0.17329  0.16058  1.0000
  C   C34       1.0  0.67288  0.82672  0.83942  1.0000
  C   C35       1.0  0.35959  0.48915  0.85112  1.0000
  C   C36       1.0  0.85958  0.51085  0.14889  1.0000
  N   N1        1.0  0.00418  0.14838  0.40780  1.0000
  N   N2        1.0  0.50418  0.85162  0.59220  1.0000
  N   N3        1.0  0.48829  0.34642  0.58141  1.0000
  N   N4        1.0  0.98829  0.65358  0.41859  1.0000
  O   O1        1.0  0.46631  0.07399  0.46650  1.0000
  O   O2        1.0  0.96632  0.92601  0.53349  1.0000
  O   O3        1.0  0.03990  0.42503  0.52095  1.0000
  O   O4        1.0  0.53989  0.57497  0.47905  1.0000
  O   O5        1.0  0.44417  0.85132  0.39478  1.0000
  O   O6        1.0  0.94414  0.14866  0.60521  1.0000
  O   O7        1.0  0.02988  0.62862  0.61258  1.0000
  O   O8        1.0  0.52989  0.37140  0.38742  1.0000
