data_image0
_chemical_formula_structural       Bi4H52C40Cl8O4
_chemical_formula_sum              "Bi4 H52 C40 Cl8 O4"
_cell_length_a       8.06203
_cell_length_b       8.89795
_cell_length_c       16.623
_cell_angle_alpha    90
_cell_angle_beta     94.2589
_cell_angle_gamma    89.9999

_space_group_name_H-M_alt    "P 1"
_space_group_IT_number       1

loop_
  _space_group_symop_operation_xyz
  'x, y, z'

loop_
  _atom_site_type_symbol
  _atom_site_label
  _atom_site_symmetry_multiplicity
  _atom_site_fract_x
  _atom_site_fract_y
  _atom_site_fract_z
  _atom_site_occupancy
  Bi  Bi1       1.0  0.00017  0.19566  0.23423  1.0000
  Bi  Bi2       1.0  0.99983  0.69566  0.26577  1.0000
  Bi  Bi3       1.0  0.99984  0.80434  0.76576  1.0000
  Bi  Bi4       1.0  0.00016  0.30434  0.73424  1.0000
  H   H1        1.0  0.33818  0.38742  0.20186  1.0000
  H   H2        1.0  0.66182  0.88742  0.29814  1.0000
  H   H3        1.0  0.66182  0.61258  0.79814  1.0000
  H   H4        1.0  0.33818  0.11259  0.70186  1.0000
  H   H5        1.0  0.52407  0.57444  0.27416  1.0000
  H   H6        1.0  0.47593  0.07444  0.22584  1.0000
  H   H7        1.0  0.47594  0.42556  0.72584  1.0000
  H   H8        1.0  0.52406  0.92556  0.77416  1.0000
  H   H9        1.0  0.47705  0.64929  0.41414  1.0000
  H   H10       1.0  0.52295  0.14929  0.08586  1.0000
  H   H11       1.0  0.52295  0.35070  0.58586  1.0000
  H   H12       1.0  0.47705  0.85070  0.91414  1.0000
  H   H13       1.0  0.24332  0.53202  0.48392  1.0000
  H   H14       1.0  0.75668  0.03202  0.01608  1.0000
  H   H15       1.0  0.75668  0.46798  0.51608  1.0000
  H   H16       1.0  0.24332  0.96797  0.98392  1.0000
  H   H17       1.0  0.05744  0.34962  0.41233  1.0000
  H   H18       1.0  0.94255  0.84962  0.08767  1.0000
  H   H19       1.0  0.94255  0.65037  0.58767  1.0000
  H   H20       1.0  0.05745  0.15037  0.91233  1.0000
  H   H21       1.0  0.96446  0.16529  0.47727  1.0000
  H   H22       1.0  0.03554  0.66529  0.02273  1.0000
  H   H23       1.0  0.03554  0.83471  0.52273  1.0000
  H   H24       1.0  0.96446  0.33471  0.97727  1.0000
  H   H25       1.0  0.92198  0.99478  0.42198  1.0000
  H   H26       1.0  0.07802  0.49478  0.07802  1.0000
  H   H27       1.0  0.07802  0.00522  0.57801  1.0000
  H   H28       1.0  0.92198  0.50522  0.92199  1.0000
  H   H29       1.0  0.71119  0.14842  0.53513  1.0000
  H   H30       1.0  0.28881  0.64842  0.96487  1.0000
  H   H31       1.0  0.28881  0.85158  0.46487  1.0000
  H   H32       1.0  0.71119  0.35158  0.03513  1.0000
  H   H33       1.0  0.67093  0.97453  0.48628  1.0000
  H   H34       1.0  0.32907  0.47453  0.01372  1.0000
  H   H35       1.0  0.32907  0.02547  0.51372  1.0000
  H   H36       1.0  0.67093  0.52547  0.98628  1.0000
  H   H37       1.0  0.50958  0.08705  0.37671  1.0000
  H   H38       1.0  0.49042  0.58705  0.12329  1.0000
  H   H39       1.0  0.49042  0.91294  0.62329  1.0000
  H   H40       1.0  0.50959  0.41294  0.87671  1.0000
  H   H41       1.0  0.48384  0.23578  0.44521  1.0000
  H   H42       1.0  0.51616  0.73578  0.05478  1.0000
  H   H43       1.0  0.51616  0.76422  0.55478  1.0000
  H   H44       1.0  0.48384  0.26422  0.94522  1.0000
  H   H45       1.0  0.63420  0.28661  0.30393  1.0000
  H   H46       1.0  0.36580  0.78661  0.19607  1.0000
  H   H47       1.0  0.36580  0.71339  0.69606  1.0000
  H   H48       1.0  0.63420  0.21339  0.80393  1.0000
  H   H49       1.0  0.71024  0.37980  0.39393  1.0000
  H   H50       1.0  0.28976  0.87980  0.10607  1.0000
  H   H51       1.0  0.28976  0.62020  0.60607  1.0000
  H   H52       1.0  0.71024  0.12020  0.89393  1.0000
  C   C1        1.0  0.18580  0.35421  0.30214  1.0000
  C   C2        1.0  0.81420  0.85421  0.19786  1.0000
  C   C3        1.0  0.81421  0.64579  0.69786  1.0000
  C   C4        1.0  0.18579  0.14579  0.80214  1.0000
  C   C5        1.0  0.31726  0.41921  0.26373  1.0000
  C   C6        1.0  0.68274  0.91921  0.23627  1.0000
  C   C7        1.0  0.68275  0.58079  0.73627  1.0000
  C   C8        1.0  0.31726  0.08080  0.76373  1.0000
  C   C9        1.0  0.42057  0.52584  0.30397  1.0000
  C   C10       1.0  0.57942  0.02584  0.19603  1.0000
  C   C11       1.0  0.57943  0.47416  0.69603  1.0000
  C   C12       1.0  0.42057  0.97417  0.80397  1.0000
  C   C13       1.0  0.39467  0.56732  0.38317  1.0000
  C   C14       1.0  0.60533  0.06732  0.11683  1.0000
  C   C15       1.0  0.60533  0.43268  0.61683  1.0000
  C   C16       1.0  0.39467  0.93268  0.88317  1.0000
  C   C17       1.0  0.26478  0.50202  0.42197  1.0000
  C   C18       1.0  0.73522  0.00202  0.07802  1.0000
  C   C19       1.0  0.73522  0.49798  0.57803  1.0000
  C   C20       1.0  0.26478  0.99798  0.92198  1.0000
  C   C21       1.0  0.16021  0.39656  0.38159  1.0000
  C   C22       1.0  0.83979  0.89656  0.11841  1.0000
  C   C23       1.0  0.83979  0.60344  0.61841  1.0000
  C   C24       1.0  0.16021  0.10344  0.88159  1.0000
  C   C25       1.0  0.87126  0.10393  0.43820  1.0000
  C   C26       1.0  0.12874  0.60393  0.06180  1.0000
  C   C27       1.0  0.12874  0.89607  0.56180  1.0000
  C   C28       1.0  0.87126  0.39607  0.93820  1.0000
  C   C29       1.0  0.70385  0.09223  0.47626  1.0000
  C   C30       1.0  0.29615  0.59223  0.02374  1.0000
  C   C31       1.0  0.29616  0.90776  0.52374  1.0000
  C   C32       1.0  0.70385  0.40776  0.97626  1.0000
  C   C33       1.0  0.57703  0.16976  0.41572  1.0000
  C   C34       1.0  0.42297  0.66977  0.08428  1.0000
  C   C35       1.0  0.42297  0.83023  0.58428  1.0000
  C   C36       1.0  0.57703  0.33023  0.91572  1.0000
  C   C37       1.0  0.68441  0.26892  0.36623  1.0000
  C   C38       1.0  0.31559  0.76892  0.13377  1.0000
  C   C39       1.0  0.31559  0.73108  0.63377  1.0000
  C   C40       1.0  0.68441  0.23108  0.86623  1.0000
  Cl  Cl1       1.0  0.16685  0.19618  0.10722  1.0000
  Cl  Cl2       1.0  0.83315  0.69618  0.39278  1.0000
  Cl  Cl3       1.0  0.83317  0.80383  0.89277  1.0000
  Cl  Cl4       1.0  0.16683  0.30383  0.60723  1.0000
  Cl  Cl5       1.0  0.17759  0.96289  0.30614  1.0000
  Cl  Cl6       1.0  0.82241  0.46290  0.19386  1.0000
  Cl  Cl7       1.0  0.82241  0.03712  0.69386  1.0000
  Cl  Cl8       1.0  0.17759  0.53711  0.80614  1.0000
  O   O1        1.0  0.83923  0.18687  0.36297  1.0000
  O   O2        1.0  0.16076  0.68687  0.13703  1.0000
  O   O3        1.0  0.16076  0.81313  0.63703  1.0000
  O   O4        1.0  0.83924  0.31313  0.86297  1.0000
