data_image0
_chemical_formula_structural       Cu2H46C36Br2N6O2
_chemical_formula_sum              "Cu2 H46 C36 Br2 N6 O2"
_cell_length_a       8.61016
_cell_length_b       8.60469
_cell_length_c       14.2427
_cell_angle_alpha    100.58
_cell_angle_beta     105.257
_cell_angle_gamma    105.043

_space_group_name_H-M_alt    "P 1"
_space_group_IT_number       1

loop_
  _space_group_symop_operation_xyz
  'x, y, z'

loop_
  _atom_site_type_symbol
  _atom_site_label
  _atom_site_symmetry_multiplicity
  _atom_site_fract_x
  _atom_site_fract_y
  _atom_site_fract_z
  _atom_site_occupancy
  Cu  Cu1       1.0  0.70915  0.21436  0.87537  1.0000
  Cu  Cu2       1.0  0.33941  0.83325  0.12492  1.0000
  H   H1        1.0  0.49516  0.71948  0.00983  1.0000
  H   H2        1.0  0.71057  0.48533  0.99021  1.0000
  H   H3        1.0  0.55721  0.59253  0.83418  1.0000
  H   H4        1.0  0.75909  0.72264  0.16594  1.0000
  H   H5        1.0  0.51403  0.78037  0.49826  1.0000
  H   H6        1.0  0.28122  0.01621  0.50204  1.0000
  H   H7        1.0  0.03878  0.89373  0.67405  1.0000
  H   H8        1.0  0.21942  0.36468  0.32545  1.0000
  H   H9        1.0  0.29945  0.75853  0.57643  1.0000
  H   H10       1.0  0.18152  0.72356  0.42453  1.0000
  H   H11       1.0  0.33717  0.70143  0.69192  1.0000
  H   H12       1.0  0.00920  0.64539  0.30904  1.0000
  H   H13       1.0  0.37511  0.91493  0.69384  1.0000
  H   H14       1.0  0.22066  0.68081  0.30719  1.0000
  H   H15       1.0  0.72009  0.79054  0.41258  1.0000
  H   H16       1.0  0.37673  0.30798  0.58729  1.0000
  H   H17       1.0  0.92345  0.93982  0.48506  1.0000
  H   H18       1.0  0.45377  0.43888  0.51479  1.0000
  H   H19       1.0  0.89152  0.72507  0.47172  1.0000
  H   H20       1.0  0.25223  0.42010  0.52778  1.0000
  H   H21       1.0  0.96009  0.93707  0.92253  1.0000
  H   H22       1.0  0.01533  0.03710  0.07730  1.0000
  H   H23       1.0  0.05485  0.81030  0.85988  1.0000
  H   H24       1.0  0.95066  0.19428  0.13972  1.0000
  H   H25       1.0  0.11236  0.02495  0.86718  1.0000
  H   H26       1.0  0.15796  0.24496  0.13254  1.0000
  H   H27       1.0  0.58551  0.41272  0.13562  1.0000
  H   H28       1.0  0.27701  0.45008  0.86364  1.0000
  H   H29       1.0  0.77344  0.38807  0.21308  1.0000
  H   H30       1.0  0.17451  0.56082  0.78648  1.0000
  H   H31       1.0  0.41061  0.20857  0.18517  1.0000
  H   H32       1.0  0.02373  0.22555  0.81466  1.0000
  H   H33       1.0  0.51250  0.09163  0.31737  1.0000
  H   H34       1.0  0.77457  0.19503  0.68263  1.0000
  H   H35       1.0  0.81983  0.12320  0.39419  1.0000
  H   H36       1.0  0.72867  0.42551  0.60567  1.0000
  H   H37       1.0  0.73858  0.00259  0.26682  1.0000
  H   H38       1.0  0.73557  0.47147  0.73309  1.0000
  H   H39       1.0  0.87123  0.21546  0.30094  1.0000
  H   H40       1.0  0.91394  0.57039  0.69881  1.0000
  H   H41       1.0  0.68731  0.34793  0.45286  1.0000
  H   H42       1.0  0.89519  0.23456  0.54699  1.0000
  H   H43       1.0  0.76071  0.44837  0.36772  1.0000
  H   H44       1.0  0.08042  0.39336  0.63204  1.0000
  H   H45       1.0  0.54403  0.40272  0.35994  1.0000
  H   H46       1.0  0.04296  0.18442  0.63999  1.0000
  C   C1        1.0  0.65735  0.00536  0.90203  1.0000
  C   C2        1.0  0.10393  0.75503  0.09817  1.0000
  C   C3        1.0  0.54369  0.78080  0.95844  1.0000
  C   C4        1.0  0.82315  0.58508  0.04169  1.0000
  C   C5        1.0  0.57633  0.72063  0.87343  1.0000
  C   C6        1.0  0.84793  0.70258  0.12675  1.0000
  C   C7        1.0  0.69371  0.85026  0.75133  1.0000
  C   C8        1.0  0.09925  0.94214  0.24881  1.0000
  C   C9        1.0  0.56503  0.81632  0.65859  1.0000
  C   C10       1.0  0.15762  0.90648  0.34175  1.0000
  C   C11       1.0  0.38448  0.79618  0.65480  1.0000
  C   C12       1.0  0.14102  0.72975  0.34602  1.0000
  C   C13       1.0  0.61182  0.80743  0.57125  1.0000
  C   C14       1.0  0.23570  0.04085  0.42892  1.0000
  C   C15       1.0  0.78122  0.83321  0.57509  1.0000
  C   C16       1.0  0.25763  0.20638  0.42480  1.0000
  C   C17       1.0  0.83028  0.82170  0.48089  1.0000
  C   C18       1.0  0.33984  0.34980  0.51889  1.0000
  C   C19       1.0  0.90552  0.87065  0.66938  1.0000
  C   C20       1.0  0.20112  0.23610  0.33034  1.0000
  C   C21       1.0  0.86539  0.87895  0.75885  1.0000
  C   C22       1.0  0.12035  0.10630  0.24101  1.0000
  C   C23       1.0  0.00417  0.91487  0.85749  1.0000
  C   C24       1.0  0.05777  0.14625  0.14224  1.0000
  C   C25       1.0  0.58373  0.06620  0.05589  1.0000
  C   C26       1.0  0.01086  0.52783  0.94412  1.0000
  C   C27       1.0  0.64606  0.32185  0.15789  1.0000
  C   C28       1.0  0.16391  0.48842  0.84169  1.0000
  C   C29       1.0  0.53386  0.18877  0.19261  1.0000
  C   C30       1.0  0.99635  0.34139  0.80723  1.0000
  C   C31       1.0  0.61176  0.18382  0.30198  1.0000
  C   C32       1.0  0.88189  0.30982  0.69793  1.0000
  C   C33       1.0  0.76858  0.12794  0.31606  1.0000
  C   C34       1.0  0.81162  0.45245  0.68379  1.0000
  C   C35       1.0  0.65219  0.35507  0.37433  1.0000
  C   C36       1.0  0.98075  0.27809  0.62552  1.0000
  Br  Br1       1.0  0.44621  0.26254  0.79220  1.0000
  Br  Br2       1.0  0.47009  0.65328  0.20828  1.0000
  N   N1        1.0  0.59403  0.95486  0.97580  1.0000
  N   N2        1.0  0.97976  0.61810  0.02433  1.0000
  N   N3        1.0  0.64568  0.85826  0.84107  1.0000
  N   N4        1.0  0.01782  0.80421  0.15919  1.0000
  N   N5        1.0  0.50278  0.02934  0.11751  1.0000
  N   N6        1.0  0.91234  0.38531  0.88253  1.0000
  O   O1        1.0  0.66971  0.22774  0.06885  1.0000
  O   O2        1.0  0.15920  0.60091  0.93095  1.0000
