data_image0
_chemical_formula_structural       Cd3H28C32N2O14
_chemical_formula_sum              "Cd3 H28 C32 N2 O14"
_cell_length_a       7.62574
_cell_length_b       10.8431
_cell_length_c       10.9638
_cell_angle_alpha    62.8708
_cell_angle_beta     76.3729
_cell_angle_gamma    86.863

_space_group_name_H-M_alt    "P 1"
_space_group_IT_number       1

loop_
  _space_group_symop_operation_xyz
  'x, y, z'

loop_
  _atom_site_type_symbol
  _atom_site_label
  _atom_site_symmetry_multiplicity
  _atom_site_fract_x
  _atom_site_fract_y
  _atom_site_fract_z
  _atom_site_occupancy
  Cd  Cd1       1.0  0.50000  0.50000  0.00000  1.0000
  Cd  Cd2       1.0  0.05642  0.14189  0.35266  1.0000
  Cd  Cd3       1.0  0.94358  0.85811  0.64734  1.0000
  H   H1        1.0  0.28318  0.71207  0.81599  1.0000
  H   H2        1.0  0.71681  0.28793  0.18401  1.0000
  H   H3        1.0  0.49138  0.73158  0.72557  1.0000
  H   H4        1.0  0.50862  0.26842  0.27443  1.0000
  H   H5        1.0  0.94023  0.41358  0.90559  1.0000
  H   H6        1.0  0.05977  0.58642  0.09441  1.0000
  H   H7        1.0  0.14994  0.50856  0.85584  1.0000
  H   H8        1.0  0.85007  0.49144  0.14416  1.0000
  H   H9        1.0  0.34741  0.94113  0.09276  1.0000
  H   H10       1.0  0.65259  0.05887  0.90725  1.0000
  H   H11       1.0  0.25581  0.43291  0.31315  1.0000
  H   H12       1.0  0.74418  0.56709  0.68686  1.0000
  H   H13       1.0  0.11972  0.55852  0.45324  1.0000
  H   H14       1.0  0.88027  0.44148  0.54676  1.0000
  H   H15       1.0  0.45842  0.38888  0.51417  1.0000
  H   H16       1.0  0.54158  0.61112  0.48583  1.0000
  H   H17       1.0  0.48453  0.80131  0.96688  1.0000
  H   H18       1.0  0.51547  0.19869  0.03312  1.0000
  H   H19       1.0  0.22098  0.99897  0.85779  1.0000
  H   H20       1.0  0.77903  0.00103  0.14221  1.0000
  H   H21       1.0  0.06790  0.12072  0.99461  1.0000
  H   H22       1.0  0.93211  0.87928  0.00539  1.0000
  H   H23       1.0  0.49816  0.01326  0.66722  1.0000
  H   H24       1.0  0.50184  0.98674  0.33278  1.0000
  H   H25       1.0  0.57208  0.17681  0.51762  1.0000
  H   H26       1.0  0.42792  0.82319  0.48237  1.0000
  H   H27       1.0  0.30086  0.51185  0.64951  1.0000
  H   H28       1.0  0.69914  0.48815  0.35048  1.0000
  C   C1        1.0  0.08327  0.40434  0.90872  1.0000
  C   C2        1.0  0.91673  0.59566  0.09128  1.0000
  C   C3        1.0  0.32502  0.08519  0.52324  1.0000
  C   C4        1.0  0.67498  0.91481  0.47676  1.0000
  C   C5        1.0  0.22147  0.75988  0.28239  1.0000
  C   C6        1.0  0.77852  0.24012  0.71761  1.0000
  C   C7        1.0  0.32518  0.82869  0.14387  1.0000
  C   C8        1.0  0.67482  0.17130  0.85614  1.0000
  C   C9        1.0  0.27303  0.54568  0.26741  1.0000
  C   C10       1.0  0.72696  0.45432  0.73260  1.0000
  C   C11       1.0  0.09423  0.33368  0.06127  1.0000
  C   C12       1.0  0.90578  0.66632  0.93873  1.0000
  C   C13       1.0  0.19620  0.61552  0.34468  1.0000
  C   C14       1.0  0.80380  0.38448  0.65532  1.0000
  C   C15       1.0  0.14423  0.84108  0.36254  1.0000
  C   C16       1.0  0.85576  0.15892  0.63747  1.0000
  C   C17       1.0  0.37185  0.33029  0.61934  1.0000
  C   C18       1.0  0.62815  0.66971  0.38065  1.0000
  C   C19       1.0  0.39960  0.75181  0.07396  1.0000
  C   C20       1.0  0.60039  0.24819  0.92605  1.0000
  C   C21       1.0  0.24004  0.11156  0.81255  1.0000
  C   C22       1.0  0.75997  0.88844  0.18745  1.0000
  C   C23       1.0  0.15227  0.18023  0.88850  1.0000
  C   C24       1.0  0.84773  0.81978  0.11149  1.0000
  C   C25       1.0  0.45359  0.11254  0.59632  1.0000
  C   C26       1.0  0.54641  0.88746  0.40368  1.0000
  C   C27       1.0  0.28381  0.39913  0.69474  1.0000
  C   C28       1.0  0.71619  0.60087  0.30526  1.0000
  C   C29       1.0  0.35369  0.18566  0.67816  1.0000
  C   C30       1.0  0.64631  0.81434  0.32184  1.0000
  C   C31       1.0  0.17439  0.32497  0.83053  1.0000
  C   C32       1.0  0.82561  0.67503  0.16947  1.0000
  N   N1        1.0  0.37300  0.61268  0.13393  1.0000
  N   N2        1.0  0.62700  0.38732  0.86607  1.0000
  O   O1        1.0  0.95577  0.25746  0.15310  1.0000
  O   O2        1.0  0.04423  0.74254  0.84690  1.0000
  O   O3        1.0  0.16379  0.97217  0.29111  1.0000
  O   O4        1.0  0.83620  0.02783  0.70889  1.0000
  O   O5        1.0  0.39665  0.66520  0.80608  1.0000
  O   O6        1.0  0.60335  0.33480  0.19392  1.0000
  O   O7        1.0  0.32093  0.17892  0.39809  1.0000
  O   O8        1.0  0.67907  0.82108  0.60191  1.0000
  O   O9        1.0  0.23648  0.34523  0.09765  1.0000
  O   O10       1.0  0.76353  0.65476  0.90234  1.0000
  O   O11       1.0  0.07114  0.77031  0.49328  1.0000
  O   O12       1.0  0.92886  0.22969  0.50672  1.0000
  O   O13       1.0  0.22426  0.97556  0.59108  1.0000
  O   O14       1.0  0.77574  0.02444  0.40892  1.0000
