data_image0
_chemical_formula_structural       CuH12C14N10
_chemical_formula_sum              "Cu1 H12 C14 N10"
_cell_length_a       6.15708
_cell_length_b       7.44927
_cell_length_c       9.29711
_cell_angle_alpha    104.018
_cell_angle_beta     104.144
_cell_angle_gamma    94.888

_space_group_name_H-M_alt    "P 1"
_space_group_IT_number       1

loop_
  _space_group_symop_operation_xyz
  'x, y, z'

loop_
  _atom_site_type_symbol
  _atom_site_label
  _atom_site_symmetry_multiplicity
  _atom_site_fract_x
  _atom_site_fract_y
  _atom_site_fract_z
  _atom_site_occupancy
  Cu  Cu1       1.0  1.00000  0.00002  0.00000  1.0000
  H   H1        1.0  0.49922  0.06820  0.13655  1.0000
  H   H2        1.0  0.50077  0.93179  0.86345  1.0000
  H   H3        1.0  0.74294  0.22560  0.70507  1.0000
  H   H4        1.0  0.25707  0.77438  0.29492  1.0000
  H   H5        1.0  0.63133  0.43864  0.72910  1.0000
  H   H6        1.0  0.36868  0.56134  0.27089  1.0000
  H   H7        1.0  0.84981  0.40221  0.63189  1.0000
  H   H8        1.0  0.15019  0.59777  0.36810  1.0000
  H   H9        1.0  0.22671  0.29168  0.58629  1.0000
  H   H10       1.0  0.77330  0.70830  0.41372  1.0000
  H   H11       1.0  0.95452  0.15253  0.32331  1.0000
  H   H12       1.0  0.04549  0.84748  0.67669  1.0000
  C   C1        1.0  0.44002  0.12093  0.23775  1.0000
  C   C2        1.0  0.55998  0.87907  0.76224  1.0000
  C   C3        1.0  0.52116  0.25551  0.49864  1.0000
  C   C4        1.0  0.47885  0.74447  0.50136  1.0000
  C   C5        1.0  0.69575  0.33674  0.64953  1.0000
  C   C6        1.0  0.30427  0.66323  0.35047  1.0000
  C   C7        1.0  0.28833  0.24136  0.48590  1.0000
  C   C8        1.0  0.71168  0.75861  0.51410  1.0000
  C   C9        1.0  0.13783  0.16569  0.34107  1.0000
  C   C10       1.0  0.86218  0.83431  0.65893  1.0000
  C   C11       1.0  0.25504  0.32654  0.88025  1.0000
  C   C12       1.0  0.74494  0.67350  0.11976  1.0000
  C   C13       1.0  0.20996  0.63811  0.91378  1.0000
  C   C14       1.0  0.79004  0.36194  0.08623  1.0000
  N   N1        1.0  0.21463  0.10634  0.21665  1.0000
  N   N2        1.0  0.78536  0.89367  0.78335  1.0000
  N   N3        1.0  0.59498  0.19338  0.37279  1.0000
  N   N4        1.0  0.40502  0.80660  0.62720  1.0000
  N   N5        1.0  0.16438  0.78631  0.96535  1.0000
  N   N6        1.0  0.83562  0.21374  0.03466  1.0000
  N   N7        1.0  0.24657  0.17353  0.89533  1.0000
  N   N8        1.0  0.75341  0.82651  0.10467  1.0000
  N   N9        1.0  0.27440  0.48700  0.84882  1.0000
  N   N10       1.0  0.72558  0.51302  0.15119  1.0000
