data_image0
_chemical_formula_structural       Cu3P2H18C22N2O8
_chemical_formula_sum              "Cu3 P2 H18 C22 N2 O8"
_cell_length_a       5.50754
_cell_length_b       8.79852
_cell_length_c       12.1763
_cell_angle_alpha    103.301
_cell_angle_beta     86.8202
_cell_angle_gamma    97.9131

_space_group_name_H-M_alt    "P 1"
_space_group_IT_number       1

loop_
  _space_group_symop_operation_xyz
  'x, y, z'

loop_
  _atom_site_type_symbol
  _atom_site_label
  _atom_site_symmetry_multiplicity
  _atom_site_fract_x
  _atom_site_fract_y
  _atom_site_fract_z
  _atom_site_occupancy
  Cu  Cu1       1.0  0.99994  0.00165  0.00054  1.0000
  Cu  Cu2       1.0  0.26856  0.38268  0.05096  1.0000
  Cu  Cu3       1.0  0.72712  0.61534  0.94925  1.0000
  P   P1        1.0  0.19320  0.74032  0.07465  1.0000
  P   P2        1.0  0.80682  0.25744  0.92402  1.0000
  H   H1        1.0  0.59579  0.86510  0.94489  1.0000
  H   H2        1.0  0.40498  0.13546  0.05611  1.0000
  H   H3        1.0  0.95623  0.76499  0.29405  1.0000
  H   H4        1.0  0.04475  0.23446  0.70459  1.0000
  H   H5        1.0  0.09408  0.87041  0.48849  1.0000
  H   H6        1.0  0.90649  0.12971  0.51009  1.0000
  H   H7        1.0  0.78780  0.05675  0.35678  1.0000
  H   H8        1.0  0.21324  0.94233  0.64167  1.0000
  H   H9        1.0  0.65045  0.94474  0.16521  1.0000
  H   H10       1.0  0.35087  0.05351  0.83329  1.0000
  H   H11       1.0  0.67494  0.57270  0.18878  1.0000
  H   H12       1.0  0.32302  0.42948  0.81170  1.0000
  H   H13       1.0  0.80332  0.61105  0.38602  1.0000
  H   H14       1.0  0.19737  0.38958  0.61402  1.0000
  H   H15       1.0  0.10177  0.35856  0.45649  1.0000
  H   H16       1.0  0.89846  0.64310  0.54464  1.0000
  H   H17       1.0  0.01104  0.32009  0.25458  1.0000
  H   H18       1.0  0.98708  0.68260  0.74709  1.0000
  C   C1        1.0  0.29342  0.84202  0.21543  1.0000
  C   C2        1.0  0.70752  0.15709  0.78306  1.0000
  C   C3        1.0  0.14084  0.82593  0.30904  1.0000
  C   C4        1.0  0.86001  0.17373  0.68956  1.0000
  C   C5        1.0  0.22033  0.88683  0.41885  1.0000
  C   C6        1.0  0.78031  0.11317  0.57976  1.0000
  C   C7        1.0  0.45653  0.96962  0.44071  1.0000
  C   C8        1.0  0.54413  0.03021  0.55785  1.0000
  C   C9        1.0  0.60444  0.99175  0.34578  1.0000
  C   C10       1.0  0.39646  0.00755  0.65278  1.0000
  C   C11       1.0  0.52650  0.92865  0.23581  1.0000
  C   C12       1.0  0.47452  0.07031  0.76274  1.0000
  C   C13       1.0  0.55455  0.52644  0.25114  1.0000
  C   C14       1.0  0.44386  0.47567  0.74952  1.0000
  C   C15       1.0  0.62354  0.54792  0.36223  1.0000
  C   C16       1.0  0.37645  0.45340  0.63822  1.0000
  C   C17       1.0  0.46496  0.48921  0.44104  1.0000
  C   C18       1.0  0.53547  0.51221  0.55959  1.0000
  C   C19       1.0  0.23733  0.40764  0.40132  1.0000
  C   C20       1.0  0.76248  0.59420  0.59972  1.0000
  C   C21       1.0  0.18247  0.38677  0.28861  1.0000
  C   C22       1.0  0.81611  0.61573  0.71267  1.0000
  N   N1        1.0  0.33762  0.44602  0.21504  1.0000
  N   N2        1.0  0.66008  0.55682  0.78611  1.0000
  O   O1        1.0  0.35100  0.60500  0.03287  1.0000
  O   O2        1.0  0.64966  0.39217  0.96663  1.0000
  O   O3        1.0  0.92138  0.67968  0.08937  1.0000
  O   O4        1.0  0.08067  0.31521  0.91057  1.0000
  O   O5        1.0  0.24596  0.85379  0.99340  1.0000
  O   O6        1.0  0.75268  0.14300  0.00471  1.0000
  O   O7        1.0  0.76183  0.83288  0.93495  1.0000
  O   O8        1.0  0.23959  0.16733  0.07305  1.0000
