data_image0
_chemical_formula_structural       Cd2H48C68N4O12
_chemical_formula_sum              "Cd2 H48 C68 N4 O12"
_cell_length_a       8.00209
_cell_length_b       12.1789
_cell_length_c       15.4747
_cell_angle_alpha    108.418
_cell_angle_beta     101.08
_cell_angle_gamma    97.5188

_space_group_name_H-M_alt    "P 1"
_space_group_IT_number       1

loop_
  _space_group_symop_operation_xyz
  'x, y, z'

loop_
  _atom_site_type_symbol
  _atom_site_label
  _atom_site_symmetry_multiplicity
  _atom_site_fract_x
  _atom_site_fract_y
  _atom_site_fract_z
  _atom_site_occupancy
  Cd  Cd1       1.0  0.02003  0.42304  0.30595  1.0000
  Cd  Cd2       1.0  0.97997  0.57696  0.69405  1.0000
  H   H1        1.0  0.30293  0.48165  0.44773  1.0000
  H   H2        1.0  0.69706  0.51835  0.55227  1.0000
  H   H3        1.0  0.21730  0.59100  0.48944  1.0000
  H   H4        1.0  0.78270  0.40900  0.51056  1.0000
  H   H5        1.0  0.15847  0.19037  0.73738  1.0000
  H   H6        1.0  0.84153  0.80963  0.26262  1.0000
  H   H7        1.0  0.74116  0.22316  0.51328  1.0000
  H   H8        1.0  0.25883  0.77683  0.48671  1.0000
  H   H9        1.0  0.36191  0.16284  0.17367  1.0000
  H   H10       1.0  0.63810  0.83716  0.82633  1.0000
  H   H11       1.0  0.71118  0.33860  0.77232  1.0000
  H   H12       1.0  0.28882  0.66140  0.22767  1.0000
  H   H13       1.0  0.87801  0.30361  0.08082  1.0000
  H   H14       1.0  0.12200  0.69639  0.91919  1.0000
  H   H15       1.0  0.53131  0.37312  0.63388  1.0000
  H   H16       1.0  0.46868  0.62688  0.36612  1.0000
  H   H17       1.0  0.13790  0.19586  0.07805  1.0000
  H   H18       1.0  0.86210  0.80414  0.92195  1.0000
  H   H19       1.0  0.64475  0.26667  0.28886  1.0000
  H   H20       1.0  0.35525  0.73333  0.71115  1.0000
  H   H21       1.0  0.60504  0.20187  0.95554  1.0000
  H   H22       1.0  0.39497  0.79813  0.04446  1.0000
  H   H23       1.0  0.57594  0.46865  0.17327  1.0000
  H   H24       1.0  0.42405  0.53135  0.82673  1.0000
  H   H25       1.0  0.40253  0.02532  0.87130  1.0000
  H   H26       1.0  0.59746  0.97468  0.12870  1.0000
  H   H27       1.0  0.85622  0.11503  0.95739  1.0000
  H   H28       1.0  0.14378  0.88497  0.04261  1.0000
  H   H29       1.0  0.17873  0.12137  0.40824  1.0000
  H   H30       1.0  0.82128  0.87863  0.59176  1.0000
  H   H31       1.0  0.49334  0.90887  0.69351  1.0000
  H   H32       1.0  0.50666  0.09113  0.30649  1.0000
  H   H33       1.0  0.16965  0.47702  0.88811  1.0000
  H   H34       1.0  0.83034  0.52298  0.11189  1.0000
  H   H35       1.0  0.96969  0.33173  0.71630  1.0000
  H   H36       1.0  0.03031  0.66828  0.28370  1.0000
  H   H37       1.0  0.32837  0.50707  0.61948  1.0000
  H   H38       1.0  0.67163  0.49293  0.38052  1.0000
  H   H39       1.0  0.90903  0.21739  0.81866  1.0000
  H   H40       1.0  0.09097  0.78261  0.18134  1.0000
  H   H41       1.0  0.29026  0.03305  0.65361  1.0000
  H   H42       1.0  0.70974  0.96695  0.34639  1.0000
  H   H43       1.0  0.05739  0.43509  0.01500  1.0000
  H   H44       1.0  0.94260  0.56490  0.98500  1.0000
  H   H45       1.0  0.71492  0.05552  0.57149  1.0000
  H   H46       1.0  0.28508  0.94447  0.42851  1.0000
  H   H47       1.0  0.11858  0.94394  0.75139  1.0000
  H   H48       1.0  0.88142  0.05606  0.24862  1.0000
  C   C1        1.0  0.97518  0.27950  0.41782  1.0000
  C   C2        1.0  0.02482  0.72050  0.58218  1.0000
  C   C3        1.0  0.36370  0.27005  0.68898  1.0000
  C   C4        1.0  0.63630  0.72995  0.31102  1.0000
  C   C5        1.0  0.20000  0.25785  0.70911  1.0000
  C   C6        1.0  0.80000  0.74215  0.29089  1.0000
  C   C7        1.0  0.31083  0.45186  0.10281  1.0000
  C   C8        1.0  0.68916  0.54814  0.89718  1.0000
  C   C9        1.0  0.83151  0.16328  0.50401  1.0000
  C   C10       1.0  0.16848  0.83671  0.49598  1.0000
  C   C11       1.0  0.48501  0.19506  0.70968  1.0000
  C   C12       1.0  0.51500  0.80494  0.29032  1.0000
  C   C13       1.0  0.29097  0.11854  0.98276  1.0000
  C   C14       1.0  0.70903  0.88146  0.01725  1.0000
  C   C15       1.0  0.47311  0.19028  0.14891  1.0000
  C   C16       1.0  0.52689  0.80972  0.85110  1.0000
  C   C17       1.0  0.97394  0.02884  0.84725  1.0000
  C   C18       1.0  0.02606  0.97116  0.15275  1.0000
  C   C19       1.0  0.66125  0.24458  0.75476  1.0000
  C   C20       1.0  0.33875  0.75542  0.24523  1.0000
  C   C21       1.0  0.45853  0.17116  0.05326  1.0000
  C   C22       1.0  0.54148  0.82884  0.94674  1.0000
  C   C23       1.0  0.76168  0.26737  0.09762  1.0000
  C   C24       1.0  0.23832  0.73263  0.90238  1.0000
  C   C25       1.0  0.40818  0.35945  0.65317  1.0000
  C   C26       1.0  0.59182  0.64055  0.34683  1.0000
  C   C27       1.0  0.13480  0.14170  0.00638  1.0000
  C   C28       1.0  0.86520  0.85830  0.99362  1.0000
  C   C29       1.0  0.55808  0.49880  0.04114  1.0000
  C   C30       1.0  0.44190  0.50120  0.95886  1.0000
  C   C31       1.0  0.63069  0.24811  0.21381  1.0000
  C   C32       1.0  0.36931  0.75189  0.78619  1.0000
  C   C33       1.0  0.23514  0.43502  0.18042  1.0000
  C   C34       1.0  0.76485  0.56498  0.81958  1.0000
  C   C35       1.0  0.71251  0.05545  0.75955  1.0000
  C   C36       1.0  0.28748  0.94455  0.24045  1.0000
  C   C37       1.0  0.60922  0.21006  0.02823  1.0000
  C   C38       1.0  0.39079  0.78995  0.97177  1.0000
  C   C39       1.0  0.48834  0.47183  0.11126  1.0000
  C   C40       1.0  0.51166  0.52817  0.88874  1.0000
  C   C41       1.0  0.28368  0.04696  0.89045  1.0000
  C   C42       1.0  0.71632  0.95304  0.10955  1.0000
  C   C43       1.0  0.96345  0.18190  0.45742  1.0000
  C   C44       1.0  0.03655  0.81810  0.54258  1.0000
  C   C45       1.0  0.97712  0.09757  0.93905  1.0000
  C   C46       1.0  0.02289  0.90243  0.06096  1.0000
  C   C47       1.0  0.07897  0.10612  0.44463  1.0000
  C   C48       1.0  0.92103  0.89388  0.55537  1.0000
  C   C49       1.0  0.53859  0.00359  0.71202  1.0000
  C   C50       1.0  0.46141  0.99641  0.28799  1.0000
  C   C51       1.0  0.25981  0.47601  0.95027  1.0000
  C   C52       1.0  0.74018  0.52399  0.04972  1.0000
  C   C53       1.0  0.09425  0.33648  0.69777  1.0000
  C   C54       1.0  0.90575  0.66352  0.30223  1.0000
  C   C55       1.0  0.29427  0.43432  0.64383  1.0000
  C   C56       1.0  0.70574  0.56568  0.35617  1.0000
  C   C57       1.0  0.06711  0.00932  0.47663  1.0000
  C   C58       1.0  0.93290  0.99067  0.52337  1.0000
  C   C59       1.0  0.77413  0.17642  0.78115  1.0000
  C   C60       1.0  0.22587  0.82358  0.21886  1.0000
  C   C61       1.0  0.42593  0.07371  0.68932  1.0000
  C   C62       1.0  0.57407  0.92629  0.31068  1.0000
  C   C63       1.0  0.19669  0.45293  0.02073  1.0000
  C   C64       1.0  0.80330  0.54707  0.97927  1.0000
  C   C65       1.0  0.81682  0.07003  0.53615  1.0000
  C   C66       1.0  0.18318  0.92997  0.46385  1.0000
  C   C67       1.0  0.12597  0.00116  0.82270  1.0000
  C   C68       1.0  0.87404  0.99884  0.17730  1.0000
  N   N1        1.0  0.77357  0.28740  0.18958  1.0000
  N   N2        1.0  0.22643  0.71260  0.81043  1.0000
  N   N3        1.0  0.14053  0.42519  0.66711  1.0000
  N   N4        1.0  0.85948  0.57481  0.33289  1.0000
  O   O1        1.0  0.26408  0.54871  0.43472  1.0000
  O   O2        1.0  0.73592  0.45128  0.56528  1.0000
  O   O3        1.0  0.81730  0.98050  0.77904  1.0000
  O   O4        1.0  0.18270  0.01950  0.22096  1.0000
  O   O5        1.0  0.09367  0.47496  0.18703  1.0000
  O   O6        1.0  0.90632  0.52505  0.81297  1.0000
  O   O7        1.0  0.30527  0.38684  0.23462  1.0000
  O   O8        1.0  0.69472  0.61316  0.76538  1.0000
  O   O9        1.0  0.09439  0.28920  0.37483  1.0000
  O   O10       1.0  0.90561  0.71080  0.62517  1.0000
  O   O11       1.0  0.86355  0.34587  0.42409  1.0000
  O   O12       1.0  0.13645  0.65413  0.57591  1.0000
