data_image0
_chemical_formula_structural       Co2H24C24N16O4
_chemical_formula_sum              "Co2 H24 C24 N16 O4"
_cell_length_a       6.50998
_cell_length_b       9.78825
_cell_length_c       10.7015
_cell_angle_alpha    111.067
_cell_angle_beta     89.9997
_cell_angle_gamma    90.0004

_space_group_name_H-M_alt    "P 1"
_space_group_IT_number       1

loop_
  _space_group_symop_operation_xyz
  'x, y, z'

loop_
  _atom_site_type_symbol
  _atom_site_label
  _atom_site_symmetry_multiplicity
  _atom_site_fract_x
  _atom_site_fract_y
  _atom_site_fract_z
  _atom_site_occupancy
  Co  Co1       1.0  0.00000  0.00000  0.50000  1.0000
  Co  Co2       1.0  0.50000  0.50000  0.50000  1.0000
  H   H1        1.0  0.42161  0.98253  0.38146  1.0000
  H   H2        1.0  0.92161  0.51747  0.61854  1.0000
  H   H3        1.0  0.57840  0.01746  0.61854  1.0000
  H   H4        1.0  0.07840  0.48254  0.38145  1.0000
  H   H5        1.0  0.88742  0.73865  0.26666  1.0000
  H   H6        1.0  0.38742  0.76135  0.73333  1.0000
  H   H7        1.0  0.11258  0.26136  0.73333  1.0000
  H   H8        1.0  0.61258  0.23864  0.26667  1.0000
  H   H9        1.0  0.60487  0.82175  0.18084  1.0000
  H   H10       1.0  0.10486  0.67824  0.81917  1.0000
  H   H11       1.0  0.39514  0.17824  0.81917  1.0000
  H   H12       1.0  0.89515  0.32177  0.18083  1.0000
  H   H13       1.0  0.05303  0.55952  0.07594  1.0000
  H   H14       1.0  0.55302  0.94048  0.92405  1.0000
  H   H15       1.0  0.94697  0.44049  0.92405  1.0000
  H   H16       1.0  0.44697  0.05951  0.07595  1.0000
  H   H17       1.0  0.57973  0.62337  0.95695  1.0000
  H   H18       1.0  0.07971  0.87663  0.04305  1.0000
  H   H19       1.0  0.42027  0.37662  0.04305  1.0000
  H   H20       1.0  0.92028  0.12338  0.95695  1.0000
  H   H21       1.0  0.35971  0.47934  0.79184  1.0000
  H   H22       1.0  0.85970  0.02067  0.20816  1.0000
  H   H23       1.0  0.64029  0.52066  0.20816  1.0000
  H   H24       1.0  0.14029  0.97933  0.79184  1.0000
  C   C1        1.0  0.34461  0.88789  0.31055  1.0000
  C   C2        1.0  0.84460  0.61211  0.68945  1.0000
  C   C3        1.0  0.65540  0.11210  0.68945  1.0000
  C   C4        1.0  0.15540  0.38790  0.31055  1.0000
  C   C5        1.0  0.04851  0.75183  0.24887  1.0000
  C   C6        1.0  0.54850  0.74818  0.75113  1.0000
  C   C7        1.0  0.95149  0.24818  0.75113  1.0000
  C   C8        1.0  0.45149  0.25182  0.24887  1.0000
  C   C9        1.0  0.44825  0.79403  0.19871  1.0000
  C   C10       1.0  0.94824  0.70596  0.80129  1.0000
  C   C11       1.0  0.55175  0.20596  0.80129  1.0000
  C   C12       1.0  0.05176  0.29404  0.19871  1.0000
  C   C13       1.0  0.14405  0.65142  0.13828  1.0000
  C   C14       1.0  0.64405  0.84858  0.86172  1.0000
  C   C15       1.0  0.85595  0.34859  0.86172  1.0000
  C   C16       1.0  0.35595  0.15141  0.13828  1.0000
  C   C17       1.0  0.34876  0.67148  0.10925  1.0000
  C   C18       1.0  0.84876  0.82852  0.89075  1.0000
  C   C19       1.0  0.65123  0.32852  0.89075  1.0000
  C   C20       1.0  0.15123  0.17148  0.10925  1.0000
  C   C21       1.0  0.45215  0.56624  0.98555  1.0000
  C   C22       1.0  0.95214  0.93376  0.01445  1.0000
  C   C23       1.0  0.54785  0.43376  0.01446  1.0000
  C   C24       1.0  0.04786  0.06624  0.98555  1.0000
  N   N1        1.0  0.14549  0.86923  0.33698  1.0000
  N   N2        1.0  0.64549  0.63077  0.66302  1.0000
  N   N3        1.0  0.85451  0.13077  0.66302  1.0000
  N   N4        1.0  0.35451  0.36922  0.33698  1.0000
  N   N5        1.0  0.25705  0.15733  0.52481  1.0000
  N   N6        1.0  0.75705  0.34267  0.47519  1.0000
  N   N7        1.0  0.74296  0.84267  0.47519  1.0000
  N   N8        1.0  0.24296  0.65733  0.52481  1.0000
  N   N9        1.0  0.35529  0.40763  0.60986  1.0000
  N   N10       1.0  0.85530  0.09237  0.39014  1.0000
  N   N11       1.0  0.64471  0.59236  0.39014  1.0000
  N   N12       1.0  0.14470  0.90764  0.60986  1.0000
  N   N13       1.0  0.30472  0.28108  0.56334  1.0000
  N   N14       1.0  0.80472  0.21892  0.43666  1.0000
  N   N15       1.0  0.69529  0.71892  0.43666  1.0000
  N   N16       1.0  0.19529  0.78107  0.56334  1.0000
  O   O1        1.0  0.30020  0.51763  0.88370  1.0000
  O   O2        1.0  0.80019  0.98237  0.11630  1.0000
  O   O3        1.0  0.69980  0.48236  0.11630  1.0000
  O   O4        1.0  0.19980  0.01763  0.88370  1.0000
