data_image0
_chemical_formula_structural       Co2H36C36N8O10
_chemical_formula_sum              "Co2 H36 C36 N8 O10"
_cell_length_a       9.14501
_cell_length_b       9.64003
_cell_length_c       11.4309
_cell_angle_alpha    73.3219
_cell_angle_beta     80.7012
_cell_angle_gamma    64.8682

_space_group_name_H-M_alt    "P 1"
_space_group_IT_number       1

loop_
  _space_group_symop_operation_xyz
  'x, y, z'

loop_
  _atom_site_type_symbol
  _atom_site_label
  _atom_site_symmetry_multiplicity
  _atom_site_fract_x
  _atom_site_fract_y
  _atom_site_fract_z
  _atom_site_occupancy
  Co  Co1       1.0  0.30750  0.69731  0.39136  1.0000
  Co  Co2       1.0  0.69251  0.30269  0.60865  1.0000
  H   H1        1.0  0.52437  0.66939  0.13061  1.0000
  H   H2        1.0  0.47563  0.33061  0.86939  1.0000
  H   H3        1.0  0.67432  0.00711  0.18143  1.0000
  H   H4        1.0  0.32568  0.99289  0.81856  1.0000
  H   H5        1.0  0.44045  0.96695  0.36222  1.0000
  H   H6        1.0  0.55955  0.03305  0.63778  1.0000
  H   H7        1.0  0.87143  0.75702  0.05725  1.0000
  H   H8        1.0  0.12857  0.24299  0.94275  1.0000
  H   H9        1.0  0.73369  0.92893  0.96227  1.0000
  H   H10       1.0  0.26631  0.07107  0.03773  1.0000
  H   H11       1.0  0.96721  0.81381  0.55728  1.0000
  H   H12       1.0  0.03279  0.18618  0.44272  1.0000
  H   H13       1.0  0.05222  0.33275  0.71268  1.0000
  H   H14       1.0  0.94778  0.66725  0.28732  1.0000
  H   H15       1.0  0.30062  0.35477  0.53971  1.0000
  H   H16       1.0  0.69939  0.64523  0.46029  1.0000
  H   H17       1.0  0.80501  0.52418  0.78567  1.0000
  H   H18       1.0  0.19499  0.47582  0.21433  1.0000
  H   H19       1.0  0.72463  0.71852  0.69373  1.0000
  H   H20       1.0  0.27537  0.28148  0.30627  1.0000
  H   H21       1.0  0.87027  0.80759  0.79652  1.0000
  H   H22       1.0  0.12973  0.19241  0.20348  1.0000
  H   H23       1.0  0.98406  0.61352  0.87747  1.0000
  H   H24       1.0  0.01594  0.38649  0.12253  1.0000
  H   H25       1.0  0.61363  0.76804  0.90829  1.0000
  H   H26       1.0  0.38637  0.23196  0.09171  1.0000
  H   H27       1.0  0.74759  0.59374  0.00301  1.0000
  H   H28       1.0  0.25240  0.40627  0.99699  1.0000
  H   H29       1.0  0.81689  0.10862  0.41300  1.0000
  H   H30       1.0  0.18312  0.89138  0.58700  1.0000
  H   H31       1.0  0.96043  0.07411  0.04115  1.0000
  H   H32       1.0  0.03957  0.92589  0.95885  1.0000
  H   H33       1.0  0.51705  0.45008  0.11897  1.0000
  H   H34       1.0  0.48295  0.54992  0.88104  1.0000
  H   H35       1.0  0.78174  0.26370  0.89135  1.0000
  H   H36       1.0  0.21825  0.73630  0.10865  1.0000
  C   C1        1.0  0.53272  0.75542  0.16950  1.0000
  C   C2        1.0  0.46728  0.24458  0.83050  1.0000
  C   C3        1.0  0.60703  0.93361  0.19778  1.0000
  C   C4        1.0  0.39297  0.06639  0.80222  1.0000
  C   C5        1.0  0.49183  0.91260  0.28602  1.0000
  C   C6        1.0  0.50817  0.08741  0.71398  1.0000
  C   C7        1.0  0.74975  0.81127  0.02095  1.0000
  C   C8        1.0  0.25025  0.18873  0.97905  1.0000
  C   C9        1.0  0.02524  0.68610  0.57376  1.0000
  C   C10       1.0  0.97477  0.31390  0.42624  1.0000
  C   C11       1.0  0.07550  0.43343  0.65611  1.0000
  C   C12       1.0  0.92450  0.56657  0.34389  1.0000
  C   C13       1.0  0.19365  0.44647  0.56816  1.0000
  C   C14       1.0  0.80635  0.55353  0.43184  1.0000
  C   C15       1.0  0.83107  0.62942  0.74457  1.0000
  C   C16       1.0  0.16893  0.37057  0.25543  1.0000
  C   C17       1.0  0.86394  0.69283  0.84121  1.0000
  C   C18       1.0  0.13606  0.30717  0.15879  1.0000
  C   C19       1.0  0.73477  0.71115  0.94553  1.0000
  C   C20       1.0  0.26523  0.28885  0.05447  1.0000
  C   C21       1.0  0.65547  0.28831  0.27493  1.0000
  C   C22       1.0  0.34453  0.71169  0.72507  1.0000
  C   C23       1.0  0.79386  0.15272  0.31606  1.0000
  C   C24       1.0  0.20614  0.84728  0.68394  1.0000
  C   C25       1.0  0.90238  0.07518  0.23155  1.0000
  C   C26       1.0  0.09762  0.92482  0.76845  1.0000
  C   C27       1.0  0.87406  0.13341  0.10654  1.0000
  C   C28       1.0  0.12594  0.86660  0.89346  1.0000
  C   C29       1.0  0.73660  0.26944  0.06526  1.0000
  C   C30       1.0  0.26340  0.73056  0.93475  1.0000
  C   C31       1.0  0.62622  0.34615  0.15006  1.0000
  C   C32       1.0  0.37378  0.65385  0.84994  1.0000
  C   C33       1.0  0.54177  0.37457  0.36494  1.0000
  C   C34       1.0  0.45823  0.62543  0.63506  1.0000
  C   C35       1.0  0.04959  0.92983  0.27452  1.0000
  C   C36       1.0  0.95041  0.07017  0.72548  1.0000
  N   N1        1.0  0.16112  0.60449  0.51712  1.0000
  N   N2        1.0  0.83889  0.39551  0.48288  1.0000
  N   N3        1.0  0.96956  0.58612  0.65843  1.0000
  N   N4        1.0  0.03045  0.41388  0.34158  1.0000
  N   N5        1.0  0.44663  0.80128  0.26751  1.0000
  N   N6        1.0  0.55337  0.19872  0.73248  1.0000
  N   N7        1.0  0.63116  0.83356  0.12403  1.0000
  N   N8        1.0  0.36884  0.16645  0.87597  1.0000
  O   O1        1.0  0.42312  0.50304  0.32417  1.0000
  O   O2        1.0  0.57688  0.49696  0.67584  1.0000
  O   O3        1.0  0.56863  0.31313  0.47857  1.0000
  O   O4        1.0  0.43138  0.68687  0.52143  1.0000
  O   O5        1.0  0.11315  0.91929  0.37008  1.0000
  O   O6        1.0  0.88684  0.08070  0.62992  1.0000
  O   O7        1.0  0.10578  0.82072  0.21722  1.0000
  O   O8        1.0  0.89421  0.17928  0.78278  1.0000
  O   O9        1.0  0.70456  0.33188  0.94494  1.0000
  O   O10       1.0  0.29544  0.66812  0.05506  1.0000
