data_image0
_chemical_formula_structural       H16Pb2C14S2O14
_chemical_formula_sum              "H16 Pb2 C14 S2 O14"
_cell_length_a       5.94385
_cell_length_b       8.21594
_cell_length_c       10.9049
_cell_angle_alpha    74.8216
_cell_angle_beta     86.2351
_cell_angle_gamma    81.6797

_space_group_name_H-M_alt    "P 1"
_space_group_IT_number       1

loop_
  _space_group_symop_operation_xyz
  'x, y, z'

loop_
  _atom_site_type_symbol
  _atom_site_label
  _atom_site_symmetry_multiplicity
  _atom_site_fract_x
  _atom_site_fract_y
  _atom_site_fract_z
  _atom_site_occupancy
  H   H1        1.0  0.43584  0.43860  0.67949  1.0000
  H   H2        1.0  0.56416  0.56140  0.32051  1.0000
  H   H3        1.0  0.22864  0.59503  0.65286  1.0000
  H   H4        1.0  0.77137  0.40498  0.34714  1.0000
  H   H5        1.0  0.18859  0.88277  0.58798  1.0000
  H   H6        1.0  0.81140  0.11723  0.41202  1.0000
  H   H7        1.0  0.19658  0.92402  0.43980  1.0000
  H   H8        1.0  0.80341  0.07598  0.56020  1.0000
  H   H9        1.0  0.60714  0.88163  0.94106  1.0000
  H   H10       1.0  0.39286  0.11837  0.05893  1.0000
  H   H11       1.0  0.73262  0.88387  0.15519  1.0000
  H   H12       1.0  0.26737  0.11612  0.84481  1.0000
  H   H13       1.0  0.39513  0.63501  0.07399  1.0000
  H   H14       1.0  0.60487  0.36497  0.92602  1.0000
  H   H15       1.0  0.27392  0.64533  0.85785  1.0000
  H   H16       1.0  0.72609  0.35468  0.14215  1.0000
  Pb  Pb1       1.0  0.67354  0.73035  0.51939  1.0000
  Pb  Pb2       1.0  0.32647  0.26964  0.48061  1.0000
  C   C1        1.0  0.85451  0.75869  0.76032  1.0000
  C   C2        1.0  0.14548  0.24131  0.23969  1.0000
  C   C3        1.0  0.93008  0.75932  0.88807  1.0000
  C   C4        1.0  0.06993  0.24067  0.11193  1.0000
  C   C5        1.0  0.77867  0.82717  0.97169  1.0000
  C   C6        1.0  0.22133  0.17282  0.02831  1.0000
  C   C7        1.0  0.84836  0.82851  0.09086  1.0000
  C   C8        1.0  0.15164  0.17149  0.90913  1.0000
  C   C9        1.0  0.06984  0.75715  0.12664  1.0000
  C   C10       1.0  0.93017  0.24285  0.87336  1.0000
  C   C11       1.0  0.22269  0.68851  0.04452  1.0000
  C   C12       1.0  0.77731  0.31149  0.95549  1.0000
  C   C13       1.0  0.15346  0.69245  0.92429  1.0000
  C   C14       1.0  0.84655  0.30756  0.07570  1.0000
  S   S1        1.0  0.16000  0.74228  0.28155  1.0000
  S   S2        1.0  0.84000  0.25772  0.71845  1.0000
  O   O1        1.0  0.64339  0.77235  0.74049  1.0000
  O   O2        1.0  0.35660  0.22767  0.25951  1.0000
  O   O3        1.0  0.00646  0.74253  0.67307  1.0000
  O   O4        1.0  0.99353  0.25747  0.32692  1.0000
  O   O5        1.0  0.11005  0.57538  0.35971  1.0000
  O   O6        1.0  0.88995  0.42462  0.64029  1.0000
  O   O7        1.0  0.02637  0.88266  0.32641  1.0000
  O   O8        1.0  0.97362  0.11734  0.67358  1.0000
  O   O9        1.0  0.40570  0.75734  0.26931  1.0000
  O   O10       1.0  0.59430  0.24267  0.73068  1.0000
  O   O11       1.0  0.37044  0.54288  0.61706  1.0000
  O   O12       1.0  0.62957  0.45712  0.38294  1.0000
  O   O13       1.0  0.28330  0.93240  0.51242  1.0000
  O   O14       1.0  0.71670  0.06759  0.48758  1.0000
