data_image0
_chemical_formula_structural       Nd2H40C36N14O24
_chemical_formula_sum              "Nd2 H40 C36 N14 O24"
_cell_length_a       11.0882
_cell_length_b       10.8649
_cell_length_c       14.0515
_cell_angle_alpha    82.375
_cell_angle_beta     67.283
_cell_angle_gamma    64.5916

_space_group_name_H-M_alt    "P 1"
_space_group_IT_number       1

loop_
  _space_group_symop_operation_xyz
  'x, y, z'

loop_
  _atom_site_type_symbol
  _atom_site_label
  _atom_site_symmetry_multiplicity
  _atom_site_fract_x
  _atom_site_fract_y
  _atom_site_fract_z
  _atom_site_occupancy
  Nd  Nd1       1.0  0.28077  0.38745  0.36688  1.0000
  Nd  Nd2       1.0  0.71923  0.61255  0.63312  1.0000
  H   H1        1.0  0.81640  0.14952  0.18787  1.0000
  H   H2        1.0  0.18361  0.85048  0.81213  1.0000
  H   H3        1.0  0.07130  0.04271  0.08434  1.0000
  H   H4        1.0  0.92870  0.95730  0.91565  1.0000
  H   H5        1.0  0.12535  0.21224  0.26833  1.0000
  H   H6        1.0  0.87465  0.78776  0.73167  1.0000
  H   H7        1.0  0.41063  0.80242  0.82336  1.0000
  H   H8        1.0  0.58937  0.19759  0.17664  1.0000
  H   H9        1.0  0.36885  0.01579  0.27098  1.0000
  H   H10       1.0  0.63115  0.98421  0.72902  1.0000
  H   H11       1.0  0.34730  0.82627  0.28289  1.0000
  H   H12       1.0  0.65269  0.17373  0.71711  1.0000
  H   H13       1.0  0.18931  0.81761  0.38060  1.0000
  H   H14       1.0  0.81069  0.18239  0.61940  1.0000
  H   H15       1.0  0.35389  0.74558  0.40117  1.0000
  H   H16       1.0  0.64611  0.25442  0.59884  1.0000
  H   H17       1.0  0.23569  0.96665  0.56522  1.0000
  H   H18       1.0  0.76432  0.03335  0.43478  1.0000
  H   H19       1.0  0.10051  0.93642  0.54630  1.0000
  H   H20       1.0  0.89949  0.06358  0.45370  1.0000
  H   H21       1.0  0.09965  0.10374  0.53096  1.0000
  H   H22       1.0  0.90035  0.89626  0.46904  1.0000
  H   H23       1.0  0.68110  0.75435  0.96938  1.0000
  H   H24       1.0  0.31890  0.24566  0.03062  1.0000
  H   H25       1.0  0.67376  0.40979  0.45145  1.0000
  H   H26       1.0  0.32624  0.59021  0.54855  1.0000
  H   H27       1.0  0.04975  0.33923  0.64029  1.0000
  H   H28       1.0  0.95024  0.66077  0.35971  1.0000
  H   H29       1.0  0.42291  0.16608  0.60678  1.0000
  H   H30       1.0  0.57708  0.83392  0.39322  1.0000
  H   H31       1.0  0.39408  0.01822  0.66399  1.0000
  H   H32       1.0  0.60591  0.98178  0.33601  1.0000
  H   H33       1.0  0.37688  0.14477  0.74342  1.0000
  H   H34       1.0  0.62311  0.85523  0.25659  1.0000
  H   H35       1.0  0.99609  0.23907  0.78417  1.0000
  H   H36       1.0  0.00391  0.76093  0.21582  1.0000
  H   H37       1.0  0.12026  0.18269  0.84938  1.0000
  H   H38       1.0  0.87974  0.81731  0.15062  1.0000
  H   H39       1.0  0.12287  0.06404  0.77229  1.0000
  H   H40       1.0  0.87713  0.93596  0.22770  1.0000
  C   C1        1.0  0.93801  0.37642  0.43842  1.0000
  C   C2        1.0  0.06199  0.62358  0.56158  1.0000
  C   C3        1.0  0.84062  0.19578  0.23858  1.0000
  C   C4        1.0  0.15937  0.80421  0.76143  1.0000
  C   C5        1.0  0.01517  0.22899  0.28463  1.0000
  C   C6        1.0  0.98483  0.77100  0.71538  1.0000
  C   C7        1.0  0.90370  0.31423  0.36813  1.0000
  C   C8        1.0  0.09630  0.68576  0.63188  1.0000
  C   C9        1.0  0.98323  0.16697  0.22187  1.0000
  C   C10       1.0  0.01677  0.83303  0.77814  1.0000
  C   C11       1.0  0.32765  0.93641  0.05605  1.0000
  C   C12       1.0  0.67234  0.06360  0.94395  1.0000
  C   C13       1.0  0.30837  0.04691  0.35339  1.0000
  C   C14       1.0  0.69163  0.95309  0.64661  1.0000
  C   C15       1.0  0.28778  0.83048  0.36617  1.0000
  C   C16       1.0  0.71222  0.16952  0.63383  1.0000
  C   C17       1.0  0.16726  0.99391  0.51952  1.0000
  C   C18       1.0  0.83274  0.00609  0.48048  1.0000
  C   C19       1.0  0.57692  0.31199  0.34346  1.0000
  C   C20       1.0  0.42309  0.68801  0.65654  1.0000
  C   C21       1.0  0.72977  0.28385  0.32115  1.0000
  C   C22       1.0  0.27023  0.71614  0.67885  1.0000
  C   C23       1.0  0.47307  0.87859  0.05779  1.0000
  C   C24       1.0  0.52693  0.12141  0.94221  1.0000
  C   C25       1.0  0.56013  0.77026  0.88627  1.0000
  C   C26       1.0  0.43987  0.22974  0.11373  1.0000
  C   C27       1.0  0.30243  0.90125  0.97071  1.0000
  C   C28       1.0  0.69758  0.09876  0.02928  1.0000
  C   C29       1.0  0.76083  0.34206  0.38677  1.0000
  C   C30       1.0  0.23917  0.65793  0.61323  1.0000
  C   C31       1.0  0.16640  0.29255  0.62214  1.0000
  C   C32       1.0  0.83359  0.70745  0.37785  1.0000
  C   C33       1.0  0.35996  0.12824  0.67488  1.0000
  C   C34       1.0  0.64003  0.87176  0.32512  1.0000
  C   C35       1.0  0.10553  0.17052  0.77873  1.0000
  C   C36       1.0  0.89446  0.82948  0.22126  1.0000
  N   N1        1.0  0.09274  0.07382  0.14083  1.0000
  N   N2        1.0  0.90726  0.92618  0.85918  1.0000
  N   N3        1.0  0.22546  0.02174  0.13449  1.0000
  N   N4        1.0  0.77454  0.97826  0.86551  1.0000
  N   N5        1.0  0.42197  0.82119  0.89034  1.0000
  N   N6        1.0  0.57803  0.17881  0.10966  1.0000
  N   N7        1.0  0.25331  0.96125  0.41001  1.0000
  N   N8        1.0  0.74669  0.03875  0.58999  1.0000
  N   N9        1.0  0.30018  0.59481  0.20232  1.0000
  N   N10       1.0  0.69982  0.40520  0.79768  1.0000
  N   N11       1.0  0.57815  0.79367  0.97262  1.0000
  N   N12       1.0  0.42185  0.20634  0.02738  1.0000
  N   N13       1.0  0.20886  0.20167  0.68935  1.0000
  N   N14       1.0  0.79114  0.79833  0.31065  1.0000
  O   O1        1.0  0.85325  0.39996  0.53234  1.0000
  O   O2        1.0  0.14674  0.60005  0.46766  1.0000
  O   O3        1.0  0.04917  0.40024  0.39909  1.0000
  O   O4        1.0  0.95083  0.59976  0.60091  1.0000
  O   O5        1.0  0.29163  0.15406  0.39112  1.0000
  O   O6        1.0  0.70836  0.84594  0.60888  1.0000
  O   O7        1.0  0.55040  0.23682  0.29700  1.0000
  O   O8        1.0  0.44960  0.76318  0.70300  1.0000
  O   O9        1.0  0.50844  0.90099  0.12492  1.0000
  O   O10       1.0  0.49156  0.09901  0.87508  1.0000
  O   O11       1.0  0.18032  0.94370  0.96668  1.0000
  O   O12       1.0  0.81969  0.05632  0.03332  1.0000
  O   O13       1.0  0.47673  0.40592  0.40796  1.0000
  O   O14       1.0  0.52327  0.59407  0.59204  1.0000
  O   O15       1.0  0.66592  0.70587  0.80968  1.0000
  O   O16       1.0  0.33409  0.29414  0.19032  1.0000
  O   O17       1.0  0.18421  0.57685  0.25018  1.0000
  O   O18       1.0  0.81579  0.42315  0.74982  1.0000
  O   O19       1.0  0.30592  0.68170  0.13593  1.0000
  O   O20       1.0  0.69408  0.31831  0.86408  1.0000
  O   O21       1.0  0.40838  0.51882  0.22729  1.0000
  O   O22       1.0  0.59163  0.48118  0.77271  1.0000
  O   O23       1.0  0.25113  0.32427  0.54471  1.0000
  O   O24       1.0  0.74887  0.67573  0.45529  1.0000
