data_image0
_chemical_formula_structural       Sm2H40C36N14O24
_chemical_formula_sum              "Sm2 H40 C36 N14 O24"
_cell_length_a       11.0459
_cell_length_b       10.8222
_cell_length_c       14.0234
_cell_angle_alpha    82.3203
_cell_angle_beta     66.9301
_cell_angle_gamma    64.8675

_space_group_name_H-M_alt    "P 1"
_space_group_IT_number       1

loop_
  _space_group_symop_operation_xyz
  'x, y, z'

loop_
  _atom_site_type_symbol
  _atom_site_label
  _atom_site_symmetry_multiplicity
  _atom_site_fract_x
  _atom_site_fract_y
  _atom_site_fract_z
  _atom_site_occupancy
  Sm  Sm1       1.0  0.28057  0.38704  0.36711  1.0000
  Sm  Sm2       1.0  0.71943  0.61296  0.63289  1.0000
  H   H1        1.0  0.07093  0.04230  0.08509  1.0000
  H   H2        1.0  0.92907  0.95770  0.91491  1.0000
  H   H3        1.0  0.68272  0.75371  0.96776  1.0000
  H   H4        1.0  0.31729  0.24630  0.03224  1.0000
  H   H5        1.0  0.04995  0.33986  0.63866  1.0000
  H   H6        1.0  0.95004  0.66014  0.36133  1.0000
  H   H7        1.0  0.99425  0.24223  0.78435  1.0000
  H   H8        1.0  0.00575  0.75777  0.21565  1.0000
  H   H9        1.0  0.11926  0.18298  0.84907  1.0000
  H   H10       1.0  0.88073  0.81703  0.15093  1.0000
  H   H11       1.0  0.11834  0.06583  0.77229  1.0000
  H   H12       1.0  0.88166  0.93417  0.22771  1.0000
  H   H13       1.0  0.42408  0.16155  0.60188  1.0000
  H   H14       1.0  0.57592  0.83846  0.39812  1.0000
  H   H15       1.0  0.39156  0.01703  0.66581  1.0000
  H   H16       1.0  0.60843  0.98297  0.33419  1.0000
  H   H17       1.0  0.37868  0.14780  0.73948  1.0000
  H   H18       1.0  0.62131  0.85220  0.26052  1.0000
  H   H19       1.0  0.67189  0.41181  0.45291  1.0000
  H   H20       1.0  0.32811  0.58819  0.54710  1.0000
  H   H21       1.0  0.81545  0.14939  0.18909  1.0000
  H   H22       1.0  0.18455  0.85060  0.81090  1.0000
  H   H23       1.0  0.41130  0.80218  0.82223  1.0000
  H   H24       1.0  0.58871  0.19782  0.17778  1.0000
  H   H25       1.0  0.12561  0.21184  0.26953  1.0000
  H   H26       1.0  0.87438  0.78816  0.73047  1.0000
  H   H27       1.0  0.37064  0.01792  0.27024  1.0000
  H   H28       1.0  0.62936  0.98208  0.72975  1.0000
  H   H29       1.0  0.35051  0.82688  0.28180  1.0000
  H   H30       1.0  0.64949  0.17312  0.71820  1.0000
  H   H31       1.0  0.18988  0.81848  0.37848  1.0000
  H   H32       1.0  0.81012  0.18152  0.62152  1.0000
  H   H33       1.0  0.35310  0.74596  0.40112  1.0000
  H   H34       1.0  0.64690  0.25404  0.59888  1.0000
  H   H35       1.0  0.10087  0.93498  0.54679  1.0000
  H   H36       1.0  0.89914  0.06502  0.45321  1.0000
  H   H37       1.0  0.09687  0.10402  0.53127  1.0000
  H   H38       1.0  0.90313  0.89598  0.46873  1.0000
  H   H39       1.0  0.23434  0.96926  0.56555  1.0000
  H   H40       1.0  0.76566  0.03074  0.43445  1.0000
  C   C1        1.0  0.57457  0.31336  0.34465  1.0000
  C   C2        1.0  0.42542  0.68663  0.65535  1.0000
  C   C3        1.0  0.32799  0.93521  0.05614  1.0000
  C   C4        1.0  0.67201  0.06479  0.94386  1.0000
  C   C5        1.0  0.16694  0.29270  0.62047  1.0000
  C   C6        1.0  0.83306  0.70730  0.37952  1.0000
  C   C7        1.0  0.10353  0.17191  0.77849  1.0000
  C   C8        1.0  0.89647  0.82809  0.22151  1.0000
  C   C9        1.0  0.35998  0.12753  0.67284  1.0000
  C   C10       1.0  0.64002  0.87248  0.32716  1.0000
  C   C11       1.0  0.72815  0.28447  0.32280  1.0000
  C   C12       1.0  0.27185  0.71552  0.67720  1.0000
  C   C13       1.0  0.93773  0.37743  0.43964  1.0000
  C   C14       1.0  0.06227  0.62257  0.56036  1.0000
  C   C15       1.0  0.90297  0.31508  0.36948  1.0000
  C   C16       1.0  0.09703  0.68491  0.63052  1.0000
  C   C17       1.0  0.75939  0.34328  0.38827  1.0000
  C   C18       1.0  0.24061  0.65672  0.61174  1.0000
  C   C19       1.0  0.83957  0.19570  0.24009  1.0000
  C   C20       1.0  0.16043  0.80429  0.75992  1.0000
  C   C21       1.0  0.98281  0.16667  0.22316  1.0000
  C   C22       1.0  0.01719  0.83332  0.77684  1.0000
  C   C23       1.0  0.47390  0.87745  0.05734  1.0000
  C   C24       1.0  0.52610  0.12256  0.94266  1.0000
  C   C25       1.0  0.56115  0.76992  0.88488  1.0000
  C   C26       1.0  0.43885  0.23009  0.11512  1.0000
  C   C27       1.0  0.30252  0.90048  0.97064  1.0000
  C   C28       1.0  0.69749  0.09953  0.02936  1.0000
  C   C29       1.0  0.01492  0.22894  0.28590  1.0000
  C   C30       1.0  0.98508  0.77106  0.71410  1.0000
  C   C31       1.0  0.30894  0.04871  0.35309  1.0000
  C   C32       1.0  0.69106  0.95129  0.64691  1.0000
  C   C33       1.0  0.28868  0.83110  0.36525  1.0000
  C   C34       1.0  0.71132  0.16890  0.63475  1.0000
  C   C35       1.0  0.16644  0.99443  0.51965  1.0000
  C   C36       1.0  0.83356  0.00557  0.48034  1.0000
  N   N1        1.0  0.09258  0.07312  0.14176  1.0000
  N   N2        1.0  0.90742  0.92688  0.85824  1.0000
  N   N3        1.0  0.22571  0.02068  0.13505  1.0000
  N   N4        1.0  0.77430  0.97933  0.86495  1.0000
  N   N5        1.0  0.57935  0.79269  0.97151  1.0000
  N   N6        1.0  0.42066  0.20732  0.02849  1.0000
  N   N7        1.0  0.20846  0.20179  0.68807  1.0000
  N   N8        1.0  0.79153  0.79821  0.31192  1.0000
  N   N9        1.0  0.30043  0.59193  0.20335  1.0000
  N   N10       1.0  0.69957  0.40807  0.79665  1.0000
  N   N11       1.0  0.42242  0.82075  0.88956  1.0000
  N   N12       1.0  0.57759  0.17926  0.11044  1.0000
  N   N13       1.0  0.25379  0.96202  0.40967  1.0000
  N   N14       1.0  0.74621  0.03798  0.59033  1.0000
  O   O1        1.0  0.47363  0.40878  0.40803  1.0000
  O   O2        1.0  0.52637  0.59122  0.59198  1.0000
  O   O3        1.0  0.54799  0.23739  0.29853  1.0000
  O   O4        1.0  0.45200  0.76261  0.70147  1.0000
  O   O5        1.0  0.85138  0.40283  0.53378  1.0000
  O   O6        1.0  0.14861  0.59717  0.46622  1.0000
  O   O7        1.0  0.25313  0.32383  0.54249  1.0000
  O   O8        1.0  0.74687  0.67617  0.45751  1.0000
  O   O9        1.0  0.50937  0.89988  0.12454  1.0000
  O   O10       1.0  0.49063  0.10013  0.87547  1.0000
  O   O11       1.0  0.17990  0.94320  0.96703  1.0000
  O   O12       1.0  0.82012  0.05681  0.03296  1.0000
  O   O13       1.0  0.18399  0.57328  0.25154  1.0000
  O   O14       1.0  0.81601  0.42671  0.74846  1.0000
  O   O15       1.0  0.66730  0.70629  0.80746  1.0000
  O   O16       1.0  0.33271  0.29371  0.19254  1.0000
  O   O17       1.0  0.05093  0.39936  0.40010  1.0000
  O   O18       1.0  0.94906  0.60065  0.59990  1.0000
  O   O19       1.0  0.29079  0.15634  0.39156  1.0000
  O   O20       1.0  0.70921  0.84367  0.60844  1.0000
  O   O21       1.0  0.40857  0.51582  0.22835  1.0000
  O   O22       1.0  0.59142  0.48418  0.77165  1.0000
  O   O23       1.0  0.30681  0.67924  0.13683  1.0000
  O   O24       1.0  0.69318  0.32076  0.86317  1.0000
