data_image0
_chemical_formula_structural       Dy2H40C36N14O24
_chemical_formula_sum              "Dy2 H40 C36 N14 O24"
_cell_length_a       10.9451
_cell_length_b       10.7513
_cell_length_c       13.9802
_cell_angle_alpha    82.5958
_cell_angle_beta     66.6648
_cell_angle_gamma    65.3689

_space_group_name_H-M_alt    "P 1"
_space_group_IT_number       1

loop_
  _space_group_symop_operation_xyz
  'x, y, z'

loop_
  _atom_site_type_symbol
  _atom_site_label
  _atom_site_symmetry_multiplicity
  _atom_site_fract_x
  _atom_site_fract_y
  _atom_site_fract_z
  _atom_site_occupancy
  Dy  Dy1       1.0  0.28047  0.38583  0.36767  1.0000
  Dy  Dy2       1.0  0.71953  0.61417  0.63233  1.0000
  H   H1        1.0  0.06927  0.04256  0.08556  1.0000
  H   H2        1.0  0.93073  0.95744  0.91445  1.0000
  H   H3        1.0  0.41243  0.80276  0.81907  1.0000
  H   H4        1.0  0.58757  0.19724  0.18093  1.0000
  H   H5        1.0  0.66972  0.41493  0.45561  1.0000
  H   H6        1.0  0.33028  0.58508  0.54439  1.0000
  H   H7        1.0  0.04914  0.33879  0.63413  1.0000
  H   H8        1.0  0.95086  0.66121  0.36587  1.0000
  H   H9        1.0  0.42443  0.16783  0.60160  1.0000
  H   H10       1.0  0.57557  0.83218  0.39840  1.0000
  H   H11       1.0  0.39292  0.01993  0.66122  1.0000
  H   H12       1.0  0.60708  0.98008  0.33878  1.0000
  H   H13       1.0  0.37553  0.14943  0.73977  1.0000
  H   H14       1.0  0.62446  0.85057  0.26023  1.0000
  H   H15       1.0  0.99030  0.24275  0.78189  1.0000
  H   H16       1.0  0.00970  0.75725  0.21811  1.0000
  H   H17       1.0  0.11516  0.18322  0.84680  1.0000
  H   H18       1.0  0.88483  0.81678  0.15320  1.0000
  H   H19       1.0  0.11509  0.06629  0.76792  1.0000
  H   H20       1.0  0.88491  0.93371  0.23207  1.0000
  H   H21       1.0  0.12681  0.21166  0.27060  1.0000
  H   H22       1.0  0.87319  0.78834  0.72941  1.0000
  H   H23       1.0  0.68563  0.75182  0.96468  1.0000
  H   H24       1.0  0.31438  0.24818  0.03532  1.0000
  H   H25       1.0  0.81260  0.14977  0.19102  1.0000
  H   H26       1.0  0.18740  0.85024  0.80898  1.0000
  H   H27       1.0  0.37304  0.01961  0.26929  1.0000
  H   H28       1.0  0.62696  0.98039  0.73071  1.0000
  H   H29       1.0  0.19092  0.81867  0.37485  1.0000
  H   H30       1.0  0.80908  0.18133  0.62515  1.0000
  H   H31       1.0  0.35303  0.74551  0.40005  1.0000
  H   H32       1.0  0.64697  0.25449  0.59995  1.0000
  H   H33       1.0  0.35523  0.82610  0.27972  1.0000
  H   H34       1.0  0.64477  0.17390  0.72028  1.0000
  H   H35       1.0  0.09857  0.93464  0.54568  1.0000
  H   H36       1.0  0.90143  0.06536  0.45432  1.0000
  H   H37       1.0  0.09783  0.10365  0.53175  1.0000
  H   H38       1.0  0.90216  0.89635  0.46825  1.0000
  H   H39       1.0  0.23411  0.96668  0.56569  1.0000
  H   H40       1.0  0.76589  0.03333  0.43431  1.0000
  C   C1        1.0  0.57027  0.31638  0.34678  1.0000
  C   C2        1.0  0.42973  0.68362  0.65322  1.0000
  C   C3        1.0  0.72515  0.28660  0.32495  1.0000
  C   C4        1.0  0.27485  0.71340  0.67505  1.0000
  C   C5        1.0  0.93811  0.37866  0.44201  1.0000
  C   C6        1.0  0.06189  0.62134  0.55799  1.0000
  C   C7        1.0  0.90245  0.31619  0.37153  1.0000
  C   C8        1.0  0.09755  0.68381  0.62847  1.0000
  C   C9        1.0  0.32847  0.93370  0.05564  1.0000
  C   C10       1.0  0.67153  0.06630  0.94436  1.0000
  C   C11       1.0  0.75736  0.34550  0.39057  1.0000
  C   C12       1.0  0.24264  0.65450  0.60943  1.0000
  C   C13       1.0  0.16668  0.29324  0.61674  1.0000
  C   C14       1.0  0.83332  0.70677  0.38325  1.0000
  C   C15       1.0  0.35929  0.13082  0.67106  1.0000
  C   C16       1.0  0.64070  0.86919  0.32894  1.0000
  C   C17       1.0  0.10028  0.17265  0.77544  1.0000
  C   C18       1.0  0.89972  0.82734  0.22456  1.0000
  C   C19       1.0  0.01496  0.22925  0.28740  1.0000
  C   C20       1.0  0.98504  0.77075  0.71260  1.0000
  C   C21       1.0  0.98167  0.16705  0.22459  1.0000
  C   C22       1.0  0.01833  0.83294  0.77542  1.0000
  C   C23       1.0  0.30249  0.90016  0.96935  1.0000
  C   C24       1.0  0.69751  0.09984  0.03064  1.0000
  C   C25       1.0  0.56278  0.76959  0.88175  1.0000
  C   C26       1.0  0.43722  0.23040  0.11825  1.0000
  C   C27       1.0  0.47567  0.87539  0.05598  1.0000
  C   C28       1.0  0.52433  0.12461  0.94402  1.0000
  C   C29       1.0  0.83704  0.19678  0.24195  1.0000
  C   C30       1.0  0.16296  0.80321  0.75805  1.0000
  C   C31       1.0  0.31012  0.05023  0.35264  1.0000
  C   C32       1.0  0.68987  0.94978  0.64736  1.0000
  C   C33       1.0  0.29054  0.83079  0.36327  1.0000
  C   C34       1.0  0.70946  0.16922  0.63673  1.0000
  C   C35       1.0  0.16617  0.99356  0.51942  1.0000
  C   C36       1.0  0.83383  0.00644  0.48058  1.0000
  N   N1        1.0  0.09167  0.07273  0.14253  1.0000
  N   N2        1.0  0.90833  0.92727  0.85747  1.0000
  N   N3        1.0  0.22579  0.01925  0.13545  1.0000
  N   N4        1.0  0.77421  0.98075  0.86455  1.0000
  N   N5        1.0  0.42293  0.82074  0.88718  1.0000
  N   N6        1.0  0.57707  0.17925  0.11281  1.0000
  N   N7        1.0  0.20706  0.20376  0.68539  1.0000
  N   N8        1.0  0.79294  0.79624  0.31461  1.0000
  N   N9        1.0  0.58145  0.79123  0.96886  1.0000
  N   N10       1.0  0.41855  0.20877  0.03114  1.0000
  N   N11       1.0  0.29988  0.58697  0.20575  1.0000
  N   N12       1.0  0.70012  0.41302  0.79424  1.0000
  N   N13       1.0  0.25502  0.96205  0.40881  1.0000
  N   N14       1.0  0.74498  0.03795  0.59119  1.0000
  O   O1        1.0  0.54227  0.23867  0.30222  1.0000
  O   O2        1.0  0.45772  0.76134  0.69778  1.0000
  O   O3        1.0  0.46869  0.41432  0.40837  1.0000
  O   O4        1.0  0.53131  0.58568  0.59163  1.0000
  O   O5        1.0  0.84892  0.40758  0.53608  1.0000
  O   O6        1.0  0.15107  0.59243  0.46392  1.0000
  O   O7        1.0  0.66953  0.70677  0.80319  1.0000
  O   O8        1.0  0.33048  0.29322  0.19681  1.0000
  O   O9        1.0  0.05484  0.39709  0.40262  1.0000
  O   O10       1.0  0.94516  0.60291  0.59738  1.0000
  O   O11       1.0  0.17891  0.94359  0.96614  1.0000
  O   O12       1.0  0.82109  0.05641  0.03386  1.0000
  O   O13       1.0  0.51231  0.89684  0.12329  1.0000
  O   O14       1.0  0.48769  0.10315  0.87672  1.0000
  O   O15       1.0  0.29052  0.15862  0.39202  1.0000
  O   O16       1.0  0.70948  0.84138  0.60798  1.0000
  O   O17       1.0  0.25438  0.32495  0.53879  1.0000
  O   O18       1.0  0.74561  0.67505  0.46122  1.0000
  O   O19       1.0  0.40842  0.51114  0.23060  1.0000
  O   O20       1.0  0.59158  0.48886  0.76940  1.0000
  O   O21       1.0  0.30685  0.67449  0.13907  1.0000
  O   O22       1.0  0.69315  0.32550  0.86093  1.0000
  O   O23       1.0  0.18272  0.56729  0.25453  1.0000
  O   O24       1.0  0.81728  0.43271  0.74546  1.0000
