data_image0
_chemical_formula_structural       Hg4H44C52Br8N8
_chemical_formula_sum              "Hg4 H44 C52 Br8 N8"
_cell_length_a       9.89849
_cell_length_b       10.8472
_cell_length_c       14.2644
_cell_angle_alpha    110.24
_cell_angle_beta     90.0002
_cell_angle_gamma    90

_space_group_name_H-M_alt    "P 1"
_space_group_IT_number       1

loop_
  _space_group_symop_operation_xyz
  'x, y, z'

loop_
  _atom_site_type_symbol
  _atom_site_label
  _atom_site_symmetry_multiplicity
  _atom_site_fract_x
  _atom_site_fract_y
  _atom_site_fract_z
  _atom_site_occupancy
  Hg  Hg1       1.0  0.42087  0.31184  0.95586  1.0000
  Hg  Hg2       1.0  0.92088  0.68816  0.54414  1.0000
  Hg  Hg3       1.0  0.57913  0.68816  0.04414  1.0000
  Hg  Hg4       1.0  0.07912  0.31184  0.45586  1.0000
  H   H1        1.0  0.62414  0.33293  0.60694  1.0000
  H   H2        1.0  0.12414  0.66707  0.89306  1.0000
  H   H3        1.0  0.37586  0.66707  0.39306  1.0000
  H   H4        1.0  0.87586  0.33293  0.10694  1.0000
  H   H5        1.0  0.59432  0.94027  0.61493  1.0000
  H   H6        1.0  0.09432  0.05973  0.88508  1.0000
  H   H7        1.0  0.40569  0.05973  0.38508  1.0000
  H   H8        1.0  0.90567  0.94027  0.11492  1.0000
  H   H9        1.0  0.65308  0.09024  0.52186  1.0000
  H   H10       1.0  0.15307  0.90976  0.97814  1.0000
  H   H11       1.0  0.34693  0.90976  0.47814  1.0000
  H   H12       1.0  0.84692  0.09024  0.02186  1.0000
  H   H13       1.0  0.52210  0.41546  0.77937  1.0000
  H   H14       1.0  0.02210  0.58454  0.72063  1.0000
  H   H15       1.0  0.47790  0.58454  0.22063  1.0000
  H   H16       1.0  0.97790  0.41546  0.27937  1.0000
  H   H17       1.0  0.68138  0.83609  0.81890  1.0000
  H   H18       1.0  0.18137  0.16392  0.68110  1.0000
  H   H19       1.0  0.31863  0.16392  0.18110  1.0000
  H   H20       1.0  0.81863  0.83609  0.31890  1.0000
  H   H21       1.0  0.68177  0.59694  0.72973  1.0000
  H   H22       1.0  0.18176  0.40306  0.77028  1.0000
  H   H23       1.0  0.31824  0.40307  0.27028  1.0000
  H   H24       1.0  0.81823  0.59694  0.22972  1.0000
  H   H25       1.0  0.30746  0.62788  0.58445  1.0000
  H   H26       1.0  0.80746  0.37211  0.91556  1.0000
  H   H27       1.0  0.69254  0.37211  0.41556  1.0000
  H   H28       1.0  0.19254  0.62788  0.08444  1.0000
  H   H29       1.0  0.30853  0.87021  0.67222  1.0000
  H   H30       1.0  0.80853  0.12978  0.82779  1.0000
  H   H31       1.0  0.69147  0.12978  0.32779  1.0000
  H   H32       1.0  0.19147  0.87021  0.17221  1.0000
  H   H33       1.0  0.49312  0.49222  0.61022  1.0000
  H   H34       1.0  0.99311  0.50778  0.88978  1.0000
  H   H35       1.0  0.50689  0.50778  0.38978  1.0000
  H   H36       1.0  0.00688  0.49222  0.11022  1.0000
  H   H37       1.0  0.41896  0.89071  0.92168  1.0000
  H   H38       1.0  0.91897  0.10929  0.57832  1.0000
  H   H39       1.0  0.58104  0.10929  0.07832  1.0000
  H   H40       1.0  0.08104  0.89071  0.42168  1.0000
  H   H41       1.0  0.35195  0.04227  0.00643  1.0000
  H   H42       1.0  0.85195  0.95774  0.49357  1.0000
  H   H43       1.0  0.64805  0.95774  0.99357  1.0000
  H   H44       1.0  0.14805  0.04227  0.50643  1.0000
  C   C1        1.0  0.59579  0.26454  0.64408  1.0000
  C   C2        1.0  0.09579  0.73546  0.85592  1.0000
  C   C3        1.0  0.40421  0.73547  0.35592  1.0000
  C   C4        1.0  0.90420  0.26454  0.14408  1.0000
  C   C5        1.0  0.57877  0.04602  0.64892  1.0000
  C   C6        1.0  0.07876  0.95398  0.85109  1.0000
  C   C7        1.0  0.42124  0.95398  0.35108  1.0000
  C   C8        1.0  0.92123  0.04602  0.14891  1.0000
  C   C9        1.0  0.52631  0.09968  0.74577  1.0000
  C   C10       1.0  0.02631  0.90032  0.75423  1.0000
  C   C11       1.0  0.47369  0.90032  0.25423  1.0000
  C   C12       1.0  0.97368  0.09968  0.24577  1.0000
  C   C13       1.0  0.61314  0.12995  0.59758  1.0000
  C   C14       1.0  0.11314  0.87005  0.90242  1.0000
  C   C15       1.0  0.38686  0.87005  0.40242  1.0000
  C   C16       1.0  0.88685  0.12995  0.09758  1.0000
  C   C17       1.0  0.54134  0.31114  0.74026  1.0000
  C   C18       1.0  0.04134  0.68886  0.75974  1.0000
  C   C19       1.0  0.45866  0.68886  0.25974  1.0000
  C   C20       1.0  0.95866  0.31114  0.24026  1.0000
  C   C21       1.0  0.49567  0.01360  0.80493  1.0000
  C   C22       1.0  0.99567  0.98640  0.69507  1.0000
  C   C23       1.0  0.50433  0.98640  0.19507  1.0000
  C   C24       1.0  0.00433  0.01359  0.30493  1.0000
  C   C25       1.0  0.49511  0.86906  0.75114  1.0000
  C   C26       1.0  0.99511  0.13094  0.74886  1.0000
  C   C27       1.0  0.50489  0.13094  0.24886  1.0000
  C   C28       1.0  0.00489  0.86906  0.25114  1.0000
  C   C29       1.0  0.59948  0.79129  0.76713  1.0000
  C   C30       1.0  0.09948  0.20871  0.73287  1.0000
  C   C31       1.0  0.40052  0.20871  0.23287  1.0000
  C   C32       1.0  0.90053  0.79129  0.26713  1.0000
  C   C33       1.0  0.59944  0.65588  0.71668  1.0000
  C   C34       1.0  0.09943  0.34412  0.78332  1.0000
  C   C35       1.0  0.40057  0.34412  0.28332  1.0000
  C   C36       1.0  0.90057  0.65588  0.21668  1.0000
  C   C37       1.0  0.38954  0.67424  0.63554  1.0000
  C   C38       1.0  0.88953  0.32576  0.86447  1.0000
  C   C39       1.0  0.61047  0.32576  0.36447  1.0000
  C   C40       1.0  0.11047  0.67424  0.13553  1.0000
  C   C41       1.0  0.39021  0.80995  0.68464  1.0000
  C   C42       1.0  0.89020  0.19005  0.81536  1.0000
  C   C43       1.0  0.60980  0.19005  0.31536  1.0000
  C   C44       1.0  0.10980  0.80994  0.18463  1.0000
  C   C45       1.0  0.49484  0.59766  0.65073  1.0000
  C   C46       1.0  0.99483  0.40234  0.84927  1.0000
  C   C47       1.0  0.50517  0.40234  0.34927  1.0000
  C   C48       1.0  0.00516  0.59766  0.15073  1.0000
  C   C49       1.0  0.44170  0.99477  0.96324  1.0000
  C   C50       1.0  0.94170  0.00523  0.53676  1.0000
  C   C51       1.0  0.55830  0.00523  0.03676  1.0000
  C   C52       1.0  0.05830  0.99477  0.46323  1.0000
  Br  Br1       1.0  0.62785  0.42986  0.07271  1.0000
  Br  Br2       1.0  0.12785  0.57014  0.42729  1.0000
  Br  Br3       1.0  0.37215  0.57014  0.92729  1.0000
  Br  Br4       1.0  0.87215  0.42986  0.57271  1.0000
  Br  Br5       1.0  0.19693  0.28007  0.03538  1.0000
  Br  Br6       1.0  0.69693  0.71994  0.46462  1.0000
  Br  Br7       1.0  0.80307  0.71993  0.96462  1.0000
  Br  Br8       1.0  0.30307  0.28007  0.53538  1.0000
  N   N1        1.0  0.47463  0.06888  0.89928  1.0000
  N   N2        1.0  0.97464  0.93112  0.60072  1.0000
  N   N3        1.0  0.52536  0.93112  0.10072  1.0000
  N   N4        1.0  0.02536  0.06888  0.39928  1.0000
  N   N5        1.0  0.50683  0.23058  0.78911  1.0000
  N   N6        1.0  0.00683  0.76942  0.71089  1.0000
  N   N7        1.0  0.49317  0.76942  0.21089  1.0000
  N   N8        1.0  0.99317  0.23058  0.28911  1.0000
