data_image0
_chemical_formula_structural       Ni2H14C16S4N6O2
_chemical_formula_sum              "Ni2 H14 C16 S4 N6 O2"
_cell_length_a       7.8621
_cell_length_b       8.0438
_cell_length_c       9.40395
_cell_angle_alpha    71.3864
_cell_angle_beta     73.8578
_cell_angle_gamma    71.5968

_space_group_name_H-M_alt    "P 1"
_space_group_IT_number       1

loop_
  _space_group_symop_operation_xyz
  'x, y, z'

loop_
  _atom_site_type_symbol
  _atom_site_label
  _atom_site_symmetry_multiplicity
  _atom_site_fract_x
  _atom_site_fract_y
  _atom_site_fract_z
  _atom_site_occupancy
  Ni  Ni1       1.0  0.96731  0.84371  0.58431  1.0000
  Ni  Ni2       1.0  0.21914  0.11163  0.61197  1.0000
  H   H1        1.0  0.40370  0.65180  0.63572  1.0000
  H   H2        1.0  0.78538  0.30666  0.56194  1.0000
  H   H3        1.0  0.04863  0.81775  0.00783  1.0000
  H   H4        1.0  0.12907  0.13224  0.18954  1.0000
  H   H5        1.0  0.97294  0.40055  0.00401  1.0000
  H   H6        1.0  0.20809  0.55262  0.19376  1.0000
  H   H7        1.0  0.50030  0.30050  0.22880  1.0000
  H   H8        1.0  0.64489  0.22308  0.06613  1.0000
  H   H9        1.0  0.43340  0.16504  0.15075  1.0000
  H   H10       1.0  0.61058  0.58391  0.39187  1.0000
  H   H11       1.0  0.58140  0.37724  0.80620  1.0000
  H   H12       1.0  0.54517  0.68594  0.08488  1.0000
  H   H13       1.0  0.75820  0.69914  0.95809  1.0000
  H   H14       1.0  0.67972  0.80689  0.11217  1.0000
  C   C1        1.0  0.60394  0.93306  0.44862  1.0000
  C   C2        1.0  0.77947  0.51866  0.18219  1.0000
  C   C3        1.0  0.40789  0.43892  0.01556  1.0000
  C   C4        1.0  0.94404  0.44853  0.74059  1.0000
  C   C5        1.0  0.24323  0.50657  0.45612  1.0000
  C   C6        1.0  0.37056  0.61884  0.75989  1.0000
  C   C7        1.0  0.81650  0.33824  0.43782  1.0000
  C   C8        1.0  0.16655  0.71424  0.97250  1.0000
  C   C9        1.0  0.01432  0.23814  0.22511  1.0000
  C   C10       1.0  0.92537  0.38715  0.12632  1.0000
  C   C11       1.0  0.25705  0.56689  0.07144  1.0000
  C   C12       1.0  0.50303  0.27450  0.12058  1.0000
  C   C13       1.0  0.72512  0.48800  0.34175  1.0000
  C   C14       1.0  0.46349  0.47038  0.85621  1.0000
  C   C15       1.0  0.58216  0.02306  0.74724  1.0000
  C   C16       1.0  0.68727  0.68585  0.07770  1.0000
  S   S1        1.0  0.24265  0.72063  0.41120  1.0000
  S   S2        1.0  0.36288  0.09320  0.81169  1.0000
  S   S3        1.0  0.94493  0.23440  0.78555  1.0000
  S   S4        1.0  0.82334  0.86260  0.38457  1.0000
  N   N1        1.0  0.44516  0.98081  0.49498  1.0000
  N   N2        1.0  0.24344  0.35206  0.48779  1.0000
  N   N3        1.0  0.94328  0.60323  0.70875  1.0000
  N   N4        1.0  0.96235  0.21910  0.37822  1.0000
  N   N5        1.0  0.22200  0.73558  0.81916  1.0000
  N   N6        1.0  0.74089  0.97528  0.70065  1.0000
  O   O1        1.0  0.12720  0.87621  0.72590  1.0000
  O   O2        1.0  0.05818  0.07890  0.47109  1.0000
