data_image0
_chemical_formula_structural       Mn2H16C16N12O8
_chemical_formula_sum              "Mn2 H16 C16 N12 O8"
_cell_length_a       4.88364
_cell_length_b       8.58829
_cell_length_c       12.1395
_cell_angle_alpha    91.647
_cell_angle_beta     90.0001
_cell_angle_gamma    89.9999

_space_group_name_H-M_alt    "P 1"
_space_group_IT_number       1

loop_
  _space_group_symop_operation_xyz
  'x, y, z'

loop_
  _atom_site_type_symbol
  _atom_site_label
  _atom_site_symmetry_multiplicity
  _atom_site_fract_x
  _atom_site_fract_y
  _atom_site_fract_z
  _atom_site_occupancy
  Mn  Mn1       1.0  0.50000  0.50000  0.50000  1.0000
  Mn  Mn2       1.0  0.00000  0.00000  1.00000  1.0000
  H   H1        1.0  0.04113  0.82254  0.50511  1.0000
  H   H2        1.0  0.54113  0.67746  0.99489  1.0000
  H   H3        1.0  0.95887  0.17746  0.49489  1.0000
  H   H4        1.0  0.45887  0.32254  0.00511  1.0000
  H   H5        1.0  0.75727  0.75232  0.31851  1.0000
  H   H6        1.0  0.25727  0.74768  0.18149  1.0000
  H   H7        1.0  0.24273  0.24768  0.68150  1.0000
  H   H8        1.0  0.74273  0.25232  0.81850  1.0000
  H   H9        1.0  0.83770  0.04571  0.27285  1.0000
  H   H10       1.0  0.33770  0.45429  0.22715  1.0000
  H   H11       1.0  0.16230  0.95429  0.72715  1.0000
  H   H12       1.0  0.66230  0.54571  0.77285  1.0000
  H   H13       1.0  0.57958  0.18129  0.31642  1.0000
  H   H14       1.0  0.07958  0.31871  0.18358  1.0000
  H   H15       1.0  0.42042  0.81871  0.68358  1.0000
  H   H16       1.0  0.92042  0.68129  0.81642  1.0000
  C   C1        1.0  0.21254  0.84179  0.45004  1.0000
  C   C2        1.0  0.71254  0.65821  0.04996  1.0000
  C   C3        1.0  0.78746  0.15821  0.54997  1.0000
  C   C4        1.0  0.28746  0.34179  0.95003  1.0000
  C   C5        1.0  0.57573  0.80234  0.35641  1.0000
  C   C6        1.0  0.07573  0.69766  0.14359  1.0000
  C   C7        1.0  0.42427  0.19766  0.64359  1.0000
  C   C8        1.0  0.92427  0.30234  0.85641  1.0000
  C   C9        1.0  0.61624  0.06704  0.27580  1.0000
  C   C10       1.0  0.11624  0.43296  0.22420  1.0000
  C   C11       1.0  0.38376  0.93296  0.72420  1.0000
  C   C12       1.0  0.88376  0.56704  0.77580  1.0000
  C   C13       1.0  0.49886  0.07239  0.15856  1.0000
  C   C14       1.0  0.99886  0.42761  0.34144  1.0000
  C   C15       1.0  0.50114  0.92761  0.84144  1.0000
  C   C16       1.0  0.00114  0.57239  0.65855  1.0000
  N   N1        1.0  0.49027  0.94943  0.34279  1.0000
  N   N2        1.0  0.99027  0.55057  0.15722  1.0000
  N   N3        1.0  0.50972  0.05057  0.65722  1.0000
  N   N4        1.0  0.00973  0.44943  0.84278  1.0000
  N   N5        1.0  0.25691  0.97666  0.40169  1.0000
  N   N6        1.0  0.75691  0.52334  0.09831  1.0000
  N   N7        1.0  0.74309  0.02334  0.59831  1.0000
  N   N8        1.0  0.24309  0.47666  0.90169  1.0000
  N   N9        1.0  0.40429  0.73035  0.42411  1.0000
  N   N10       1.0  0.90429  0.76965  0.07589  1.0000
  N   N11       1.0  0.59571  0.26965  0.57589  1.0000
  N   N12       1.0  0.09571  0.23035  0.92411  1.0000
  O   O1        1.0  0.24712  0.03864  0.14695  1.0000
  O   O2        1.0  0.74712  0.46136  0.35305  1.0000
  O   O3        1.0  0.75288  0.96136  0.85305  1.0000
  O   O4        1.0  0.25289  0.53864  0.64695  1.0000
  O   O5        1.0  0.65979  0.11645  0.08397  1.0000
  O   O6        1.0  0.15979  0.38355  0.41603  1.0000
  O   O7        1.0  0.34020  0.88355  0.91603  1.0000
  O   O8        1.0  0.84021  0.61645  0.58397  1.0000
