data_image0
_chemical_formula_structural       Cu4H32C48N20
_chemical_formula_sum              "Cu4 H32 C48 N20"
_cell_length_a       7.96648
_cell_length_b       10.2242
_cell_length_c       13.1158
_cell_angle_alpha    90
_cell_angle_beta     106.065
_cell_angle_gamma    90.0002

_space_group_name_H-M_alt    "P 1"
_space_group_IT_number       1

loop_
  _space_group_symop_operation_xyz
  'x, y, z'

loop_
  _atom_site_type_symbol
  _atom_site_label
  _atom_site_symmetry_multiplicity
  _atom_site_fract_x
  _atom_site_fract_y
  _atom_site_fract_z
  _atom_site_occupancy
  Cu  Cu1       1.0  0.09545  0.50705  0.39251  1.0000
  Cu  Cu2       1.0  0.40455  0.00705  0.10749  1.0000
  Cu  Cu3       1.0  0.90455  0.49295  0.60749  1.0000
  Cu  Cu4       1.0  0.59545  0.99295  0.89251  1.0000
  H   H1        1.0  0.47059  0.94168  0.33445  1.0000
  H   H2        1.0  0.02940  0.44168  0.16554  1.0000
  H   H3        1.0  0.52941  0.05832  0.66555  1.0000
  H   H4        1.0  0.97059  0.55832  0.83445  1.0000
  H   H5        1.0  0.37649  0.02987  0.48619  1.0000
  H   H6        1.0  0.12350  0.52987  0.01381  1.0000
  H   H7        1.0  0.62351  0.97013  0.51381  1.0000
  H   H8        1.0  0.87650  0.47013  0.98619  1.0000
  H   H9        1.0  0.04116  0.29758  0.27161  1.0000
  H   H10       1.0  0.45885  0.79758  0.22839  1.0000
  H   H11       1.0  0.95884  0.70242  0.72839  1.0000
  H   H12       1.0  0.54116  0.20242  0.77162  1.0000
  H   H13       1.0  0.14124  0.19524  0.12419  1.0000
  H   H14       1.0  0.35877  0.69523  0.37581  1.0000
  H   H15       1.0  0.85876  0.80476  0.87581  1.0000
  H   H16       1.0  0.64123  0.30476  0.62419  1.0000
  H   H17       1.0  0.30376  0.34450  0.00197  1.0000
  H   H18       1.0  0.19624  0.84450  0.49803  1.0000
  H   H19       1.0  0.69624  0.65550  0.99803  1.0000
  H   H20       1.0  0.80376  0.15550  0.50197  1.0000
  H   H21       1.0  0.27085  0.41409  0.81654  1.0000
  H   H22       1.0  0.22915  0.91408  0.68346  1.0000
  H   H23       1.0  0.72915  0.58591  0.18346  1.0000
  H   H24       1.0  0.77085  0.08591  0.31654  1.0000
  H   H25       1.0  0.01964  0.04316  0.71534  1.0000
  H   H26       1.0  0.48037  0.54316  0.78466  1.0000
  H   H27       1.0  0.98037  0.95684  0.28466  1.0000
  H   H28       1.0  0.51963  0.45683  0.21534  1.0000
  H   H29       1.0  0.05406  0.99221  0.90616  1.0000
  H   H30       1.0  0.44595  0.49221  0.59384  1.0000
  H   H31       1.0  0.94595  0.00779  0.09384  1.0000
  H   H32       1.0  0.55405  0.50778  0.40616  1.0000
  C   C1        1.0  0.17002  0.23431  0.48459  1.0000
  C   C2        1.0  0.32998  0.73431  0.01541  1.0000
  C   C3        1.0  0.82998  0.76569  0.51541  1.0000
  C   C4        1.0  0.67003  0.26569  0.98459  1.0000
  C   C5        1.0  0.14208  0.25857  0.63916  1.0000
  C   C6        1.0  0.35792  0.75857  0.86084  1.0000
  C   C7        1.0  0.85792  0.74143  0.36084  1.0000
  C   C8        1.0  0.64209  0.24143  0.13916  1.0000
  C   C9        1.0  0.37306  0.01909  0.32196  1.0000
  C   C10       1.0  0.12693  0.51908  0.17804  1.0000
  C   C11       1.0  0.62694  0.98092  0.67804  1.0000
  C   C12       1.0  0.87306  0.48092  0.82196  1.0000
  C   C13       1.0  0.32412  0.06983  0.40713  1.0000
  C   C14       1.0  0.17588  0.56983  0.09287  1.0000
  C   C15       1.0  0.67588  0.93017  0.59287  1.0000
  C   C16       1.0  0.82412  0.43017  0.90713  1.0000
  C   C17       1.0  0.20899  0.17611  0.39283  1.0000
  C   C18       1.0  0.29100  0.67611  0.10717  1.0000
  C   C19       1.0  0.79100  0.82389  0.60717  1.0000
  C   C20       1.0  0.70900  0.32389  0.89283  1.0000
  C   C21       1.0  0.13901  0.22035  0.28844  1.0000
  C   C22       1.0  0.36099  0.72035  0.21156  1.0000
  C   C23       1.0  0.86099  0.77965  0.71156  1.0000
  C   C24       1.0  0.63901  0.27965  0.78844  1.0000
  C   C25       1.0  0.19197  0.16353  0.20648  1.0000
  C   C26       1.0  0.30803  0.66353  0.29352  1.0000
  C   C27       1.0  0.80803  0.83647  0.79352  1.0000
  C   C28       1.0  0.69197  0.33647  0.70648  1.0000
  C   C29       1.0  0.23901  0.28009  0.93641  1.0000
  C   C30       1.0  0.26100  0.78008  0.56359  1.0000
  C   C31       1.0  0.76100  0.71992  0.06360  1.0000
  C   C32       1.0  0.73900  0.21992  0.43641  1.0000
  C   C33       1.0  0.22231  0.31883  0.83232  1.0000
  C   C34       1.0  0.27769  0.81883  0.66768  1.0000
  C   C35       1.0  0.77769  0.68117  0.16768  1.0000
  C   C36       1.0  0.72231  0.18117  0.33232  1.0000
  C   C37       1.0  0.14691  0.23167  0.74977  1.0000
  C   C38       1.0  0.35309  0.73167  0.75023  1.0000
  C   C39       1.0  0.85310  0.76833  0.25023  1.0000
  C   C40       1.0  0.64691  0.26833  0.24977  1.0000
  C   C41       1.0  0.08348  0.11249  0.77692  1.0000
  C   C42       1.0  0.41652  0.61249  0.72308  1.0000
  C   C43       1.0  0.91652  0.88751  0.22308  1.0000
  C   C44       1.0  0.58348  0.38751  0.27691  1.0000
  C   C45       1.0  0.10237  0.08432  0.88320  1.0000
  C   C46       1.0  0.39763  0.58432  0.61680  1.0000
  C   C47       1.0  0.89763  0.91568  0.11680  1.0000
  C   C48       1.0  0.60237  0.41568  0.38320  1.0000
  N   N1        1.0  0.11623  0.35936  0.48952  1.0000
  N   N2        1.0  0.38377  0.85937  0.01048  1.0000
  N   N3        1.0  0.88377  0.64064  0.51048  1.0000
  N   N4        1.0  0.61623  0.14064  0.98952  1.0000
  N   N5        1.0  0.09630  0.37483  0.58934  1.0000
  N   N6        1.0  0.40370  0.87483  0.91066  1.0000
  N   N7        1.0  0.90370  0.62517  0.41066  1.0000
  N   N8        1.0  0.59630  0.12517  0.08934  1.0000
  N   N9        1.0  0.18876  0.16855  0.57686  1.0000
  N   N10       1.0  0.31124  0.66855  0.92314  1.0000
  N   N11       1.0  0.81124  0.83145  0.42314  1.0000
  N   N12       1.0  0.68877  0.33145  0.07686  1.0000
  N   N13       1.0  0.31050  0.06478  0.22145  1.0000
  N   N14       1.0  0.18950  0.56478  0.27855  1.0000
  N   N15       1.0  0.68950  0.93522  0.77855  1.0000
  N   N16       1.0  0.81050  0.43522  0.72145  1.0000
  N   N17       1.0  0.18230  0.16452  0.96305  1.0000
  N   N18       1.0  0.31770  0.66452  0.53695  1.0000
  N   N19       1.0  0.81770  0.83548  0.03695  1.0000
  N   N20       1.0  0.68230  0.33548  0.46305  1.0000
