data_image0
_chemical_formula_structural       Ag2H20C30N10O8
_chemical_formula_sum              "Ag2 H20 C30 N10 O8"
_cell_length_a       3.81411
_cell_length_b       11.8206
_cell_length_c       16.7828
_cell_angle_alpha    90.0008
_cell_angle_beta     90.3049
_cell_angle_gamma    90

_space_group_name_H-M_alt    "P 1"
_space_group_IT_number       1

loop_
  _space_group_symop_operation_xyz
  'x, y, z'

loop_
  _atom_site_type_symbol
  _atom_site_label
  _atom_site_symmetry_multiplicity
  _atom_site_fract_x
  _atom_site_fract_y
  _atom_site_fract_z
  _atom_site_occupancy
  Ag  Ag1       1.0  0.89930  0.57464  0.26233  1.0000
  Ag  Ag2       1.0  0.10068  0.07464  0.73768  1.0000
  H   H1        1.0  0.93783  0.68620  0.69469  1.0000
  H   H2        1.0  0.06218  0.18620  0.30531  1.0000
  H   H3        1.0  0.98569  0.64235  0.56690  1.0000
  H   H4        1.0  0.01429  0.14236  0.43310  1.0000
  H   H5        1.0  0.40951  0.41765  0.74487  1.0000
  H   H6        1.0  0.59050  0.91766  0.25512  1.0000
  H   H7        1.0  0.93457  0.78440  0.79679  1.0000
  H   H8        1.0  0.06545  0.28440  0.20321  1.0000
  H   H9        1.0  0.45328  0.32761  0.49408  1.0000
  H   H10       1.0  0.54673  0.82761  0.50591  1.0000
  H   H11       1.0  0.00637  0.00712  0.01687  1.0000
  H   H12       1.0  0.99366  0.50711  0.98313  1.0000
  H   H13       1.0  0.42075  0.61878  0.95199  1.0000
  H   H14       1.0  0.57923  0.11878  0.04801  1.0000
  H   H15       1.0  0.89611  0.92669  0.88328  1.0000
  H   H16       1.0  0.10394  0.42668  0.11672  1.0000
  H   H17       1.0  0.14772  0.50763  0.46065  1.0000
  H   H18       1.0  0.85229  0.00763  0.53935  1.0000
  H   H19       1.0  0.31667  0.89549  0.12061  1.0000
  H   H20       1.0  0.68332  0.39549  0.87940  1.0000
  C   C1        1.0  0.18509  0.53927  0.66321  1.0000
  C   C2        1.0  0.81490  0.03928  0.33679  1.0000
  C   C3        1.0  0.11525  0.56304  0.58218  1.0000
  C   C4        1.0  0.88474  0.06305  0.41782  1.0000
  C   C5        1.0  0.44723  0.36280  0.62142  1.0000
  C   C6        1.0  0.55278  0.86280  0.37858  1.0000
  C   C7        1.0  0.35220  0.43751  0.68304  1.0000
  C   C8        1.0  0.64780  0.93751  0.31695  1.0000
  C   C9        1.0  0.37592  0.38602  0.54092  1.0000
  C   C10       1.0  0.62408  0.88602  0.45908  1.0000
  C   C11       1.0  0.17891  0.62714  0.79757  1.0000
  C   C12       1.0  0.82109  0.12714  0.20243  1.0000
  C   C13       1.0  0.09641  0.92199  0.00314  1.0000
  C   C14       1.0  0.90359  0.42199  0.99686  1.0000
  C   C15       1.0  0.32468  0.70268  0.96643  1.0000
  C   C16       1.0  0.67530  0.20268  0.03358  1.0000
  C   C17       1.0  0.03556  0.87688  0.92793  1.0000
  C   C18       1.0  0.96445  0.37688  0.07207  1.0000
  C   C19       1.0  0.14755  0.76647  0.90833  1.0000
  C   C20       1.0  0.85246  0.26647  0.09167  1.0000
  C   C21       1.0  0.20709  0.48735  0.52251  1.0000
  C   C22       1.0  0.79291  0.98735  0.47749  1.0000
  C   C23       1.0  0.37847  0.74969  0.04249  1.0000
  C   C24       1.0  0.62150  0.24970  0.95751  1.0000
  C   C25       1.0  0.26683  0.85943  0.06204  1.0000
  C   C26       1.0  0.73315  0.35943  0.93796  1.0000
  C   C27       1.0  0.62055  0.26103  0.64256  1.0000
  C   C28       1.0  0.37946  0.76103  0.35744  1.0000
  C   C29       1.0  0.54866  0.68418  0.10197  1.0000
  C   C30       1.0  0.45130  0.18418  0.89804  1.0000
  N   N1        1.0  0.08057  0.62016  0.71855  1.0000
  N   N2        1.0  0.91942  0.12017  0.28145  1.0000
  N   N3        1.0  0.46013  0.37143  0.32209  1.0000
  N   N4        1.0  0.53988  0.87144  0.67791  1.0000
  N   N5        1.0  0.68255  0.63143  0.15239  1.0000
  N   N6        1.0  0.31739  0.13143  0.84761  1.0000
  N   N7        1.0  0.07288  0.72807  0.83182  1.0000
  N   N8        1.0  0.92713  0.22807  0.16818  1.0000
  N   N9        1.0  0.75831  0.17683  0.66149  1.0000
  N   N10       1.0  0.24170  0.67683  0.33851  1.0000
  O   O1        1.0  0.68070  0.43695  0.35484  1.0000
  O   O2        1.0  0.31931  0.93695  0.64516  1.0000
  O   O3        1.0  0.33655  0.39584  0.25304  1.0000
  O   O4        1.0  0.66347  0.89584  0.74696  1.0000
  O   O5        1.0  0.36404  0.28273  0.35731  1.0000
  O   O6        1.0  0.63598  0.78274  0.64268  1.0000
  O   O7        1.0  0.34710  0.55308  0.83353  1.0000
  O   O8        1.0  0.65290  0.05309  0.16647  1.0000
