data_image0
_chemical_formula_structural       Ag2H46C62S2N16O10
_chemical_formula_sum              "Ag2 H46 C62 S2 N16 O10"
_cell_length_a       12.4636
_cell_length_b       12.4636
_cell_length_c       12.7138
_cell_angle_alpha    115.332
_cell_angle_beta     117.301
_cell_angle_gamma    95.4904

_space_group_name_H-M_alt    "P 1"
_space_group_IT_number       1

loop_
  _space_group_symop_operation_xyz
  'x, y, z'

loop_
  _atom_site_type_symbol
  _atom_site_label
  _atom_site_symmetry_multiplicity
  _atom_site_fract_x
  _atom_site_fract_y
  _atom_site_fract_z
  _atom_site_occupancy
  Ag  Ag1       1.0  0.37803  0.18277  0.92784  1.0000
  Ag  Ag2       1.0  0.24508  0.54981  0.42784  1.0000
  H   H1        1.0  0.94137  0.42870  0.85208  1.0000
  H   H2        1.0  0.92337  0.91071  0.35208  1.0000
  H   H3        1.0  0.92470  0.16697  0.57929  1.0000
  H   H4        1.0  0.91232  0.65459  0.07929  1.0000
  H   H5        1.0  0.82651  0.25985  0.01084  1.0000
  H   H6        1.0  0.25099  0.18433  0.51084  1.0000
  H   H7        1.0  0.23656  0.39134  0.08088  1.0000
  H   H8        1.0  0.18953  0.84432  0.58088  1.0000
  H   H9        1.0  0.17147  0.28533  0.15090  1.0000
  H   H10       1.0  0.36557  0.97943  0.65090  1.0000
  H   H11       1.0  0.14398  0.16995  0.24125  1.0000
  H   H12       1.0  0.57130  0.09727  0.74124  1.0000
  H   H13       1.0  0.08548  0.51138  0.52775  1.0000
  H   H14       1.0  0.51637  0.44226  0.02775  1.0000
  H   H15       1.0  0.37355  0.71228  0.03535  1.0000
  H   H16       1.0  0.82306  0.66180  0.53535  1.0000
  H   H17       1.0  0.85017  0.40294  0.40618  1.0000
  H   H18       1.0  0.50324  0.55602  0.90618  1.0000
  H   H19       1.0  0.35771  0.55504  0.10129  1.0000
  H   H20       1.0  0.04625  0.74358  0.60129  1.0000
  H   H21       1.0  0.24394  0.45164  0.67991  1.0000
  H   H22       1.0  0.72828  0.43597  0.17991  1.0000
  H   H23       1.0  0.00807  0.05737  0.28191  1.0000
  H   H24       1.0  0.72454  0.27384  0.78191  1.0000
  H   H25       1.0  0.17146  0.72832  0.87287  1.0000
  H   H26       1.0  0.64454  0.70140  0.37286  1.0000
  H   H27       1.0  0.68319  0.25896  0.35765  1.0000
  H   H28       1.0  0.59868  0.67446  0.85764  1.0000
  H   H29       1.0  0.77824  0.04483  0.18846  1.0000
  H   H30       1.0  0.64363  0.41022  0.68846  1.0000
  H   H31       1.0  0.50945  0.15314  0.28712  1.0000
  H   H32       1.0  0.63397  0.77767  0.78712  1.0000
  H   H33       1.0  0.54696  0.93066  0.41656  1.0000
  H   H34       1.0  0.98591  0.86961  0.91656  1.0000
  H   H35       1.0  0.10589  0.93115  0.14151  1.0000
  H   H36       1.0  0.71036  0.03562  0.64151  1.0000
  H   H37       1.0  0.29876  0.08120  0.19712  1.0000
  H   H38       1.0  0.61592  0.89837  0.69712  1.0000
  H   H39       1.0  0.13238  0.78223  0.22384  1.0000
  H   H40       1.0  0.94161  0.09146  0.72384  1.0000
  H   H41       1.0  0.48617  0.56038  0.42095  1.0000
  H   H42       1.0  0.36057  0.93479  0.92095  1.0000
  H   H43       1.0  0.62776  0.54120  0.42090  1.0000
  H   H44       1.0  0.37969  0.79314  0.92090  1.0000
  H   H45       1.0  0.57427  0.47963  0.49852  1.0000
  H   H46       1.0  0.51890  0.92425  0.99852  1.0000
  C   C1        1.0  0.14873  0.48269  0.98405  1.0000
  C   C2        1.0  0.00136  0.83531  0.48405  1.0000
  C   C3        1.0  0.04531  0.34176  0.02719  1.0000
  C   C4        1.0  0.18543  0.98188  0.52719  1.0000
  C   C5        1.0  0.03569  0.49056  0.89264  1.0000
  C   C6        1.0  0.90207  0.85694  0.39263  1.0000
  C   C7        1.0  0.99464  0.22117  0.12087  1.0000
  C   C8        1.0  0.39970  0.12623  0.62087  1.0000
  C   C9        1.0  0.95954  0.24215  0.56831  1.0000
  C   C10       1.0  0.82616  0.60877  0.06831  1.0000
  C   C11       1.0  0.86645  0.21552  0.06944  1.0000
  C   C12       1.0  0.35392  0.20299  0.56944  1.0000
  C   C13       1.0  0.87096  0.27793  0.48504  1.0000
  C   C14       1.0  0.70711  0.61408  0.98504  1.0000
  C   C15       1.0  0.09299  0.30584  0.63769  1.0000
  C   C16       1.0  0.83185  0.54469  0.13769  1.0000
  C   C17       1.0  0.04364  0.16384  0.19843  1.0000
  C   C18       1.0  0.53459  0.15479  0.69843  1.0000
  C   C19       1.0  0.05103  0.43584  0.53909  1.0000
  C   C20       1.0  0.60325  0.48806  0.03909  1.0000
  C   C21       1.0  0.18175  0.27247  0.72647  1.0000
  C   C22       1.0  0.95401  0.54472  0.22647  1.0000
  C   C23       1.0  0.79073  0.15271  0.09521  1.0000
  C   C24       1.0  0.44251  0.30448  0.59521  1.0000
  C   C25       1.0  0.27793  0.64972  0.99258  1.0000
  C   C26       1.0  0.84286  0.71466  0.49258  1.0000
  C   C27       1.0  0.04566  0.57859  0.85344  1.0000
  C   C28       1.0  0.77485  0.80778  0.35344  1.0000
  C   C29       1.0  0.92822  0.57960  0.75634  1.0000
  C   C30       1.0  0.67674  0.82811  0.25633  1.0000
  C   C31       1.0  0.91887  0.37483  0.47085  1.0000
  C   C32       1.0  0.59602  0.55197  0.97084  1.0000
  C   C33       1.0  0.26980  0.56211  0.03160  1.0000
  C   C34       1.0  0.96949  0.76179  0.53159  1.0000
  C   C35       1.0  0.14030  0.40291  0.62433  1.0000
  C   C36       1.0  0.72142  0.48404  0.12433  1.0000
  C   C37       1.0  0.96669  0.10044  0.22145  1.0000
  C   C38       1.0  0.62101  0.25476  0.72145  1.0000
  C   C39       1.0  0.16633  0.65993  0.90380  1.0000
  C   C40       1.0  0.74386  0.73747  0.40380  1.0000
  C   C41       1.0  0.66821  0.13407  0.42003  1.0000
  C   C42       1.0  0.78596  0.75182  0.92003  1.0000
  C   C43       1.0  0.66432  0.15701  0.04552  1.0000
  C   C44       1.0  0.38850  0.38119  0.54551  1.0000
  C   C45       1.0  0.83874  0.09324  0.16990  1.0000
  C   C46       1.0  0.57666  0.33115  0.66989  1.0000
  C   C47       1.0  0.45143  0.93189  0.35743  1.0000
  C   C48       1.0  0.92554  0.90601  0.85744  1.0000
  C   C49       1.0  0.20243  0.93169  0.20174  1.0000
  C   C50       1.0  0.77005  0.99931  0.70174  1.0000
  C   C51       1.0  0.31000  0.01458  0.23226  1.0000
  C   C52       1.0  0.71768  0.92225  0.73226  1.0000
  C   C53       1.0  0.43570  0.01644  0.31086  1.0000
  C   C54       1.0  0.79442  0.87516  0.81086  1.0000
  C   C55       1.0  0.35359  0.76063  0.36881  1.0000
  C   C56       1.0  0.10819  0.01522  0.86882  1.0000
  C   C57       1.0  0.34115  0.84847  0.32475  1.0000
  C   C58       1.0  0.97628  0.98360  0.82475  1.0000
  C   C59       1.0  0.21616  0.84742  0.24739  1.0000
  C   C60       1.0  0.89997  0.03123  0.74740  1.0000
  C   C61       1.0  0.54273  0.49863  0.41480  1.0000
  C   C62       1.0  0.41617  0.87208  0.91481  1.0000
  S   S1        1.0  0.44586  0.35296  0.25094  1.0000
  S   S2        1.0  0.39799  0.80509  0.75095  1.0000
  N   N1        1.0  0.14825  0.39932  0.03043  1.0000
  N   N2        1.0  0.13111  0.88218  0.53043  1.0000
  N   N3        1.0  0.07725  0.28216  0.10137  1.0000
  N   N4        1.0  0.31920  0.02412  0.60137  1.0000
  N   N5        1.0  0.83035  0.57618  0.67411  1.0000
  N   N6        1.0  0.59792  0.84376  0.17410  1.0000
  N   N7        1.0  0.25506  0.24722  0.80163  1.0000
  N   N8        1.0  0.05440  0.54657  0.30163  1.0000
  N   N9        1.0  0.73714  0.22284  0.41346  1.0000
  N   N10       1.0  0.69062  0.67632  0.91346  1.0000
  N   N11       1.0  0.53647  0.10288  0.33514  1.0000
  N   N12       1.0  0.73226  0.79867  0.83514  1.0000
  N   N13       1.0  0.35776  0.68605  0.40183  1.0000
  N   N14       1.0  0.21579  0.04408  0.90183  1.0000
  N   N15       1.0  0.56334  0.16715  0.00427  1.0000
  N   N16       1.0  0.33712  0.44093  0.50427  1.0000
  O   O1        1.0  0.93583  0.34500  0.96510  1.0000
  O   O2        1.0  0.12009  0.02927  0.46510  1.0000
  O   O3        1.0  0.71897  0.08965  0.49271  1.0000
  O   O4        1.0  0.90306  0.77375  0.99271  1.0000
  O   O5        1.0  0.33394  0.29025  0.24321  1.0000
  O   O6        1.0  0.45296  0.90927  0.74321  1.0000
  O   O7        1.0  0.40600  0.38669  0.14360  1.0000
  O   O8        1.0  0.25691  0.73760  0.64360  1.0000
  O   O9        1.0  0.52972  0.27729  0.24578  1.0000
  O   O10       1.0  0.46849  0.71606  0.74578  1.0000
