data_image0
_chemical_formula_structural       Ba5H20C32N2O24
_chemical_formula_sum              "Ba5 H20 C32 N2 O24"
_cell_length_a       7.34325
_cell_length_b       10.7396
_cell_length_c       12.9386
_cell_angle_alpha    90.3095
_cell_angle_beta     90.7639
_cell_angle_gamma    103.494

_space_group_name_H-M_alt    "P 1"
_space_group_IT_number       1

loop_
  _space_group_symop_operation_xyz
  'x, y, z'

loop_
  _atom_site_type_symbol
  _atom_site_label
  _atom_site_symmetry_multiplicity
  _atom_site_fract_x
  _atom_site_fract_y
  _atom_site_fract_z
  _atom_site_occupancy
  Ba  Ba1       1.0  1.00000  0.00000  1.00000  1.0000
  Ba  Ba2       1.0  0.87996  0.62732  0.87658  1.0000
  Ba  Ba3       1.0  0.12003  0.37268  0.12342  1.0000
  Ba  Ba4       1.0  0.56530  0.20785  0.93697  1.0000
  Ba  Ba5       1.0  0.43470  0.79215  0.06303  1.0000
  H   H1        1.0  0.55325  0.37078  0.29868  1.0000
  H   H2        1.0  0.44674  0.62922  0.70132  1.0000
  H   H3        1.0  0.64176  0.47200  0.47050  1.0000
  H   H4        1.0  0.35823  0.52801  0.52950  1.0000
  H   H5        1.0  0.85832  0.68786  0.48342  1.0000
  H   H6        1.0  0.14169  0.31214  0.51658  1.0000
  H   H7        1.0  0.98274  0.80225  0.32129  1.0000
  H   H8        1.0  0.01726  0.19774  0.67871  1.0000
  H   H9        1.0  0.77450  0.84343  0.63605  1.0000
  H   H10       1.0  0.22550  0.15657  0.36395  1.0000
  H   H11       1.0  0.58254  0.81870  0.47118  1.0000
  H   H12       1.0  0.41746  0.18130  0.52882  1.0000
  H   H13       1.0  0.25753  0.84203  0.47485  1.0000
  H   H14       1.0  0.74247  0.15797  0.52515  1.0000
  H   H15       1.0  0.11753  0.89048  0.64174  1.0000
  H   H16       1.0  0.88247  0.10952  0.35826  1.0000
  H   H17       1.0  0.06878  0.63377  0.63861  1.0000
  H   H18       1.0  0.93122  0.36623  0.36139  1.0000
  H   H19       1.0  0.87274  0.53527  0.64410  1.0000
  H   H20       1.0  0.12726  0.46473  0.35590  1.0000
  C   C1        1.0  0.67049  0.45508  0.11243  1.0000
  C   C2        1.0  0.32951  0.54492  0.88757  1.0000
  C   C3        1.0  0.71741  0.52786  0.21308  1.0000
  C   C4        1.0  0.28259  0.47214  0.78692  1.0000
  C   C5        1.0  0.64639  0.46588  0.30413  1.0000
  C   C6        1.0  0.35361  0.53412  0.69587  1.0000
  C   C7        1.0  0.69651  0.52291  0.40077  1.0000
  C   C8        1.0  0.30350  0.47709  0.59923  1.0000
  C   C9        1.0  0.81855  0.64390  0.40776  1.0000
  C   C10       1.0  0.18146  0.35610  0.59224  1.0000
  C   C11       1.0  0.88944  0.70701  0.31790  1.0000
  C   C12       1.0  0.11056  0.29299  0.68210  1.0000
  C   C13       1.0  0.83961  0.65054  0.22057  1.0000
  C   C14       1.0  0.16039  0.34946  0.77943  1.0000
  C   C15       1.0  0.90759  0.72939  0.12766  1.0000
  C   C16       1.0  0.09241  0.27060  0.87234  1.0000
  C   C17       1.0  0.67399  0.89897  0.82508  1.0000
  C   C18       1.0  0.32601  0.10104  0.17492  1.0000
  C   C19       1.0  0.55451  0.88215  0.72941  1.0000
  C   C20       1.0  0.44549  0.11785  0.27059  1.0000
  C   C21       1.0  0.63059  0.85425  0.63534  1.0000
  C   C22       1.0  0.36941  0.14575  0.36466  1.0000
  C   C23       1.0  0.52415  0.83955  0.54443  1.0000
  C   C24       1.0  0.47585  0.16045  0.45557  1.0000
  C   C25       1.0  0.33926  0.85276  0.54660  1.0000
  C   C26       1.0  0.66074  0.14724  0.45340  1.0000
  C   C27       1.0  0.26158  0.87982  0.63941  1.0000
  C   C28       1.0  0.73842  0.12019  0.36060  1.0000
  C   C29       1.0  0.36769  0.89361  0.73128  1.0000
  C   C30       1.0  0.63231  0.10640  0.26872  1.0000
  C   C31       1.0  0.27627  0.92035  0.82942  1.0000
  C   C32       1.0  0.72373  0.07966  0.17058  1.0000
  N   N1        1.0  0.66621  0.33515  0.70713  1.0000
  N   N2        1.0  0.33380  0.66485  0.29287  1.0000
  O   O1        1.0  0.80413  0.45805  0.04826  1.0000
  O   O2        1.0  0.19587  0.54195  0.95174  1.0000
  O   O3        1.0  0.94285  0.62291  0.66561  1.0000
  O   O4        1.0  0.05714  0.37709  0.33438  1.0000
  O   O5        1.0  0.50575  0.38808  0.09746  1.0000
  O   O6        1.0  0.49425  0.61192  0.90254  1.0000
  O   O7        1.0  0.78801  0.73442  0.05535  1.0000
  O   O8        1.0  0.21199  0.26558  0.94465  1.0000
  O   O9        1.0  0.07666  0.79221  0.12485  1.0000
  O   O10       1.0  0.92334  0.20778  0.87514  1.0000
  O   O11       1.0  0.82536  0.86067  0.82411  1.0000
  O   O12       1.0  0.17464  0.13933  0.17589  1.0000
  O   O13       1.0  0.62199  0.95213  0.90554  1.0000
  O   O14       1.0  0.37801  0.04787  0.09446  1.0000
  O   O15       1.0  0.26581  0.03449  0.84679  1.0000
  O   O16       1.0  0.73419  0.96551  0.15321  1.0000
  O   O17       1.0  0.20583  0.82609  0.88840  1.0000
  O   O18       1.0  0.79416  0.17392  0.11160  1.0000
  O   O19       1.0  0.69392  0.40163  0.79163  1.0000
  O   O20       1.0  0.30609  0.59837  0.20837  1.0000
  O   O21       1.0  0.72967  0.38617  0.62360  1.0000
  O   O22       1.0  0.27033  0.61383  0.37640  1.0000
  O   O23       1.0  0.57648  0.22071  0.71079  1.0000
  O   O24       1.0  0.42353  0.77929  0.28921  1.0000
