data_image0
_chemical_formula_structural       Nd2H46C76N8O16
_chemical_formula_sum              "Nd2 H46 C76 N8 O16"
_cell_length_a       9.08391
_cell_length_b       13.4725
_cell_length_c       14.0974
_cell_angle_alpha    96.8098
_cell_angle_beta     96.397
_cell_angle_gamma    104.589

_space_group_name_H-M_alt    "P 1"
_space_group_IT_number       1

loop_
  _space_group_symop_operation_xyz
  'x, y, z'

loop_
  _atom_site_type_symbol
  _atom_site_label
  _atom_site_symmetry_multiplicity
  _atom_site_fract_x
  _atom_site_fract_y
  _atom_site_fract_z
  _atom_site_occupancy
  Nd  Nd1       1.0  0.36875  0.35690  0.51244  1.0000
  Nd  Nd2       1.0  0.63125  0.64310  0.48756  1.0000
  H   H1        1.0  0.46230  0.56736  0.05955  1.0000
  H   H2        1.0  0.53770  0.43264  0.94045  1.0000
  H   H3        1.0  0.31507  0.21316  0.83085  1.0000
  H   H4        1.0  0.68492  0.78684  0.16916  1.0000
  H   H5        1.0  0.12791  0.03663  0.09792  1.0000
  H   H6        1.0  0.87209  0.96338  0.90208  1.0000
  H   H7        1.0  0.49473  0.55645  0.23471  1.0000
  H   H8        1.0  0.50527  0.44355  0.76529  1.0000
  H   H9        1.0  0.28206  0.91291  0.83611  1.0000
  H   H10       1.0  0.71794  0.08709  0.16390  1.0000
  H   H11       1.0  0.96630  0.21996  0.13425  1.0000
  H   H12       1.0  0.03369  0.78003  0.86575  1.0000
  H   H13       1.0  0.94254  0.50201  0.30600  1.0000
  H   H14       1.0  0.05746  0.49799  0.69400  1.0000
  H   H15       1.0  0.47743  0.15779  0.39206  1.0000
  H   H16       1.0  0.52257  0.84221  0.60794  1.0000
  H   H17       1.0  0.61847  0.20675  0.30131  1.0000
  H   H18       1.0  0.38153  0.79325  0.69870  1.0000
  H   H19       1.0  0.84477  0.88201  0.31452  1.0000
  H   H20       1.0  0.15522  0.11799  0.68547  1.0000
  H   H21       1.0  0.72863  0.18186  0.99289  1.0000
  H   H22       1.0  0.27137  0.81814  0.00711  1.0000
  H   H23       1.0  0.10729  0.88712  0.26896  1.0000
  H   H24       1.0  0.89271  0.11288  0.73104  1.0000
  H   H25       1.0  0.64070  0.12797  0.49984  1.0000
  H   H26       1.0  0.35930  0.87203  0.50016  1.0000
  H   H27       1.0  0.03504  0.39341  0.57598  1.0000
  H   H28       1.0  0.96496  0.60659  0.42402  1.0000
  H   H29       1.0  0.43763  0.33271  0.22319  1.0000
  H   H30       1.0  0.56238  0.66729  0.77681  1.0000
  H   H31       1.0  0.20711  0.48277  0.95791  1.0000
  H   H32       1.0  0.79289  0.51723  0.04209  1.0000
  H   H33       1.0  0.98723  0.39459  0.03360  1.0000
  H   H34       1.0  0.01277  0.60541  0.96640  1.0000
  H   H35       1.0  0.67418  0.96998  0.39607  1.0000
  H   H36       1.0  0.32583  0.03002  0.60393  1.0000
  H   H37       1.0  0.38715  0.98026  0.29218  1.0000
  H   H38       1.0  0.61285  0.01974  0.70782  1.0000
  H   H39       1.0  0.20820  0.18952  0.23053  1.0000
  H   H40       1.0  0.79180  0.81049  0.76948  1.0000
  H   H41       1.0  0.73557  0.23779  0.71090  1.0000
  H   H42       1.0  0.26443  0.76221  0.28910  1.0000
  H   H43       1.0  0.57458  0.33024  0.08063  1.0000
  H   H44       1.0  0.42542  0.66976  0.91937  1.0000
  H   H45       1.0  0.75240  0.31030  0.57655  1.0000
  H   H46       1.0  0.24760  0.68970  0.42345  1.0000
  C   C1        1.0  0.29466  0.45219  0.33548  1.0000
  C   C2        1.0  0.70534  0.54781  0.66452  1.0000
  C   C3        1.0  0.68299  0.40891  0.38241  1.0000
  C   C4        1.0  0.31701  0.59109  0.61759  1.0000
  C   C5        1.0  0.11419  0.42574  0.17747  1.0000
  C   C6        1.0  0.88580  0.57425  0.82253  1.0000
  C   C7        1.0  0.97748  0.36967  0.21744  1.0000
  C   C8        1.0  0.02252  0.63033  0.78256  1.0000
  C   C9        1.0  0.25975  0.47180  0.23418  1.0000
  C   C10       1.0  0.74025  0.52820  0.76582  1.0000
  C   C11       1.0  0.44498  0.25253  0.66797  1.0000
  C   C12       1.0  0.55502  0.74747  0.33203  1.0000
  C   C13       1.0  0.36475  0.52785  0.09199  1.0000
  C   C14       1.0  0.63525  0.47215  0.90801  1.0000
  C   C15       1.0  0.43437  0.20975  0.83665  1.0000
  C   C16       1.0  0.56562  0.79025  0.16335  1.0000
  C   C17       1.0  0.22598  0.10178  0.09585  1.0000
  C   C18       1.0  0.77402  0.89822  0.90415  1.0000
  C   C19       1.0  0.38261  0.52316  0.19067  1.0000
  C   C20       1.0  0.61739  0.47684  0.80933  1.0000
  C   C21       1.0  0.91545  0.26301  0.18599  1.0000
  C   C22       1.0  0.08455  0.73699  0.81400  1.0000
  C   C23       1.0  0.77146  0.36054  0.31445  1.0000
  C   C24       1.0  0.22855  0.63946  0.68555  1.0000
  C   C25       1.0  0.90195  0.41857  0.28204  1.0000
  C   C26       1.0  0.09806  0.58143  0.71796  1.0000
  C   C27       1.0  0.51507  0.22567  0.75882  1.0000
  C   C28       1.0  0.48493  0.77433  0.24118  1.0000
  C   C29       1.0  0.11139  0.11348  0.40963  1.0000
  C   C30       1.0  0.88861  0.88653  0.59037  1.0000
  C   C31       1.0  0.35675  0.11430  0.38058  1.0000
  C   C32       1.0  0.64325  0.88570  0.61942  1.0000
  C   C33       1.0  0.72097  0.25424  0.27944  1.0000
  C   C34       1.0  0.27903  0.74576  0.72056  1.0000
  C   C35       1.0  0.88913  0.96120  0.35258  1.0000
  C   C36       1.0  0.11087  0.03880  0.64742  1.0000
  C   C37       1.0  0.66526  0.19464  0.92699  1.0000
  C   C38       1.0  0.33473  0.80536  0.07301  1.0000
  C   C39       1.0  0.15097  0.96358  0.31296  1.0000
  C   C40       1.0  0.84903  0.03642  0.68704  1.0000
  C   C41       1.0  0.50931  0.19260  0.92269  1.0000
  C   C42       1.0  0.49069  0.80740  0.07731  1.0000
  C   C43       1.0  0.42945  0.18234  0.00862  1.0000
  C   C44       1.0  0.57055  0.81766  0.99138  1.0000
  C   C45       1.0  0.01143  0.16587  0.45487  1.0000
  C   C46       1.0  0.98857  0.83413  0.54513  1.0000
  C   C47       1.0  0.76103  0.16605  0.49785  1.0000
  C   C48       1.0  0.23897  0.83395  0.50215  1.0000
  C   C49       1.0  0.98039  0.31354  0.54228  1.0000
  C   C50       1.0  0.01961  0.68646  0.45772  1.0000
  C   C51       1.0  0.85343  0.11285  0.44992  1.0000
  C   C52       1.0  0.14658  0.88715  0.55008  1.0000
  C   C53       1.0  0.24573  0.00031  0.94426  1.0000
  C   C54       1.0  0.75428  0.99969  0.05574  1.0000
  C   C55       1.0  0.39913  0.26745  0.16485  1.0000
  C   C56       1.0  0.60087  0.73255  0.83515  1.0000
  C   C57       1.0  0.04917  0.01162  0.35709  1.0000
  C   C58       1.0  0.95083  0.98838  0.64290  1.0000
  C   C59       1.0  0.22251  0.48088  0.03550  1.0000
  C   C60       1.0  0.77749  0.51912  0.96450  1.0000
  C   C61       1.0  0.09843  0.43080  0.07818  1.0000
  C   C62       1.0  0.90157  0.56920  0.92182  1.0000
  C   C63       1.0  0.79531  0.00960  0.39810  1.0000
  C   C64       1.0  0.20469  0.99040  0.60190  1.0000
  C   C65       1.0  0.30569  0.01494  0.32550  1.0000
  C   C66       1.0  0.69431  0.98506  0.67450  1.0000
  C   C67       1.0  0.30360  0.09811  0.01535  1.0000
  C   C68       1.0  0.69640  0.90189  0.98465  1.0000
  C   C69       1.0  0.27139  0.18624  0.16951  1.0000
  C   C70       1.0  0.72861  0.81377  0.83049  1.0000
  C   C71       1.0  0.66988  0.22446  0.77062  1.0000
  C   C72       1.0  0.33012  0.77553  0.22938  1.0000
  C   C73       1.0  0.47680  0.26536  0.08513  1.0000
  C   C74       1.0  0.52320  0.73464  0.91487  1.0000
  C   C75       1.0  0.82390  0.26733  0.54241  1.0000
  C   C76       1.0  0.17610  0.73267  0.45759  1.0000
  N   N1        1.0  0.26334  0.16340  0.42028  1.0000
  N   N2        1.0  0.73666  0.83660  0.57972  1.0000
  N   N3        1.0  0.07292  0.26420  0.50187  1.0000
  N   N4        1.0  0.92708  0.73580  0.49813  1.0000
  N   N5        1.0  0.79059  0.20669  0.21660  1.0000
  N   N6        1.0  0.20941  0.79331  0.78340  1.0000
  N   N7        1.0  0.74489  0.20998  0.85276  1.0000
  N   N8        1.0  0.25511  0.79002  0.14724  1.0000
  O   O1        1.0  0.56612  0.34882  0.40720  1.0000
  O   O2        1.0  0.43388  0.65119  0.59280  1.0000
  O   O3        1.0  0.40468  0.51620  0.39505  1.0000
  O   O4        1.0  0.59532  0.48380  0.60495  1.0000
  O   O5        1.0  0.32828  0.28955  0.66896  1.0000
  O   O6        1.0  0.67172  0.71045  0.33104  1.0000
  O   O7        1.0  0.50749  0.24265  0.59174  1.0000
  O   O8        1.0  0.49251  0.75735  0.40826  1.0000
  O   O9        1.0  0.73039  0.50656  0.40967  1.0000
  O   O10       1.0  0.26961  0.49344  0.59033  1.0000
  O   O11       1.0  0.21992  0.36752  0.35840  1.0000
  O   O12       1.0  0.78008  0.63248  0.64160  1.0000
  O   O13       1.0  0.33207  0.98679  0.87553  1.0000
  O   O14       1.0  0.66793  0.01321  0.12447  1.0000
  O   O15       1.0  0.12669  0.93469  0.95165  1.0000
  O   O16       1.0  0.87330  0.06531  0.04836  1.0000
