data_image0
_chemical_formula_structural       Cd4H36C52N4O20
_chemical_formula_sum              "Cd4 H36 C52 N4 O20"
_cell_length_a       10.3879
_cell_length_b       10.9416
_cell_length_c       12.0593
_cell_angle_alpha    114.438
_cell_angle_beta     90.0004
_cell_angle_gamma    90

_space_group_name_H-M_alt    "P 1"
_space_group_IT_number       1

loop_
  _space_group_symop_operation_xyz
  'x, y, z'

loop_
  _atom_site_type_symbol
  _atom_site_label
  _atom_site_symmetry_multiplicity
  _atom_site_fract_x
  _atom_site_fract_y
  _atom_site_fract_z
  _atom_site_occupancy
  Cd  Cd1       1.0  0.02964  0.14012  0.95269  1.0000
  Cd  Cd2       1.0  0.52964  0.35988  0.04731  1.0000
  Cd  Cd3       1.0  0.97037  0.85988  0.04731  1.0000
  Cd  Cd4       1.0  0.47037  0.64012  0.95269  1.0000
  H   H1        1.0  0.65852  0.86846  0.99118  1.0000
  H   H2        1.0  0.15852  0.63154  0.00882  1.0000
  H   H3        1.0  0.34148  0.13154  0.00882  1.0000
  H   H4        1.0  0.84148  0.36846  0.99118  1.0000
  H   H5        1.0  0.62506  0.00313  0.70478  1.0000
  H   H6        1.0  0.12507  0.49687  0.29522  1.0000
  H   H7        1.0  0.37494  0.99686  0.29522  1.0000
  H   H8        1.0  0.87493  0.50313  0.70478  1.0000
  H   H9        1.0  0.32992  0.76712  0.77614  1.0000
  H   H10       1.0  0.82993  0.73288  0.22386  1.0000
  H   H11       1.0  0.67008  0.23288  0.22386  1.0000
  H   H12       1.0  0.17008  0.26712  0.77614  1.0000
  H   H13       1.0  0.08915  0.95100  0.54452  1.0000
  H   H14       1.0  0.58915  0.54900  0.45547  1.0000
  H   H15       1.0  0.91085  0.04900  0.45548  1.0000
  H   H16       1.0  0.41085  0.45100  0.54453  1.0000
  H   H17       1.0  0.54529  0.80157  0.49448  1.0000
  H   H18       1.0  0.04529  0.69843  0.50552  1.0000
  H   H19       1.0  0.45471  0.19843  0.50552  1.0000
  H   H20       1.0  0.95471  0.30157  0.49448  1.0000
  H   H21       1.0  0.19296  0.86558  0.33832  1.0000
  H   H22       1.0  0.69296  0.63443  0.66168  1.0000
  H   H23       1.0  0.80705  0.13442  0.66168  1.0000
  H   H24       1.0  0.30704  0.36557  0.33832  1.0000
  H   H25       1.0  0.42080  0.79098  0.31546  1.0000
  H   H26       1.0  0.92081  0.70903  0.68455  1.0000
  H   H27       1.0  0.57920  0.20902  0.68455  1.0000
  H   H28       1.0  0.07919  0.29097  0.31545  1.0000
  H   H29       1.0  0.87710  0.31229  0.16130  1.0000
  H   H30       1.0  0.37710  0.18771  0.83870  1.0000
  H   H31       1.0  0.12290  0.68771  0.83870  1.0000
  H   H32       1.0  0.62290  0.81229  0.16130  1.0000
  H   H33       1.0  0.93398  0.18499  0.17844  1.0000
  H   H34       1.0  0.43398  0.31501  0.82156  1.0000
  H   H35       1.0  0.06602  0.81501  0.82156  1.0000
  H   H36       1.0  0.56602  0.68499  0.17844  1.0000
  C   C1        1.0  0.78410  0.01327  0.88775  1.0000
  C   C2        1.0  0.28410  0.48673  0.11225  1.0000
  C   C3        1.0  0.21590  0.98673  0.11225  1.0000
  C   C4        1.0  0.71590  0.51326  0.88775  1.0000
  C   C5        1.0  0.60498  0.87516  0.91635  1.0000
  C   C6        1.0  0.10498  0.62483  0.08365  1.0000
  C   C7        1.0  0.39502  0.12484  0.08365  1.0000
  C   C8        1.0  0.89502  0.37517  0.91635  1.0000
  C   C9        1.0  0.65632  0.94470  0.85254  1.0000
  C   C10       1.0  0.15632  0.55531  0.14747  1.0000
  C   C11       1.0  0.34368  0.05530  0.14746  1.0000
  C   C12       1.0  0.84368  0.44469  0.85253  1.0000
  C   C13       1.0  0.58603  0.94972  0.75587  1.0000
  C   C14       1.0  0.08603  0.55028  0.24414  1.0000
  C   C15       1.0  0.41397  0.05028  0.24413  1.0000
  C   C16       1.0  0.91397  0.44972  0.75586  1.0000
  C   C17       1.0  0.42147  0.82060  0.79651  1.0000
  C   C18       1.0  0.92147  0.67940  0.20350  1.0000
  C   C19       1.0  0.57853  0.17940  0.20350  1.0000
  C   C20       1.0  0.07853  0.32060  0.79650  1.0000
  C   C21       1.0  0.46554  0.88743  0.72657  1.0000
  C   C22       1.0  0.96554  0.61257  0.27343  1.0000
  C   C23       1.0  0.53446  0.11257  0.27343  1.0000
  C   C24       1.0  0.03446  0.38742  0.72657  1.0000
  C   C25       1.0  0.19514  0.99443  0.75541  1.0000
  C   C26       1.0  0.69514  0.50557  0.24459  1.0000
  C   C27       1.0  0.80486  0.00557  0.24459  1.0000
  C   C28       1.0  0.30486  0.49443  0.75541  1.0000
  C   C29       1.0  0.38970  0.88565  0.62189  1.0000
  C   C30       1.0  0.88970  0.61435  0.37811  1.0000
  C   C31       1.0  0.61030  0.11435  0.37811  1.0000
  C   C32       1.0  0.11030  0.38566  0.62189  1.0000
  C   C33       1.0  0.26017  0.92752  0.63449  1.0000
  C   C34       1.0  0.76017  0.57249  0.36551  1.0000
  C   C35       1.0  0.73983  0.07248  0.36551  1.0000
  C   C36       1.0  0.23983  0.42751  0.63449  1.0000
  C   C37       1.0  0.18930  0.91798  0.53217  1.0000
  C   C38       1.0  0.68930  0.58202  0.46783  1.0000
  C   C39       1.0  0.81070  0.08202  0.46783  1.0000
  C   C40       1.0  0.31070  0.41798  0.53217  1.0000
  C   C41       1.0  0.44578  0.83640  0.50572  1.0000
  C   C42       1.0  0.94578  0.66360  0.49428  1.0000
  C   C43       1.0  0.55422  0.16360  0.49428  1.0000
  C   C44       1.0  0.05422  0.33640  0.50572  1.0000
  C   C45       1.0  0.24669  0.86979  0.41755  1.0000
  C   C46       1.0  0.74669  0.63021  0.58245  1.0000
  C   C47       1.0  0.75331  0.13021  0.58245  1.0000
  C   C48       1.0  0.25331  0.36979  0.41755  1.0000
  C   C49       1.0  0.37521  0.82864  0.40468  1.0000
  C   C50       1.0  0.87521  0.67136  0.59532  1.0000
  C   C51       1.0  0.62479  0.17136  0.59532  1.0000
  C   C52       1.0  0.12479  0.32864  0.40468  1.0000
  N   N1        1.0  0.48987  0.81369  0.88851  1.0000
  N   N2        1.0  0.98987  0.68631  0.11149  1.0000
  N   N3        1.0  0.51013  0.18631  0.11149  1.0000
  N   N4        1.0  0.01013  0.31369  0.88851  1.0000
  O   O1        1.0  0.86073  0.97957  0.95395  1.0000
  O   O2        1.0  0.36072  0.52043  0.04605  1.0000
  O   O3        1.0  0.13927  0.02043  0.04605  1.0000
  O   O4        1.0  0.63928  0.47957  0.95395  1.0000
  O   O5        1.0  0.81190  0.10353  0.85229  1.0000
  O   O6        1.0  0.31189  0.39647  0.14771  1.0000
  O   O7        1.0  0.18811  0.89647  0.14771  1.0000
  O   O8        1.0  0.68811  0.60353  0.85229  1.0000
  O   O9        1.0  0.24365  0.10165  0.83642  1.0000
  O   O10       1.0  0.74365  0.39835  0.16358  1.0000
  O   O11       1.0  0.75635  0.89835  0.16358  1.0000
  O   O12       1.0  0.25635  0.60165  0.83642  1.0000
  O   O13       1.0  0.95566  0.25506  0.14956  1.0000
  O   O14       1.0  0.45567  0.24494  0.85044  1.0000
  O   O15       1.0  0.04434  0.74494  0.85044  1.0000
  O   O16       1.0  0.54433  0.75506  0.14956  1.0000
  O   O17       1.0  0.08708  0.94860  0.77115  1.0000
  O   O18       1.0  0.58708  0.55140  0.22885  1.0000
  O   O19       1.0  0.91292  0.05140  0.22885  1.0000
  O   O20       1.0  0.41292  0.44860  0.77115  1.0000
