data_image0
_chemical_formula_structural       Pr2H46C76N8O16
_chemical_formula_sum              "Pr2 H46 C76 N8 O16"
_cell_length_a       9.08208
_cell_length_b       13.4522
_cell_length_c       14.2823
_cell_angle_alpha    96.6528
_cell_angle_beta     96.6982
_cell_angle_gamma    104.119

_space_group_name_H-M_alt    "P 1"
_space_group_IT_number       1

loop_
  _space_group_symop_operation_xyz
  'x, y, z'

loop_
  _atom_site_type_symbol
  _atom_site_label
  _atom_site_symmetry_multiplicity
  _atom_site_fract_x
  _atom_site_fract_y
  _atom_site_fract_z
  _atom_site_occupancy
  Pr  Pr1       1.0  0.86979  0.85723  0.51374  1.0000
  Pr  Pr2       1.0  0.13021  0.14277  0.48625  1.0000
  H   H1        1.0  0.44184  0.99801  0.30970  1.0000
  H   H2        1.0  0.55818  0.00199  0.69031  1.0000
  H   H3        1.0  0.11557  0.70451  0.30149  1.0000
  H   H4        1.0  0.88444  0.29549  0.69852  1.0000
  H   H5        1.0  0.81705  0.71471  0.82910  1.0000
  H   H6        1.0  0.18294  0.28530  0.17089  1.0000
  H   H7        1.0  0.78450  0.41423  0.83464  1.0000
  H   H8        1.0  0.21550  0.58577  0.16537  1.0000
  H   H9        1.0  0.98826  0.05589  0.23663  1.0000
  H   H10       1.0  0.01175  0.94411  0.76337  1.0000
  H   H11       1.0  0.97670  0.65650  0.39375  1.0000
  H   H12       1.0  0.02330  0.34350  0.60625  1.0000
  H   H13       1.0  0.46184  0.71723  0.13642  1.0000
  H   H14       1.0  0.53816  0.28278  0.86358  1.0000
  H   H15       1.0  0.53636  0.89195  0.58011  1.0000
  H   H16       1.0  0.46363  0.10804  0.41988  1.0000
  H   H17       1.0  0.63132  0.53639  0.09373  1.0000
  H   H18       1.0  0.36868  0.46362  0.90628  1.0000
  H   H19       1.0  0.23658  0.73449  0.71219  1.0000
  H   H20       1.0  0.76339  0.26551  0.28780  1.0000
  H   H21       1.0  0.69851  0.98108  0.96369  1.0000
  H   H22       1.0  0.30149  0.01892  0.03632  1.0000
  H   H23       1.0  0.95340  0.06679  0.06357  1.0000
  H   H24       1.0  0.04660  0.93321  0.93643  1.0000
  H   H25       1.0  0.48177  0.89149  0.03890  1.0000
  H   H26       1.0  0.51823  0.10851  0.96110  1.0000
  H   H27       1.0  0.14132  0.62984  0.49981  1.0000
  H   H28       1.0  0.85869  0.37015  0.50019  1.0000
  H   H29       1.0  0.22788  0.67832  0.99066  1.0000
  H   H30       1.0  0.77210  0.32168  0.00933  1.0000
  H   H31       1.0  0.25349  0.81062  0.57840  1.0000
  H   H32       1.0  0.74651  0.18937  0.42160  1.0000
  H   H33       1.0  0.07412  0.82990  0.07650  1.0000
  H   H34       1.0  0.92589  0.17011  0.92350  1.0000
  H   H35       1.0  0.88559  0.48101  0.29249  1.0000
  H   H36       1.0  0.11442  0.51898  0.70751  1.0000
  H   H37       1.0  0.17519  0.47190  0.39779  1.0000
  H   H38       1.0  0.82482  0.52809  0.60221  1.0000
  H   H39       1.0  0.34478  0.38434  0.31546  1.0000
  H   H40       1.0  0.65523  0.61565  0.68454  1.0000
  H   H41       1.0  0.93924  0.83162  0.21775  1.0000
  H   H42       1.0  0.06079  0.16838  0.78225  1.0000
  H   H43       1.0  0.71298  0.68744  0.22584  1.0000
  H   H44       1.0  0.28704  0.31257  0.77417  1.0000
  H   H45       1.0  0.60599  0.38940  0.26913  1.0000
  H   H46       1.0  0.39402  0.61060  0.73087  1.0000
  C   C1        1.0  0.40038  0.91499  0.28483  1.0000
  C   C2        1.0  0.59962  0.08501  0.71518  1.0000
  C   C3        1.0  0.21833  0.75164  0.28051  1.0000
  C   C4        1.0  0.78169  0.24836  0.71950  1.0000
  C   C5        1.0  0.18270  0.90637  0.38357  1.0000
  C   C6        1.0  0.81730  0.09362  0.61644  1.0000
  C   C7        1.0  0.27002  0.85743  0.31627  1.0000
  C   C8        1.0  0.73000  0.14256  0.68374  1.0000
  C   C9        1.0  0.61126  0.61408  0.41092  1.0000
  C   C10       1.0  0.38874  0.38591  0.58907  1.0000
  C   C11       1.0  0.51179  0.66641  0.45643  1.0000
  C   C12       1.0  0.48821  0.33358  0.54356  1.0000
  C   C13       1.0  0.93595  0.71017  0.83555  1.0000
  C   C14       1.0  0.06403  0.28985  0.16444  1.0000
  C   C15       1.0  0.79165  0.95066  0.33668  1.0000
  C   C16       1.0  0.20835  0.04934  0.66332  1.0000
  C   C17       1.0  0.94668  0.75179  0.66881  1.0000
  C   C18       1.0  0.05331  0.24822  0.33118  1.0000
  C   C19       1.0  0.75529  0.96969  0.23645  1.0000
  C   C20       1.0  0.24472  0.03031  0.76356  1.0000
  C   C21       1.0  0.61010  0.92278  0.18066  1.0000
  C   C22       1.0  0.38991  0.07722  0.81934  1.0000
  C   C23       1.0  0.47475  0.86634  0.22021  1.0000
  C   C24       1.0  0.52526  0.13366  0.77980  1.0000
  C   C25       1.0  0.35399  0.61410  0.45112  1.0000
  C   C26       1.0  0.64601  0.38588  0.54888  1.0000
  C   C27       1.0  0.01664  0.72483  0.75886  1.0000
  C   C28       1.0  0.98334  0.27517  0.24113  1.0000
  C   C29       1.0  0.87631  0.02194  0.19327  1.0000
  C   C30       1.0  0.12370  0.97806  0.80673  1.0000
  C   C31       1.0  0.85597  0.61396  0.38174  1.0000
  C   C32       1.0  0.14403  0.38604  0.61827  1.0000
  C   C33       1.0  0.41195  0.76022  0.18808  1.0000
  C   C34       1.0  0.58806  0.23978  0.81193  1.0000
  C   C35       1.0  0.48133  0.81301  0.54513  1.0000
  C   C36       1.0  0.51867  0.18698  0.45487  1.0000
  C   C37       1.0  0.54878  0.51304  0.35798  1.0000
  C   C38       1.0  0.45123  0.48695  0.64202  1.0000
  C   C39       1.0  0.01013  0.69236  0.92083  1.0000
  C   C40       1.0  0.98986  0.30765  0.07917  1.0000
  C   C41       1.0  0.93017  0.68250  0.00540  1.0000
  C   C42       1.0  0.06982  0.31751  0.99460  1.0000
  C   C43       1.0  0.72881  0.60142  0.09176  1.0000
  C   C44       1.0  0.27119  0.39860  0.90824  1.0000
  C   C45       1.0  0.17080  0.72188  0.77100  1.0000
  C   C46       1.0  0.82917  0.27812  0.22899  1.0000
  C   C47       1.0  0.71507  0.97911  0.04029  1.0000
  C   C48       1.0  0.28494  0.02089  0.95971  1.0000
  C   C49       1.0  0.80506  0.59850  0.01188  1.0000
  C   C50       1.0  0.19493  0.40151  0.98812  1.0000
  C   C51       1.0  0.85709  0.02671  0.09581  1.0000
  C   C52       1.0  0.14291  0.97330  0.90420  1.0000
  C   C53       1.0  0.59282  0.92816  0.08268  1.0000
  C   C54       1.0  0.40719  0.07184  0.91732  1.0000
  C   C55       1.0  0.26179  0.66726  0.49880  1.0000
  C   C56       1.0  0.73822  0.33273  0.50119  1.0000
  C   C57       1.0  0.16535  0.69217  0.92544  1.0000
  C   C58       1.0  0.83463  0.30784  0.07455  1.0000
  C   C59       1.0  0.74681  0.50164  0.94094  1.0000
  C   C60       1.0  0.25318  0.49837  0.05906  1.0000
  C   C61       1.0  0.32489  0.76769  0.54432  1.0000
  C   C62       1.0  0.67511  0.23230  0.45567  1.0000
  C   C63       1.0  0.97734  0.76504  0.08107  1.0000
  C   C64       1.0  0.02267  0.23497  0.91893  1.0000
  C   C65       1.0  0.80448  0.51563  0.32593  1.0000
  C   C66       1.0  0.19554  0.48436  0.67407  1.0000
  C   C67       1.0  0.29589  0.51138  0.39940  1.0000
  C   C68       1.0  0.70412  0.48861  0.60060  1.0000
  C   C69       1.0  0.38916  0.46311  0.35367  1.0000
  C   C70       1.0  0.61084  0.53688  0.64633  1.0000
  C   C71       1.0  0.90094  0.76657  0.16014  1.0000
  C   C72       1.0  0.09907  0.23343  0.83986  1.0000
  C   C73       1.0  0.77472  0.68510  0.16500  1.0000
  C   C74       1.0  0.22528  0.31491  0.83500  1.0000
  C   C75       1.0  0.64997  0.46520  0.31332  1.0000
  C   C76       1.0  0.35004  0.53479  0.68668  1.0000
  N   N1        1.0  0.28722  0.70429  0.21792  1.0000
  N   N2        1.0  0.71279  0.29570  0.78208  1.0000
  N   N3        1.0  0.76304  0.66310  0.42172  1.0000
  N   N4        1.0  0.23696  0.33690  0.57828  1.0000
  N   N5        1.0  0.57339  0.76384  0.50419  1.0000
  N   N6        1.0  0.42661  0.23615  0.49581  1.0000
  N   N7        1.0  0.24503  0.70643  0.85234  1.0000
  N   N8        1.0  0.75495  0.29357  0.14765  1.0000
  O   O1        1.0  0.06658  0.84691  0.40850  1.0000
  O   O2        1.0  0.93343  0.15308  0.59150  1.0000
  O   O3        1.0  0.23008  0.00393  0.41006  1.0000
  O   O4        1.0  0.76992  0.99606  0.58994  1.0000
  O   O5        1.0  0.83039  0.78974  0.66955  1.0000
  O   O6        1.0  0.16960  0.21026  0.33044  1.0000
  O   O7        1.0  0.71823  0.86629  0.35985  1.0000
  O   O8        1.0  0.28177  0.13371  0.64015  1.0000
  O   O9        1.0  0.00871  0.74086  0.59367  1.0000
  O   O10       1.0  0.99128  0.25914  0.40632  1.0000
  O   O11       1.0  0.90108  0.01514  0.39522  1.0000
  O   O12       1.0  0.09892  0.98486  0.60478  1.0000
  O   O13       1.0  0.83417  0.48784  0.87403  1.0000
  O   O14       1.0  0.16583  0.51216  0.12597  1.0000
  O   O15       1.0  0.62676  0.43706  0.94688  1.0000
  O   O16       1.0  0.37323  0.56295  0.05312  1.0000
