data_image0
_chemical_formula_structural       CuH18C34N2O4F12
_chemical_formula_sum              "Cu1 H18 C34 N2 O4 F12"
_cell_length_a       6.47384
_cell_length_b       10.8539
_cell_length_c       12.0456
_cell_angle_alpha    108.062
_cell_angle_beta     92.6235
_cell_angle_gamma    92.825

_space_group_name_H-M_alt    "P 1"
_space_group_IT_number       1

loop_
  _space_group_symop_operation_xyz
  'x, y, z'

loop_
  _atom_site_type_symbol
  _atom_site_label
  _atom_site_symmetry_multiplicity
  _atom_site_fract_x
  _atom_site_fract_y
  _atom_site_fract_z
  _atom_site_occupancy
  Cu  Cu1       1.0  0.50000  1.00000  0.50000  1.0000
  H   H1        1.0  0.37425  0.85245  0.25671  1.0000
  H   H2        1.0  0.62574  0.14755  0.74328  1.0000
  H   H3        1.0  0.51660  0.68340  0.09206  1.0000
  H   H4        1.0  0.48340  0.31659  0.90793  1.0000
  H   H5        1.0  0.09045  0.73986  0.30467  1.0000
  H   H6        1.0  0.90955  0.26015  0.69533  1.0000
  H   H7        1.0  0.92430  0.90223  0.46083  1.0000
  H   H8        1.0  0.07569  0.09777  0.53917  1.0000
  H   H9        1.0  0.63180  0.49362  0.20584  1.0000
  H   H10       1.0  0.36820  0.50638  0.79416  1.0000
  H   H11       1.0  0.53414  0.26156  0.16700  1.0000
  H   H12       1.0  0.46586  0.73844  0.83300  1.0000
  H   H13       1.0  0.70074  0.09336  0.01276  1.0000
  H   H14       1.0  0.29926  0.90664  0.98724  1.0000
  H   H15       1.0  0.95931  0.15751  0.89451  1.0000
  H   H16       1.0  0.04068  0.84248  0.10548  1.0000
  H   H17       1.0  0.41348  0.33633  0.36299  1.0000
  H   H18       1.0  0.58652  0.66366  0.63701  1.0000
  C   C1        1.0  0.53132  0.82286  0.26373  1.0000
  C   C2        1.0  0.46867  0.17714  0.73627  1.0000
  C   C3        1.0  0.61209  0.72923  0.17250  1.0000
  C   C4        1.0  0.38791  0.27077  0.82750  1.0000
  C   C5        1.0  0.81647  0.69600  0.18465  1.0000
  C   C6        1.0  0.18352  0.30400  0.81534  1.0000
  C   C7        1.0  0.93108  0.76117  0.28957  1.0000
  C   C8        1.0  0.06891  0.23883  0.71043  1.0000
  C   C9        1.0  0.83935  0.85300  0.37755  1.0000
  C   C10       1.0  0.16064  0.14700  0.62244  1.0000
  C   C11       1.0  0.90898  0.59576  0.08979  1.0000
  C   C12       1.0  0.09101  0.40423  0.91021  1.0000
  C   C13       1.0  0.94218  0.36562  0.97711  1.0000
  C   C14       1.0  0.05782  0.63438  0.02289  1.0000
  C   C15       1.0  0.84864  0.46321  0.06823  1.0000
  C   C16       1.0  0.15136  0.53678  0.93176  1.0000
  C   C17       1.0  0.70030  0.42123  0.13553  1.0000
  C   C18       1.0  0.29970  0.57877  0.86447  1.0000
  C   C19       1.0  0.64649  0.29171  0.11446  1.0000
  C   C20       1.0  0.35351  0.70829  0.88554  1.0000
  C   C21       1.0  0.74055  0.19594  0.02640  1.0000
  C   C22       1.0  0.25945  0.80406  0.97360  1.0000
  C   C23       1.0  0.88478  0.23185  0.96017  1.0000
  C   C24       1.0  0.11522  0.76815  0.03983  1.0000
  C   C25       1.0  0.27778  0.14565  0.34101  1.0000
  C   C26       1.0  0.72223  0.85436  0.65899  1.0000
  C   C27       1.0  0.43144  0.24851  0.38645  1.0000
  C   C28       1.0  0.56857  0.75149  0.61355  1.0000
  C   C29       1.0  0.60599  0.24654  0.45788  1.0000
  C   C30       1.0  0.39400  0.75346  0.54212  1.0000
  C   C31       1.0  0.75035  0.37185  0.50040  1.0000
  C   C32       1.0  0.24966  0.62815  0.49961  1.0000
  C   C33       1.0  0.11811  0.16227  0.24710  1.0000
  C   C34       1.0  0.88189  0.83774  0.75291  1.0000
  N   N1        1.0  0.64240  0.88306  0.36524  1.0000
  N   N2        1.0  0.35759  0.11694  0.63475  1.0000
  O   O1        1.0  0.66889  0.15833  0.49794  1.0000
  O   O2        1.0  0.33112  0.84167  0.50206  1.0000
  O   O3        1.0  0.25674  0.04000  0.36221  1.0000
  O   O4        1.0  0.74325  0.95999  0.63780  1.0000
  F   F1        1.0  0.92797  0.10733  0.25408  1.0000
  F   F2        1.0  0.07203  0.89267  0.74592  1.0000
  F   F3        1.0  0.18275  0.09943  0.13790  1.0000
  F   F4        1.0  0.81726  0.90058  0.86210  1.0000
  F   F5        1.0  0.09616  0.28775  0.25239  1.0000
  F   F6        1.0  0.90385  0.71225  0.74762  1.0000
  F   F7        1.0  0.72095  0.43585  0.61584  1.0000
  F   F8        1.0  0.27905  0.56414  0.38417  1.0000
  F   F9        1.0  0.71736  0.45627  0.43954  1.0000
  F   F10       1.0  0.28266  0.54373  0.56047  1.0000
  F   F11       1.0  0.95266  0.34454  0.49427  1.0000
  F   F12       1.0  0.04735  0.65546  0.50575  1.0000
