data_image0
_chemical_formula_structural       ZnH18C34N2O4F12
_chemical_formula_sum              "Zn1 H18 C34 N2 O4 F12"
_cell_length_a       6.53903
_cell_length_b       10.8467
_cell_length_c       12.0022
_cell_angle_alpha    106.32
_cell_angle_beta     93.5315
_cell_angle_gamma    92.0007

_space_group_name_H-M_alt    "P 1"
_space_group_IT_number       1

loop_
  _space_group_symop_operation_xyz
  'x, y, z'

loop_
  _atom_site_type_symbol
  _atom_site_label
  _atom_site_symmetry_multiplicity
  _atom_site_fract_x
  _atom_site_fract_y
  _atom_site_fract_z
  _atom_site_occupancy
  Zn  Zn1       1.0  0.50000  1.00000  0.50000  1.0000
  H   H1        1.0  0.41231  0.33684  0.36091  1.0000
  H   H2        1.0  0.58768  0.66316  0.63909  1.0000
  H   H3        1.0  0.06792  0.10342  0.54756  1.0000
  H   H4        1.0  0.93208  0.89658  0.45244  1.0000
  H   H5        1.0  0.61943  0.15104  0.74853  1.0000
  H   H6        1.0  0.38057  0.84896  0.25147  1.0000
  H   H7        1.0  0.48222  0.31892  0.91012  1.0000
  H   H8        1.0  0.51778  0.68108  0.08988  1.0000
  H   H9        1.0  0.90660  0.26454  0.70071  1.0000
  H   H10       1.0  0.09340  0.73546  0.29929  1.0000
  H   H11       1.0  0.96318  0.16111  0.89997  1.0000
  H   H12       1.0  0.03682  0.83889  0.10003  1.0000
  H   H13       1.0  0.71113  0.09588  0.01891  1.0000
  H   H14       1.0  0.28887  0.90412  0.98109  1.0000
  H   H15       1.0  0.54679  0.26132  0.17071  1.0000
  H   H16       1.0  0.45322  0.73868  0.82930  1.0000
  H   H17       1.0  0.63931  0.49151  0.20510  1.0000
  H   H18       1.0  0.36070  0.50849  0.79490  1.0000
  C   C1        1.0  0.12891  0.15617  0.25470  1.0000
  C   C2        1.0  0.87109  0.84382  0.74530  1.0000
  C   C3        1.0  0.29415  0.14743  0.34982  1.0000
  C   C4        1.0  0.70585  0.85256  0.65018  1.0000
  C   C5        1.0  0.43817  0.25201  0.38958  1.0000
  C   C6        1.0  0.56183  0.74799  0.61042  1.0000
  C   C7        1.0  0.61533  0.25358  0.46222  1.0000
  C   C8        1.0  0.38467  0.74641  0.53778  1.0000
  C   C9        1.0  0.75384  0.37880  0.49867  1.0000
  C   C10       1.0  0.24616  0.62120  0.50133  1.0000
  C   C11       1.0  0.15499  0.15193  0.62939  1.0000
  C   C12       1.0  0.84502  0.84807  0.37061  1.0000
  C   C13       1.0  0.46268  0.18039  0.74137  1.0000
  C   C14       1.0  0.53731  0.81961  0.25864  1.0000
  C   C15       1.0  0.38518  0.27350  0.83110  1.0000
  C   C16       1.0  0.61482  0.72650  0.16890  1.0000
  C   C17       1.0  0.18147  0.30674  0.81908  1.0000
  C   C18       1.0  0.81854  0.69326  0.18092  1.0000
  C   C19       1.0  0.06533  0.24283  0.71575  1.0000
  C   C20       1.0  0.93467  0.75717  0.28425  1.0000
  C   C21       1.0  0.09065  0.40564  0.91221  1.0000
  C   C22       1.0  0.90935  0.59437  0.08779  1.0000
  C   C23       1.0  0.85178  0.46288  0.06852  1.0000
  C   C24       1.0  0.14822  0.53712  0.93148  1.0000
  C   C25       1.0  0.94483  0.36688  0.97946  1.0000
  C   C26       1.0  0.05517  0.63312  0.02054  1.0000
  C   C27       1.0  0.88978  0.23423  0.96454  1.0000
  C   C28       1.0  0.11023  0.76578  0.03546  1.0000
  C   C29       1.0  0.74904  0.19768  0.03110  1.0000
  C   C30       1.0  0.25097  0.80232  0.96890  1.0000
  C   C31       1.0  0.65613  0.29180  0.11752  1.0000
  C   C32       1.0  0.34387  0.70820  0.88248  1.0000
  C   C33       1.0  0.70724  0.42030  0.13631  1.0000
  C   C34       1.0  0.29276  0.57970  0.86369  1.0000
  N   N1        1.0  0.35090  0.12088  0.64124  1.0000
  N   N2        1.0  0.64910  0.87912  0.35876  1.0000
  O   O1        1.0  0.68083  0.16721  0.50495  1.0000
  O   O2        1.0  0.31917  0.83279  0.49505  1.0000
  O   O3        1.0  0.28362  0.04285  0.37654  1.0000
  O   O4        1.0  0.71637  0.95715  0.62346  1.0000
  F   F1        1.0  0.10404  0.27791  0.24894  1.0000
  F   F2        1.0  0.89596  0.72209  0.75106  1.0000
  F   F3        1.0  0.94327  0.10517  0.26939  1.0000
  F   F4        1.0  0.05674  0.89482  0.73060  1.0000
  F   F5        1.0  0.18669  0.08607  0.14807  1.0000
  F   F6        1.0  0.81332  0.91393  0.85193  1.0000
  F   F7        1.0  0.73258  0.44196  0.61342  1.0000
  F   F8        1.0  0.26741  0.55803  0.38658  1.0000
  F   F9        1.0  0.95454  0.35274  0.48893  1.0000
  F   F10       1.0  0.04545  0.64726  0.51107  1.0000
  F   F11       1.0  0.70930  0.46207  0.43566  1.0000
  F   F12       1.0  0.29070  0.53793  0.56434  1.0000
