data_image0
_chemical_formula_structural       Gd4H32C36N4O40
_chemical_formula_sum              "Gd4 H32 C36 N4 O40"
_cell_length_a       10.0679
_cell_length_b       10.4062
_cell_length_c       11.7486
_cell_angle_alpha    90
_cell_angle_beta     90
_cell_angle_gamma    90.907

_space_group_name_H-M_alt    "P 1"
_space_group_IT_number       1

loop_
  _space_group_symop_operation_xyz
  'x, y, z'

loop_
  _atom_site_type_symbol
  _atom_site_label
  _atom_site_symmetry_multiplicity
  _atom_site_fract_x
  _atom_site_fract_y
  _atom_site_fract_z
  _atom_site_occupancy
  Gd  Gd1       1.0  0.62301  0.98028  0.15697  1.0000
  Gd  Gd2       1.0  0.37699  0.51972  0.65697  1.0000
  Gd  Gd3       1.0  0.37699  0.01972  0.84303  1.0000
  Gd  Gd4       1.0  0.62301  0.48028  0.34303  1.0000
  H   H1        1.0  0.59925  0.82118  0.37447  1.0000
  H   H2        1.0  0.40075  0.67882  0.87447  1.0000
  H   H3        1.0  0.40075  0.17882  0.62553  1.0000
  H   H4        1.0  0.59925  0.32118  0.12553  1.0000
  H   H5        1.0  0.46726  0.90169  0.36364  1.0000
  H   H6        1.0  0.53274  0.59831  0.86364  1.0000
  H   H7        1.0  0.53274  0.09831  0.63636  1.0000
  H   H8        1.0  0.46726  0.40169  0.13636  1.0000
  H   H9        1.0  0.45376  0.72804  0.18228  1.0000
  H   H10       1.0  0.54624  0.77196  0.68228  1.0000
  H   H11       1.0  0.54624  0.27196  0.81772  1.0000
  H   H12       1.0  0.45376  0.22804  0.31772  1.0000
  H   H13       1.0  0.42342  0.79398  0.06080  1.0000
  H   H14       1.0  0.57658  0.70602  0.56080  1.0000
  H   H15       1.0  0.57658  0.20602  0.93920  1.0000
  H   H16       1.0  0.42342  0.29398  0.43920  1.0000
  H   H17       1.0  0.96645  0.85510  0.05222  1.0000
  H   H18       1.0  0.03355  0.64490  0.55222  1.0000
  H   H19       1.0  0.03355  0.14490  0.94778  1.0000
  H   H20       1.0  0.96645  0.35510  0.44778  1.0000
  H   H21       1.0  0.28781  0.58736  0.01588  1.0000
  H   H22       1.0  0.71219  0.91264  0.51588  1.0000
  H   H23       1.0  0.71219  0.41264  0.98412  1.0000
  H   H24       1.0  0.28781  0.08736  0.48412  1.0000
  H   H25       1.0  0.93783  0.47936  0.20700  1.0000
  H   H26       1.0  0.06217  0.02064  0.70700  1.0000
  H   H27       1.0  0.06217  0.52064  0.79300  1.0000
  H   H28       1.0  0.93783  0.97936  0.29300  1.0000
  H   H29       1.0  0.24703  0.13325  0.14834  1.0000
  H   H30       1.0  0.75297  0.36675  0.64834  1.0000
  H   H31       1.0  0.75296  0.86675  0.85166  1.0000
  H   H32       1.0  0.24703  0.63325  0.35166  1.0000
  C   C1        1.0  0.80216  0.70123  0.17824  1.0000
  C   C2        1.0  0.19785  0.79877  0.67824  1.0000
  C   C3        1.0  0.19785  0.29877  0.82176  1.0000
  C   C4        1.0  0.80216  0.20123  0.32176  1.0000
  C   C5        1.0  0.93730  0.66991  0.13242  1.0000
  C   C6        1.0  0.06270  0.83009  0.63242  1.0000
  C   C7        1.0  0.06271  0.33009  0.86758  1.0000
  C   C8        1.0  0.93730  0.16991  0.36758  1.0000
  C   C9        1.0  0.00869  0.76090  0.06833  1.0000
  C   C10       1.0  0.99131  0.73910  0.56833  1.0000
  C   C11       1.0  0.99131  0.23910  0.93167  1.0000
  C   C12       1.0  0.00869  0.26090  0.43168  1.0000
  C   C13       1.0  0.13521  0.73254  0.02635  1.0000
  C   C14       1.0  0.86479  0.76746  0.52635  1.0000
  C   C15       1.0  0.86479  0.26746  0.97365  1.0000
  C   C16       1.0  0.13521  0.23254  0.47365  1.0000
  C   C17       1.0  0.19080  0.61311  0.04879  1.0000
  C   C18       1.0  0.80920  0.88689  0.54879  1.0000
  C   C19       1.0  0.80920  0.38689  0.95121  1.0000
  C   C20       1.0  0.19080  0.11311  0.45121  1.0000
  C   C21       1.0  0.11833  0.52483  0.11388  1.0000
  C   C22       1.0  0.88167  0.97517  0.61388  1.0000
  C   C23       1.0  0.88167  0.47517  0.88612  1.0000
  C   C24       1.0  0.11833  0.02483  0.38612  1.0000
  C   C25       1.0  0.99211  0.55026  0.15618  1.0000
  C   C26       1.0  0.00789  0.94974  0.65618  1.0000
  C   C27       1.0  0.00789  0.44974  0.84382  1.0000
  C   C28       1.0  0.99211  0.05026  0.34382  1.0000
  C   C29       1.0  0.21219  0.83159  0.96095  1.0000
  C   C30       1.0  0.78781  0.66841  0.46095  1.0000
  C   C31       1.0  0.78781  0.16841  0.03905  1.0000
  C   C32       1.0  0.21219  0.33159  0.53905  1.0000
  C   C33       1.0  0.34974  0.09931  0.13888  1.0000
  C   C34       1.0  0.65026  0.40069  0.63888  1.0000
  C   C35       1.0  0.65026  0.90069  0.86112  1.0000
  C   C36       1.0  0.34974  0.59931  0.36112  1.0000
  N   N1        1.0  0.17769  0.40032  0.13688  1.0000
  N   N2        1.0  0.82231  0.09968  0.63688  1.0000
  N   N3        1.0  0.82231  0.59968  0.86312  1.0000
  N   N4        1.0  0.17769  0.90032  0.36312  1.0000
  O   O1        1.0  0.56196  0.90256  0.34496  1.0000
  O   O2        1.0  0.43804  0.59744  0.84496  1.0000
  O   O3        1.0  0.43804  0.09744  0.65504  1.0000
  O   O4        1.0  0.56197  0.40256  0.15504  1.0000
  O   O5        1.0  0.77199  0.81940  0.18151  1.0000
  O   O6        1.0  0.22801  0.68060  0.68151  1.0000
  O   O7        1.0  0.22801  0.18060  0.81849  1.0000
  O   O8        1.0  0.77199  0.31940  0.31849  1.0000
  O   O9        1.0  0.72860  0.60900  0.21050  1.0000
  O   O10       1.0  0.27140  0.89100  0.71051  1.0000
  O   O11       1.0  0.27140  0.39100  0.78950  1.0000
  O   O12       1.0  0.72860  0.10900  0.28950  1.0000
  O   O13       1.0  0.47076  0.80481  0.13425  1.0000
  O   O14       1.0  0.52924  0.69519  0.63425  1.0000
  O   O15       1.0  0.52924  0.19519  0.86575  1.0000
  O   O16       1.0  0.47076  0.30481  0.36575  1.0000
  O   O17       1.0  0.16034  0.93530  0.93123  1.0000
  O   O18       1.0  0.83967  0.56470  0.43123  1.0000
  O   O19       1.0  0.83967  0.06470  0.06877  1.0000
  O   O20       1.0  0.16033  0.43530  0.56877  1.0000
  O   O21       1.0  0.33647  0.80937  0.93796  1.0000
  O   O22       1.0  0.66353  0.69063  0.43797  1.0000
  O   O23       1.0  0.66353  0.19063  0.06204  1.0000
  O   O24       1.0  0.33647  0.30937  0.56204  1.0000
  O   O25       1.0  0.28757  0.37754  0.09266  1.0000
  O   O26       1.0  0.71243  0.12246  0.59266  1.0000
  O   O27       1.0  0.71243  0.62246  0.90734  1.0000
  O   O28       1.0  0.28757  0.87754  0.40734  1.0000
  O   O29       1.0  0.11573  0.32246  0.19743  1.0000
  O   O30       1.0  0.88427  0.17753  0.69743  1.0000
  O   O31       1.0  0.88427  0.67754  0.80257  1.0000
  O   O32       1.0  0.11573  0.82246  0.30257  1.0000
  O   O33       1.0  0.42505  0.09742  0.22621  1.0000
  O   O34       1.0  0.57495  0.40257  0.72621  1.0000
  O   O35       1.0  0.57495  0.90257  0.77379  1.0000
  O   O36       1.0  0.42505  0.59743  0.27379  1.0000
  O   O37       1.0  0.39034  0.06223  0.04252  1.0000
  O   O38       1.0  0.60965  0.43777  0.54252  1.0000
  O   O39       1.0  0.60966  0.93777  0.95748  1.0000
  O   O40       1.0  0.39034  0.56223  0.45748  1.0000
