data_image0
_chemical_formula_structural       Ag4H24C40O8
_chemical_formula_sum              "Ag4 H24 C40 O8"
_cell_length_a       9.33294
_cell_length_b       10.216
_cell_length_c       10.216
_cell_angle_alpha    66.4667
_cell_angle_beta     70.4656
_cell_angle_gamma    70.4655

_space_group_name_H-M_alt    "P 1"
_space_group_IT_number       1

loop_
  _space_group_symop_operation_xyz
  'x, y, z'

loop_
  _atom_site_type_symbol
  _atom_site_label
  _atom_site_symmetry_multiplicity
  _atom_site_fract_x
  _atom_site_fract_y
  _atom_site_fract_z
  _atom_site_occupancy
  Ag  Ag1       1.0  0.09110  0.37374  0.65937  1.0000
  Ag  Ag2       1.0  0.40890  0.34063  0.62626  1.0000
  Ag  Ag3       1.0  0.90890  0.62626  0.34063  1.0000
  Ag  Ag4       1.0  0.59110  0.65937  0.37374  1.0000
  H   H1        1.0  0.03108  0.08181  0.13343  1.0000
  H   H2        1.0  0.46892  0.86656  0.91819  1.0000
  H   H3        1.0  0.96892  0.91819  0.86656  1.0000
  H   H4        1.0  0.53109  0.13343  0.08181  1.0000
  H   H5        1.0  0.13604  0.75276  0.55653  1.0000
  H   H6        1.0  0.36397  0.44347  0.24724  1.0000
  H   H7        1.0  0.86396  0.24724  0.44347  1.0000
  H   H8        1.0  0.63603  0.55653  0.75276  1.0000
  H   H9        1.0  0.91653  0.76981  0.76832  1.0000
  H   H10       1.0  0.58347  0.23168  0.23019  1.0000
  H   H11       1.0  0.08347  0.23019  0.23168  1.0000
  H   H12       1.0  0.41653  0.76832  0.76981  1.0000
  H   H13       1.0  0.64898  0.91445  0.73167  1.0000
  H   H14       1.0  0.85102  0.26833  0.08555  1.0000
  H   H15       1.0  0.35102  0.08555  0.26833  1.0000
  H   H16       1.0  0.14898  0.73167  0.91445  1.0000
  H   H17       1.0  0.60450  0.02820  0.47945  1.0000
  H   H18       1.0  0.89550  0.52055  0.97180  1.0000
  H   H19       1.0  0.39550  0.97180  0.52055  1.0000
  H   H20       1.0  0.10450  0.47945  0.02820  1.0000
  H   H21       1.0  0.82160  0.99792  0.26685  1.0000
  H   H22       1.0  0.67840  0.73315  0.00208  1.0000
  H   H23       1.0  0.17840  0.00208  0.73315  1.0000
  H   H24       1.0  0.32160  0.26685  0.99792  1.0000
  C   C1        1.0  0.25000  0.12061  0.87939  1.0000
  C   C2        1.0  0.75000  0.87939  0.12061  1.0000
  C   C3        1.0  0.25000  0.98684  0.01316  1.0000
  C   C4        1.0  0.75000  0.01316  0.98684  1.0000
  C   C5        1.0  0.12606  0.98442  0.13644  1.0000
  C   C6        1.0  0.37395  0.86356  0.01558  1.0000
  C   C7        1.0  0.87394  0.01557  0.86356  1.0000
  C   C8        1.0  0.62606  0.13644  0.98442  1.0000
  C   C9        1.0  0.12488  0.86222  0.26393  1.0000
  C   C10       1.0  0.37512  0.73607  0.13778  1.0000
  C   C11       1.0  0.87512  0.13778  0.73607  1.0000
  C   C12       1.0  0.62488  0.26393  0.86222  1.0000
  C   C13       1.0  0.25000  0.73722  0.26278  1.0000
  C   C14       1.0  0.75000  0.26278  0.73722  1.0000
  C   C15       1.0  0.25000  0.60362  0.39638  1.0000
  C   C16       1.0  0.75000  0.39638  0.60362  1.0000
  C   C17       1.0  0.99489  0.87026  0.39485  1.0000
  C   C18       1.0  0.50510  0.60515  0.12974  1.0000
  C   C19       1.0  0.00511  0.12974  0.60515  1.0000
  C   C20       1.0  0.49490  0.39485  0.87026  1.0000
  C   C21       1.0  0.01887  0.80755  0.53823  1.0000
  C   C22       1.0  0.48113  0.46177  0.19245  1.0000
  C   C23       1.0  0.98113  0.19245  0.46177  1.0000
  C   C24       1.0  0.51887  0.53823  0.80755  1.0000
  C   C25       1.0  0.89473  0.81957  0.65846  1.0000
  C   C26       1.0  0.60528  0.34154  0.18043  1.0000
  C   C27       1.0  0.10527  0.18043  0.34154  1.0000
  C   C28       1.0  0.39472  0.65846  0.81958  1.0000
  C   C29       1.0  0.74501  0.89888  0.63865  1.0000
  C   C30       1.0  0.75500  0.36135  0.10112  1.0000
  C   C31       1.0  0.25499  0.10113  0.36135  1.0000
  C   C32       1.0  0.24500  0.63865  0.89888  1.0000
  C   C33       1.0  0.72008  0.96405  0.49688  1.0000
  C   C34       1.0  0.77992  0.50312  0.03595  1.0000
  C   C35       1.0  0.27992  0.03595  0.50312  1.0000
  C   C36       1.0  0.22008  0.49688  0.96405  1.0000
  C   C37       1.0  0.84308  0.94837  0.37673  1.0000
  C   C38       1.0  0.65692  0.62327  0.05163  1.0000
  C   C39       1.0  0.15692  0.05163  0.62327  1.0000
  C   C40       1.0  0.34308  0.37673  0.94837  1.0000
  O   O1        1.0  0.12114  0.21732  0.87345  1.0000
  O   O2        1.0  0.37886  0.12655  0.78268  1.0000
  O   O3        1.0  0.87886  0.78267  0.12655  1.0000
  O   O4        1.0  0.62114  0.87345  0.21732  1.0000
  O   O5        1.0  0.14430  0.53430  0.43292  1.0000
  O   O6        1.0  0.35570  0.56708  0.46570  1.0000
  O   O7        1.0  0.85570  0.46570  0.56708  1.0000
  O   O8        1.0  0.64430  0.43293  0.53430  1.0000
