data_image0
_chemical_formula_structural       Cd2H32C34S2N4O14
_chemical_formula_sum              "Cd2 H32 C34 S2 N4 O14"
_cell_length_a       8.02103
_cell_length_b       8.43384
_cell_length_c       14.8855
_cell_angle_alpha    84.8665
_cell_angle_beta     74.4203
_cell_angle_gamma    70.7696

_space_group_name_H-M_alt    "P 1"
_space_group_IT_number       1

loop_
  _space_group_symop_operation_xyz
  'x, y, z'

loop_
  _atom_site_type_symbol
  _atom_site_label
  _atom_site_symmetry_multiplicity
  _atom_site_fract_x
  _atom_site_fract_y
  _atom_site_fract_z
  _atom_site_occupancy
  Cd  Cd1       1.0  0.09313  0.00140  0.78584  1.0000
  Cd  Cd2       1.0  0.88004  0.50104  0.21468  1.0000
  H   H1        1.0  0.89340  0.12715  0.57351  1.0000
  H   H2        1.0  0.46942  0.62520  0.42643  1.0000
  H   H3        1.0  0.83354  0.41429  0.50600  1.0000
  H   H4        1.0  0.34326  0.91211  0.49406  1.0000
  H   H5        1.0  0.56734  0.65109  0.59004  1.0000
  H   H6        1.0  0.16044  0.14965  0.41032  1.0000
  H   H7        1.0  0.41144  0.30674  0.79969  1.0000
  H   H8        1.0  0.21173  0.80677  0.20064  1.0000
  H   H9        1.0  0.38665  0.05289  0.59880  1.0000
  H   H10       1.0  0.98568  0.55320  0.40200  1.0000
  H   H11       1.0  0.42396  0.27971  0.47861  1.0000
  H   H12       1.0  0.90332  0.78065  0.52163  1.0000
  H   H13       1.0  0.21307  0.57220  0.51532  1.0000
  H   H14       1.0  0.72987  0.07314  0.48396  1.0000
  H   H15       1.0  0.97040  0.62985  0.66340  1.0000
  H   H16       1.0  0.63577  0.13007  0.33565  1.0000
  H   H17       1.0  0.76222  0.65675  0.77384  1.0000
  H   H18       1.0  0.53730  0.15664  0.22544  1.0000
  H   H19       1.0  0.50463  0.67967  0.91307  1.0000
  H   H20       1.0  0.41811  0.17915  0.08631  1.0000
  H   H21       1.0  0.49245  0.42159  0.01043  1.0000
  H   H22       1.0  0.50258  0.92081  0.98954  1.0000
  H   H23       1.0  0.73591  0.14868  0.95769  1.0000
  H   H24       1.0  0.69382  0.64814  0.04254  1.0000
  H   H25       1.0  0.17083  0.12103  0.94251  1.0000
  H   H26       1.0  0.11344  0.62059  0.05758  1.0000
  H   H27       1.0  0.36117  0.01030  0.87265  1.0000
  H   H28       1.0  0.23441  0.50988  0.12739  1.0000
  H   H29       1.0  0.11966  0.70820  0.92271  1.0000
  H   H30       1.0  0.04299  0.20879  0.07720  1.0000
  H   H31       1.0  0.14017  0.85058  0.97544  1.0000
  H   H32       1.0  0.11567  0.35111  0.02416  1.0000
  C   C1        1.0  0.65377  0.19920  0.68937  1.0000
  C   C2        1.0  0.34471  0.69841  0.31073  1.0000
  C   C3        1.0  0.77357  0.22920  0.60711  1.0000
  C   C4        1.0  0.38309  0.72767  0.39294  1.0000
  C   C5        1.0  0.74036  0.39116  0.57011  1.0000
  C   C6        1.0  0.31348  0.88945  0.43003  1.0000
  C   C7        1.0  0.59117  0.52264  0.61584  1.0000
  C   C8        1.0  0.20970  0.02130  0.38447  1.0000
  C   C9        1.0  0.47230  0.49193  0.69843  1.0000
  C   C10       1.0  0.17249  0.99130  0.30194  1.0000
  C   C11       1.0  0.50344  0.32910  0.73501  1.0000
  C   C12       1.0  0.23961  0.82869  0.26526  1.0000
  C   C13       1.0  0.31511  0.63336  0.75088  1.0000
  C   C14       1.0  0.06740  0.13333  0.24970  1.0000
  C   C15       1.0  0.29348  0.18144  0.60753  1.0000
  C   C16       1.0  0.90152  0.68174  0.39291  1.0000
  C   C17       1.0  0.31664  0.30727  0.54315  1.0000
  C   C18       1.0  0.86054  0.80786  0.45700  1.0000
  C   C19       1.0  0.19771  0.47009  0.56360  1.0000
  C   C20       1.0  0.76259  0.97067  0.43602  1.0000
  C   C21       1.0  0.06000  0.50211  0.64599  1.0000
  C   C22       1.0  0.70753  0.00233  0.35343  1.0000
  C   C23       1.0  0.03928  0.36769  0.70560  1.0000
  C   C24       1.0  0.74607  0.86768  0.29421  1.0000
  C   C25       1.0  0.88633  0.38953  0.79092  1.0000
  C   C26       1.0  0.67824  0.88935  0.20886  1.0000
  C   C27       1.0  0.75481  0.54626  0.81607  1.0000
  C   C28       1.0  0.57179  0.04605  0.18347  1.0000
  C   C29       1.0  0.61025  0.55893  0.89457  1.0000
  C   C30       1.0  0.50526  0.05850  0.10504  1.0000
  C   C31       1.0  0.60124  0.41607  0.94768  1.0000
  C   C32       1.0  0.54897  0.91551  0.05223  1.0000
  C   C33       1.0  0.73708  0.26438  0.91897  1.0000
  C   C34       1.0  0.65636  0.76392  0.08109  1.0000
  S   S1        1.0  0.69219  0.98991  0.73266  1.0000
  S   S2        1.0  0.42594  0.48942  0.26718  1.0000
  N   N1        1.0  0.15663  0.21114  0.68553  1.0000
  N   N2        1.0  0.84297  0.71113  0.31473  1.0000
  N   N3        1.0  0.87430  0.25135  0.84233  1.0000
  N   N4        1.0  0.71739  0.75101  0.15769  1.0000
  O   O1        1.0  0.89046  0.92057  0.72781  1.0000
  O   O2        1.0  0.61944  0.41989  0.27189  1.0000
  O   O3        1.0  0.64347  0.89899  0.67011  1.0000
  O   O4        1.0  0.31488  0.39821  0.32963  1.0000
  O   O5        1.0  0.57999  0.00263  0.82968  1.0000
  O   O6        1.0  0.41010  0.50310  0.17018  1.0000
  O   O7        1.0  0.21457  0.60004  0.82601  1.0000
  O   O8        1.0  0.04251  0.10088  0.17422  1.0000
  O   O9        1.0  0.29914  0.77945  0.71376  1.0000
  O   O10       1.0  0.01342  0.27895  0.28736  1.0000
  O   O11       1.0  0.23278  0.01403  0.90310  1.0000
  O   O12       1.0  0.13617  0.51356  0.09709  1.0000
  O   O13       1.0  0.07443  0.76790  0.98450  1.0000
  O   O14       1.0  0.05901  0.26831  0.01530  1.0000
