data_image0
_chemical_formula_structural       UH22C14N4O10
_chemical_formula_sum              "U1 H22 C14 N4 O10"
_cell_length_a       5.65666
_cell_length_b       7.91988
_cell_length_c       11.1353
_cell_angle_alpha    73.8157
_cell_angle_beta     85.6341
_cell_angle_gamma    76.0284

_space_group_name_H-M_alt    "P 1"
_space_group_IT_number       1

loop_
  _space_group_symop_operation_xyz
  'x, y, z'

loop_
  _atom_site_type_symbol
  _atom_site_label
  _atom_site_symmetry_multiplicity
  _atom_site_fract_x
  _atom_site_fract_y
  _atom_site_fract_z
  _atom_site_occupancy
  U   U1        1.0  0.99999  0.00000  1.00000  1.0000
  H   H1        1.0  0.81301  0.54095  0.63920  1.0000
  H   H2        1.0  0.18700  0.45904  0.36081  1.0000
  H   H3        1.0  0.57132  0.73631  0.60362  1.0000
  H   H4        1.0  0.42868  0.26368  0.39638  1.0000
  H   H5        1.0  0.37190  0.63378  0.79483  1.0000
  H   H6        1.0  0.62811  0.36624  0.20518  1.0000
  H   H7        1.0  0.58532  0.42504  0.81677  1.0000
  H   H8        1.0  0.41466  0.57497  0.18323  1.0000
  H   H9        1.0  0.55755  0.69121  0.95834  1.0000
  H   H10       1.0  0.44250  0.30875  0.04168  1.0000
  H   H11       1.0  0.78912  0.49337  0.97082  1.0000
  H   H12       1.0  0.21095  0.50661  0.02917  1.0000
  H   H13       1.0  0.12849  0.88503  0.67277  1.0000
  H   H14       1.0  0.87149  0.11499  0.32722  1.0000
  H   H15       1.0  0.74029  0.10898  0.66630  1.0000
  H   H16       1.0  0.25969  0.89103  0.33370  1.0000
  H   H17       1.0  0.63903  0.04996  0.54102  1.0000
  H   H18       1.0  0.36094  0.95004  0.45898  1.0000
  H   H19       1.0  0.80046  0.32889  0.46084  1.0000
  H   H20       1.0  0.19953  0.67112  0.53916  1.0000
  H   H21       1.0  0.07952  0.21489  0.53806  1.0000
  H   H22       1.0  0.92046  0.78511  0.46194  1.0000
  C   C1        1.0  0.85766  0.72673  0.83582  1.0000
  C   C2        1.0  0.14236  0.27327  0.16418  1.0000
  C   C3        1.0  0.69727  0.64705  0.67746  1.0000
  C   C4        1.0  0.30273  0.35295  0.32254  1.0000
  C   C5        1.0  0.56662  0.57022  0.79994  1.0000
  C   C6        1.0  0.43338  0.42979  0.20007  1.0000
  C   C7        1.0  0.68666  0.61355  0.90368  1.0000
  C   C8        1.0  0.31338  0.38643  0.09633  1.0000
  C   C9        1.0  0.97568  0.87362  0.62246  1.0000
  C   C10       1.0  0.02430  0.12638  0.37753  1.0000
  C   C11       1.0  0.80279  0.06129  0.58316  1.0000
  C   C12       1.0  0.19718  0.93872  0.41684  1.0000
  C   C13       1.0  0.92755  0.19618  0.49077  1.0000
  C   C14       1.0  0.07243  0.80382  0.50922  1.0000
  N   N1        1.0  0.21937  0.22785  0.77740  1.0000
  N   N2        1.0  0.78064  0.77215  0.22260  1.0000
  N   N3        1.0  0.85208  0.74928  0.71292  1.0000
  N   N4        1.0  0.14791  0.25073  0.28708  1.0000
  O   O1        1.0  0.70596  0.11744  0.93053  1.0000
  O   O2        1.0  0.29403  0.88257  0.06945  1.0000
  O   O3        1.0  0.22753  0.05946  0.79169  1.0000
  O   O4        1.0  0.77243  0.94054  0.20829  1.0000
  O   O5        1.0  0.12449  0.28905  0.86963  1.0000
  O   O6        1.0  0.87552  0.71094  0.13039  1.0000
  O   O7        1.0  0.29378  0.32292  0.68161  1.0000
  O   O8        1.0  0.70626  0.67708  0.31840  1.0000
  O   O9        1.0  0.99492  0.79306  0.88602  1.0000
  O   O10       1.0  0.00510  0.20695  0.11397  1.0000
