data_image0
_chemical_formula_structural       U2H44C28N8O20
_chemical_formula_sum              "U2 H44 C28 N8 O20"
_cell_length_a       9.95701
_cell_length_b       10.0463
_cell_length_c       10.1817
_cell_angle_alpha    90.9324
_cell_angle_beta     106.766
_cell_angle_gamma    90.3915

_space_group_name_H-M_alt    "P 1"
_space_group_IT_number       1

loop_
  _space_group_symop_operation_xyz
  'x, y, z'

loop_
  _atom_site_type_symbol
  _atom_site_label
  _atom_site_symmetry_multiplicity
  _atom_site_fract_x
  _atom_site_fract_y
  _atom_site_fract_z
  _atom_site_occupancy
  U   U1        1.0  0.75176  0.29428  0.33824  1.0000
  U   U2        1.0  0.24824  0.70572  0.66176  1.0000
  H   H1        1.0  0.30951  0.03539  0.50890  1.0000
  H   H2        1.0  0.69049  0.96461  0.49110  1.0000
  H   H3        1.0  0.16690  0.14388  0.43970  1.0000
  H   H4        1.0  0.83311  0.85612  0.56030  1.0000
  H   H5        1.0  0.34117  0.16702  0.71286  1.0000
  H   H6        1.0  0.65883  0.83299  0.28714  1.0000
  H   H7        1.0  0.24443  0.30055  0.62083  1.0000
  H   H8        1.0  0.75557  0.69945  0.37917  1.0000
  H   H9        1.0  0.46293  0.40570  0.63892  1.0000
  H   H10       1.0  0.53707  0.59430  0.36108  1.0000
  H   H11       1.0  0.55708  0.25683  0.68267  1.0000
  H   H12       1.0  0.44292  0.74317  0.31733  1.0000
  H   H13       1.0  0.40702  0.21898  0.22010  1.0000
  H   H14       1.0  0.59298  0.78102  0.77990  1.0000
  H   H15       1.0  0.10782  0.12957  0.20428  1.0000
  H   H16       1.0  0.89218  0.87043  0.79572  1.0000
  H   H17       1.0  0.06038  0.18000  0.95755  1.0000
  H   H18       1.0  0.93962  0.82000  0.04245  1.0000
  H   H19       1.0  0.23932  0.22074  0.98204  1.0000
  H   H20       1.0  0.76068  0.77925  0.01796  1.0000
  H   H21       1.0  0.19098  0.99018  0.89046  1.0000
  H   H22       1.0  0.80902  0.00982  0.10954  1.0000
  H   H23       1.0  0.12334  0.94681  0.02687  1.0000
  H   H24       1.0  0.87666  0.05319  0.97313  1.0000
  H   H25       1.0  0.42654  0.03330  0.05422  1.0000
  H   H26       1.0  0.57346  0.96670  0.94578  1.0000
  H   H27       1.0  0.36894  0.87095  0.07765  1.0000
  H   H28       1.0  0.63106  0.12905  0.92235  1.0000
  H   H29       1.0  0.47433  0.99334  0.30144  1.0000
  H   H30       1.0  0.52567  0.00666  0.69856  1.0000
  H   H31       1.0  0.29585  0.94837  0.27879  1.0000
  H   H32       1.0  0.70415  0.05163  0.72121  1.0000
  H   H33       1.0  0.24833  0.43013  0.06163  1.0000
  H   H34       1.0  0.75167  0.56987  0.93837  1.0000
  H   H35       1.0  0.33268  0.44652  0.23920  1.0000
  H   H36       1.0  0.66732  0.55348  0.76080  1.0000
  H   H37       1.0  0.20284  0.64673  0.22571  1.0000
  H   H38       1.0  0.79716  0.35327  0.77429  1.0000
  H   H39       1.0  0.08486  0.59747  0.06692  1.0000
  H   H40       1.0  0.91514  0.40253  0.93308  1.0000
  H   H41       1.0  0.05956  0.54236  0.35214  1.0000
  H   H42       1.0  0.94044  0.45764  0.64786  1.0000
  H   H43       1.0  0.92454  0.54604  0.19584  1.0000
  H   H44       1.0  0.07546  0.45396  0.80416  1.0000
  C   C1        1.0  0.46302  0.27833  0.46884  1.0000
  C   C2        1.0  0.53698  0.72167  0.53116  1.0000
  C   C3        1.0  0.28003  0.14016  0.48974  1.0000
  C   C4        1.0  0.71997  0.85984  0.51026  1.0000
  C   C5        1.0  0.32563  0.22742  0.62120  1.0000
  C   C6        1.0  0.67437  0.77258  0.37880  1.0000
  C   C7        1.0  0.46074  0.29867  0.61473  1.0000
  C   C8        1.0  0.53926  0.70133  0.38527  1.0000
  C   C9        1.0  0.33392  0.15823  0.25710  1.0000
  C   C10       1.0  0.66608  0.84177  0.74290  1.0000
  C   C11       1.0  0.18361  0.18994  0.17006  1.0000
  C   C12       1.0  0.81639  0.81006  0.82994  1.0000
  C   C13       1.0  0.16763  0.15683  0.01864  1.0000
  C   C14       1.0  0.83237  0.84317  0.98136  1.0000
  C   C15       1.0  0.20083  0.01084  0.99903  1.0000
  C   C16       1.0  0.79917  0.98916  0.00097  1.0000
  C   C17       1.0  0.34788  0.97708  0.08869  1.0000
  C   C18       1.0  0.65212  0.02292  0.91131  1.0000
  C   C19       1.0  0.36596  0.01130  0.23967  1.0000
  C   C20       1.0  0.63404  0.98870  0.76033  1.0000
  C   C21       1.0  0.04041  0.36424  0.23484  1.0000
  C   C22       1.0  0.95959  0.63576  0.76516  1.0000
  C   C23       1.0  0.22959  0.44224  0.16205  1.0000
  C   C24       1.0  0.77042  0.55776  0.83795  1.0000
  C   C25       1.0  0.13856  0.56349  0.17032  1.0000
  C   C26       1.0  0.86144  0.43651  0.82967  1.0000
  C   C27       1.0  0.03253  0.51371  0.24274  1.0000
  C   C28       1.0  0.96747  0.48629  0.75726  1.0000
  N   N1        1.0  0.59375  0.35854  0.05134  1.0000
  N   N2        1.0  0.40625  0.64146  0.94866  1.0000
  N   N3        1.0  0.90534  0.17386  0.60446  1.0000
  N   N4        1.0  0.09466  0.82614  0.39554  1.0000
  N   N5        1.0  0.35844  0.19692  0.40099  1.0000
  N   N6        1.0  0.64156  0.80308  0.59901  1.0000
  N   N7        1.0  0.14798  0.32848  0.18841  1.0000
  N   N8        1.0  0.85202  0.67151  0.81159  1.0000
  O   O1        1.0  0.80348  0.46328  0.39598  1.0000
  O   O2        1.0  0.19652  0.53672  0.60402  1.0000
  O   O3        1.0  0.70028  0.12480  0.28257  1.0000
  O   O4        1.0  0.29972  0.87520  0.71743  1.0000
  O   O5        1.0  0.53799  0.35744  0.15086  1.0000
  O   O6        1.0  0.46201  0.64256  0.84914  1.0000
  O   O7        1.0  0.72835  0.34865  0.08923  1.0000
  O   O8        1.0  0.27165  0.65135  0.91077  1.0000
  O   O9        1.0  0.52418  0.36599  0.93086  1.0000
  O   O10       1.0  0.47582  0.63401  0.06914  1.0000
  O   O11       1.0  0.96490  0.20215  0.51194  1.0000
  O   O12       1.0  0.03510  0.79785  0.48806  1.0000
  O   O13       1.0  0.77595  0.21082  0.57637  1.0000
  O   O14       1.0  0.22405  0.78918  0.42363  1.0000
  O   O15       1.0  0.96505  0.11688  0.71064  1.0000
  O   O16       1.0  0.03495  0.88312  0.28935  1.0000
  O   O17       1.0  0.55143  0.33142  0.41676  1.0000
  O   O18       1.0  0.44857  0.66858  0.58324  1.0000
  O   O19       1.0  0.96101  0.28068  0.26832  1.0000
  O   O20       1.0  0.03900  0.71932  0.73169  1.0000
