data_image0
_chemical_formula_structural       Co2H20C28N4O8
_chemical_formula_sum              "Co2 H20 C28 N4 O8"
_cell_length_a       7.31502
_cell_length_b       9.2559
_cell_length_c       9.48737
_cell_angle_alpha    99.6219
_cell_angle_beta     91.3555
_cell_angle_gamma    110.65

_space_group_name_H-M_alt    "P 1"
_space_group_IT_number       1

loop_
  _space_group_symop_operation_xyz
  'x, y, z'

loop_
  _atom_site_type_symbol
  _atom_site_label
  _atom_site_symmetry_multiplicity
  _atom_site_fract_x
  _atom_site_fract_y
  _atom_site_fract_z
  _atom_site_occupancy
  Co  Co1       1.0  0.68189  0.95027  0.90741  1.0000
  Co  Co2       1.0  0.31811  0.04973  0.09259  1.0000
  H   H1        1.0  0.75927  0.26308  0.37544  1.0000
  H   H2        1.0  0.24073  0.73692  0.62457  1.0000
  H   H3        1.0  0.99630  0.25494  0.39948  1.0000
  H   H4        1.0  0.00370  0.74506  0.60053  1.0000
  H   H5        1.0  0.67554  0.52710  0.98840  1.0000
  H   H6        1.0  0.32447  0.47290  0.01160  1.0000
  H   H7        1.0  0.78210  0.98708  0.24510  1.0000
  H   H8        1.0  0.21791  0.01292  0.75490  1.0000
  H   H9        1.0  0.61427  0.67493  0.64316  1.0000
  H   H10       1.0  0.38573  0.32507  0.35683  1.0000
  H   H11       1.0  0.80739  0.26102  0.75507  1.0000
  H   H12       1.0  0.19261  0.73898  0.24493  1.0000
  H   H13       1.0  0.82868  0.46671  0.59596  1.0000
  H   H14       1.0  0.17133  0.53329  0.40404  1.0000
  H   H15       1.0  0.05760  0.44907  0.63533  1.0000
  H   H16       1.0  0.94240  0.55093  0.36468  1.0000
  H   H17       1.0  0.60062  0.54204  0.38677  1.0000
  H   H18       1.0  0.39937  0.45796  0.61322  1.0000
  H   H19       1.0  0.67743  0.69599  0.19300  1.0000
  H   H20       1.0  0.32257  0.30401  0.80700  1.0000
  C   C1        1.0  0.83335  0.37739  0.02779  1.0000
  C   C2        1.0  0.16666  0.62261  0.97221  1.0000
  C   C3        1.0  0.01842  0.36268  0.03316  1.0000
  C   C4        1.0  0.98159  0.63732  0.96684  1.0000
  C   C5        1.0  0.65229  0.25633  0.06521  1.0000
  C   C6        1.0  0.34771  0.74367  0.93479  1.0000
  C   C7        1.0  0.04287  0.21741  0.06620  1.0000
  C   C8        1.0  0.95713  0.78259  0.93380  1.0000
  C   C9        1.0  0.87599  0.27537  0.45671  1.0000
  C   C10       1.0  0.12401  0.72464  0.54329  1.0000
  C   C11       1.0  0.75068  0.99045  0.47340  1.0000
  C   C12       1.0  0.24932  0.00955  0.52660  1.0000
  C   C13       1.0  0.70181  0.90442  0.58565  1.0000
  C   C14       1.0  0.29818  0.09558  0.41435  1.0000
  C   C15       1.0  0.81754  0.51387  0.99405  1.0000
  C   C16       1.0  0.18246  0.48613  0.00595  1.0000
  C   C17       1.0  0.74420  0.91960  0.33070  1.0000
  C   C18       1.0  0.25581  0.08040  0.66930  1.0000
  C   C19       1.0  0.64781  0.74086  0.55646  1.0000
  C   C20       1.0  0.35218  0.25914  0.44353  1.0000
  C   C21       1.0  0.78086  0.15284  0.67928  1.0000
  C   C22       1.0  0.21914  0.84716  0.32072  1.0000
  C   C23       1.0  0.95094  0.43981  0.54721  1.0000
  C   C24       1.0  0.04906  0.56019  0.45279  1.0000
  C   C25       1.0  0.64021  0.66894  0.41392  1.0000
  C   C26       1.0  0.35978  0.33106  0.58608  1.0000
  C   C27       1.0  0.68641  0.75654  0.30311  1.0000
  C   C28       1.0  0.31359  0.24346  0.69689  1.0000
  N   N1        1.0  0.72175  0.01001  0.71396  1.0000
  N   N2        1.0  0.27825  0.98999  0.28604  1.0000
  N   N3        1.0  0.80196  0.14761  0.53718  1.0000
  N   N4        1.0  0.19804  0.85239  0.46282  1.0000
  O   O1        1.0  0.89076  0.09503  0.06391  1.0000
  O   O2        1.0  0.10924  0.90497  0.93609  1.0000
  O   O3        1.0  0.54478  0.14094  0.96624  1.0000
  O   O4        1.0  0.45522  0.85906  0.03375  1.0000
  O   O5        1.0  0.60095  0.27393  0.19015  1.0000
  O   O6        1.0  0.39905  0.72607  0.80985  1.0000
  O   O7        1.0  0.21777  0.22755  0.09722  1.0000
  O   O8        1.0  0.78223  0.77245  0.90278  1.0000
