data_image0
_chemical_formula_structural       Cd2H36C42N12O14
_chemical_formula_sum              "Cd2 H36 C42 N12 O14"
_cell_length_a       10.2679
_cell_length_b       10.8673
_cell_length_c       11.4231
_cell_angle_alpha    78.1291
_cell_angle_beta     85.8022
_cell_angle_gamma    69.6633

_space_group_name_H-M_alt    "P 1"
_space_group_IT_number       1

loop_
  _space_group_symop_operation_xyz
  'x, y, z'

loop_
  _atom_site_type_symbol
  _atom_site_label
  _atom_site_symmetry_multiplicity
  _atom_site_fract_x
  _atom_site_fract_y
  _atom_site_fract_z
  _atom_site_occupancy
  Cd  Cd1       1.0  0.35828  0.86067  0.87504  1.0000
  Cd  Cd2       1.0  0.64172  0.13933  0.12496  1.0000
  H   H1        1.0  0.20015  0.47500  0.85034  1.0000
  H   H2        1.0  0.79985  0.52501  0.14966  1.0000
  H   H3        1.0  0.03127  0.59365  0.58884  1.0000
  H   H4        1.0  0.96873  0.40635  0.41116  1.0000
  H   H5        1.0  0.89063  0.86320  0.83939  1.0000
  H   H6        1.0  0.10937  0.13680  0.16061  1.0000
  H   H7        1.0  0.76583  0.52617  0.83303  1.0000
  H   H8        1.0  0.23417  0.47383  0.16696  1.0000
  H   H9        1.0  0.62524  0.66173  0.29824  1.0000
  H   H10       1.0  0.37476  0.33827  0.70176  1.0000
  H   H11       1.0  0.50522  0.07657  0.69724  1.0000
  H   H12       1.0  0.49478  0.92343  0.30276  1.0000
  H   H13       1.0  0.58866  0.43384  0.36561  1.0000
  H   H14       1.0  0.41134  0.56616  0.63439  1.0000
  H   H15       1.0  0.49555  0.38693  0.26799  1.0000
  H   H16       1.0  0.50445  0.61307  0.73201  1.0000
  H   H17       1.0  0.37163  0.57295  0.07664  1.0000
  H   H18       1.0  0.62837  0.42704  0.92336  1.0000
  H   H19       1.0  0.09764  0.77495  0.45604  1.0000
  H   H20       1.0  0.90237  0.22505  0.54396  1.0000
  H   H21       1.0  0.30757  0.71755  0.32872  1.0000
  H   H22       1.0  0.69243  0.28245  0.67128  1.0000
  H   H23       1.0  0.43088  0.23731  0.37746  1.0000
  H   H24       1.0  0.56912  0.76269  0.62254  1.0000
  H   H25       1.0  0.52299  0.23864  0.50251  1.0000
  H   H26       1.0  0.47701  0.76136  0.49749  1.0000
  H   H27       1.0  0.17647  0.35737  0.59479  1.0000
  H   H28       1.0  0.82353  0.64263  0.40521  1.0000
  H   H29       1.0  0.15294  0.00458  0.60793  1.0000
  H   H30       1.0  0.84705  0.99542  0.39207  1.0000
  H   H31       1.0  0.96653  0.19114  0.87574  1.0000
  H   H32       1.0  0.03347  0.80886  0.12426  1.0000
  H   H33       1.0  0.23135  0.12073  0.91160  1.0000
  H   H34       1.0  0.76865  0.87927  0.08840  1.0000
  H   H35       1.0  0.30789  0.05214  0.03600  1.0000
  H   H36       1.0  0.69211  0.94786  0.96400  1.0000
  C   C1        1.0  0.16922  0.73308  0.85105  1.0000
  C   C2        1.0  0.83078  0.26691  0.14895  1.0000
  C   C3        1.0  0.05701  0.67540  0.84394  1.0000
  C   C4        1.0  0.94299  0.32460  0.15606  1.0000
  C   C5        1.0  0.09169  0.53912  0.84462  1.0000
  C   C6        1.0  0.90831  0.46088  0.15538  1.0000
  C   C7        1.0  0.12466  0.56925  0.53399  1.0000
  C   C8        1.0  0.87534  0.43075  0.46602  1.0000
  C   C9        1.0  0.91713  0.75721  0.83900  1.0000
  C   C10       1.0  0.08287  0.24279  0.16100  1.0000
  C   C11       1.0  0.66127  0.78955  0.83321  1.0000
  C   C12       1.0  0.33873  0.21045  0.16679  1.0000
  C   C13       1.0  0.84780  0.56697  0.83650  1.0000
  C   C14       1.0  0.15220  0.43303  0.16350  1.0000
  C   C15       1.0  0.98727  0.48461  0.84028  1.0000
  C   C16       1.0  0.01273  0.51539  0.15972  1.0000
  C   C17       1.0  0.81208  0.70355  0.83577  1.0000
  C   C18       1.0  0.18792  0.29645  0.16423  1.0000
  C   C19       1.0  0.55801  0.67215  0.22541  1.0000
  C   C20       1.0  0.44200  0.32785  0.77459  1.0000
  C   C21       1.0  0.41524  0.08058  0.65002  1.0000
  C   C22       1.0  0.58475  0.91942  0.34997  1.0000
  C   C23       1.0  0.02906  0.34020  0.83987  1.0000
  C   C24       1.0  0.97094  0.65980  0.16014  1.0000
  C   C25       1.0  0.49287  0.46798  0.31267  1.0000
  C   C26       1.0  0.50714  0.53202  0.68733  1.0000
  C   C27       1.0  0.42867  0.62356  0.11333  1.0000
  C   C28       1.0  0.57133  0.37644  0.88667  1.0000
  C   C29       1.0  0.36455  0.50439  0.39090  1.0000
  C   C30       1.0  0.63545  0.49562  0.60910  1.0000
  C   C31       1.0  0.16196  0.67053  0.45973  1.0000
  C   C32       1.0  0.83804  0.32947  0.54028  1.0000
  C   C33       1.0  0.32707  0.40182  0.46676  1.0000
  C   C34       1.0  0.67293  0.59818  0.53324  1.0000
  C   C35       1.0  0.28099  0.63768  0.38863  1.0000
  C   C36       1.0  0.71901  0.36232  0.61137  1.0000
  C   C37       1.0  0.41853  0.25770  0.46897  1.0000
  C   C38       1.0  0.58146  0.74229  0.53102  1.0000
  C   C39       1.0  0.20713  0.43577  0.53695  1.0000
  C   C40       1.0  0.79287  0.56423  0.46305  1.0000
  C   C41       1.0  0.23631  0.04550  0.60219  1.0000
  C   C42       1.0  0.76369  0.95450  0.39781  1.0000
  N   N1        1.0  0.49719  0.57990  0.21949  1.0000
  N   N2        1.0  0.50281  0.42010  0.78051  1.0000
  N   N3        1.0  0.44617  0.73667  0.05939  1.0000
  N   N4        1.0  0.55383  0.26333  0.94061  1.0000
  N   N5        1.0  0.25170  0.13804  0.51146  1.0000
  N   N6        1.0  0.74830  0.86196  0.48854  1.0000
  N   N7        1.0  0.33485  0.00697  0.68895  1.0000
  N   N8        1.0  0.66515  0.99303  0.31105  1.0000
  N   N9        1.0  0.36634  0.15946  0.54395  1.0000
  N   N10       1.0  0.63365  0.84054  0.45605  1.0000
  N   N11       1.0  0.52883  0.76815  0.12961  1.0000
  N   N12       1.0  0.47117  0.23184  0.87039  1.0000
  O   O1        1.0  0.29196  0.65326  0.87579  1.0000
  O   O2        1.0  0.70804  0.34674  0.12421  1.0000
  O   O3        1.0  0.13537  0.86051  0.83245  1.0000
  O   O4        1.0  0.86463  0.13949  0.16756  1.0000
  O   O5        1.0  0.62440  0.90595  0.85597  1.0000
  O   O6        1.0  0.37560  0.09405  0.14403  1.0000
  O   O7        1.0  0.57522  0.73684  0.80811  1.0000
  O   O8        1.0  0.42478  0.26316  0.19189  1.0000
  O   O9        1.0  0.14652  0.27205  0.81213  1.0000
  O   O10       1.0  0.85348  0.72796  0.18787  1.0000
  O   O11       1.0  0.92729  0.28788  0.87362  1.0000
  O   O12       1.0  0.07271  0.71212  0.12638  1.0000
  O   O13       1.0  0.25602  0.03730  0.97209  1.0000
  O   O14       1.0  0.74398  0.96270  0.02791  1.0000
