data_image0
_chemical_formula_structural       Tl8H40C56O24
_chemical_formula_sum              "Tl8 H40 C56 O24"
_cell_length_a       8.48036
_cell_length_b       8.81945
_cell_length_c       19.1927
_cell_angle_alpha    89.9998
_cell_angle_beta     90.0003
_cell_angle_gamma    89.9986

_space_group_name_H-M_alt    "P 1"
_space_group_IT_number       1

loop_
  _space_group_symop_operation_xyz
  'x, y, z'

loop_
  _atom_site_type_symbol
  _atom_site_label
  _atom_site_symmetry_multiplicity
  _atom_site_fract_x
  _atom_site_fract_y
  _atom_site_fract_z
  _atom_site_occupancy
  Tl  Tl1       1.0  0.88661  0.41541  0.40102  1.0000
  Tl  Tl2       1.0  0.11340  0.08460  0.90102  1.0000
  Tl  Tl3       1.0  0.38660  0.58462  0.09898  1.0000
  Tl  Tl4       1.0  0.61340  0.91537  0.59899  1.0000
  Tl  Tl5       1.0  0.11339  0.58459  0.59898  1.0000
  Tl  Tl6       1.0  0.88660  0.91540  0.09898  1.0000
  Tl  Tl7       1.0  0.61340  0.41539  0.90101  1.0000
  Tl  Tl8       1.0  0.38660  0.08462  0.40102  1.0000
  H   H1        1.0  0.80723  0.03653  0.44256  1.0000
  H   H2        1.0  0.19276  0.46348  0.94256  1.0000
  H   H3        1.0  0.30728  0.96352  0.05743  1.0000
  H   H4        1.0  0.69273  0.53647  0.55743  1.0000
  H   H5        1.0  0.19276  0.96347  0.55744  1.0000
  H   H6        1.0  0.80725  0.53651  0.05743  1.0000
  H   H7        1.0  0.69273  0.03649  0.94257  1.0000
  H   H8        1.0  0.30728  0.46353  0.44257  1.0000
  H   H9        1.0  0.96456  0.13911  0.27490  1.0000
  H   H10       1.0  0.03545  0.36090  0.77491  1.0000
  H   H11       1.0  0.46457  0.86092  0.22510  1.0000
  H   H12       1.0  0.53545  0.63908  0.72509  1.0000
  H   H13       1.0  0.03544  0.86088  0.72510  1.0000
  H   H14       1.0  0.96455  0.63911  0.22509  1.0000
  H   H15       1.0  0.53542  0.13909  0.77490  1.0000
  H   H16       1.0  0.46457  0.36091  0.27491  1.0000
  H   H17       1.0  0.16667  0.97512  0.21905  1.0000
  H   H18       1.0  0.83334  0.52488  0.71905  1.0000
  H   H19       1.0  0.66667  0.02491  0.28096  1.0000
  H   H20       1.0  0.33333  0.47511  0.78095  1.0000
  H   H21       1.0  0.83333  0.02488  0.78096  1.0000
  H   H22       1.0  0.16666  0.47512  0.28095  1.0000
  H   H23       1.0  0.33333  0.97511  0.71904  1.0000
  H   H24       1.0  0.66667  0.52489  0.21905  1.0000
  H   H25       1.0  0.25884  0.73965  0.27877  1.0000
  H   H26       1.0  0.74116  0.76035  0.77877  1.0000
  H   H27       1.0  0.75883  0.26038  0.22124  1.0000
  H   H28       1.0  0.24117  0.23964  0.72124  1.0000
  H   H29       1.0  0.74116  0.26034  0.72124  1.0000
  H   H30       1.0  0.25884  0.23965  0.22124  1.0000
  H   H31       1.0  0.24116  0.73963  0.77876  1.0000
  H   H32       1.0  0.75883  0.76036  0.27876  1.0000
  H   H33       1.0  0.13838  0.66650  0.39294  1.0000
  H   H34       1.0  0.86161  0.83350  0.89294  1.0000
  H   H35       1.0  0.63840  0.33353  0.10707  1.0000
  H   H36       1.0  0.36160  0.16648  0.60707  1.0000
  H   H37       1.0  0.86159  0.33349  0.60707  1.0000
  H   H38       1.0  0.13839  0.16649  0.10707  1.0000
  H   H39       1.0  0.36160  0.66648  0.89293  1.0000
  H   H40       1.0  0.63840  0.83353  0.39293  1.0000
  C   C1        1.0  0.98563  0.85860  0.39789  1.0000
  C   C2        1.0  0.01436  0.64140  0.89789  1.0000
  C   C3        1.0  0.48565  0.14143  0.10211  1.0000
  C   C4        1.0  0.51434  0.35857  0.60210  1.0000
  C   C5        1.0  0.01436  0.14139  0.60211  1.0000
  C   C6        1.0  0.98564  0.35860  0.10211  1.0000
  C   C7        1.0  0.51435  0.85858  0.89789  1.0000
  C   C8        1.0  0.48566  0.64142  0.39789  1.0000
  C   C9        1.0  0.93765  0.99473  0.36477  1.0000
  C   C10       1.0  0.06235  0.50527  0.86477  1.0000
  C   C11       1.0  0.43768  0.00530  0.13523  1.0000
  C   C12       1.0  0.56233  0.49470  0.63522  1.0000
  C   C13       1.0  0.06234  0.00526  0.63523  1.0000
  C   C14       1.0  0.93766  0.49473  0.13523  1.0000
  C   C15       1.0  0.56232  0.99471  0.86477  1.0000
  C   C16       1.0  0.43768  0.50530  0.36477  1.0000
  C   C17       1.0  0.00292  0.03486  0.30014  1.0000
  C   C18       1.0  0.99708  0.46515  0.80014  1.0000
  C   C19       1.0  0.50293  0.96517  0.19986  1.0000
  C   C20       1.0  0.49708  0.53483  0.69986  1.0000
  C   C21       1.0  0.99708  0.96514  0.69986  1.0000
  C   C22       1.0  0.00293  0.53485  0.19986  1.0000
  C   C23       1.0  0.49707  0.03483  0.80014  1.0000
  C   C24       1.0  0.50293  0.46516  0.30014  1.0000
  C   C25       1.0  0.11664  0.94289  0.26923  1.0000
  C   C26       1.0  0.88336  0.55711  0.76923  1.0000
  C   C27       1.0  0.61665  0.05713  0.23078  1.0000
  C   C28       1.0  0.38336  0.44287  0.73077  1.0000
  C   C29       1.0  0.88336  0.05710  0.73078  1.0000
  C   C30       1.0  0.11664  0.44289  0.23077  1.0000
  C   C31       1.0  0.38335  0.94288  0.76922  1.0000
  C   C32       1.0  0.61665  0.55713  0.26923  1.0000
  C   C33       1.0  0.16790  0.81020  0.30235  1.0000
  C   C34       1.0  0.83210  0.68980  0.80236  1.0000
  C   C35       1.0  0.66791  0.18982  0.19765  1.0000
  C   C36       1.0  0.33209  0.31018  0.69765  1.0000
  C   C37       1.0  0.83209  0.18979  0.69765  1.0000
  C   C38       1.0  0.16791  0.31020  0.19765  1.0000
  C   C39       1.0  0.33209  0.81018  0.80235  1.0000
  C   C40       1.0  0.66791  0.68982  0.30235  1.0000
  C   C41       1.0  0.10106  0.76900  0.36589  1.0000
  C   C42       1.0  0.89894  0.73100  0.86589  1.0000
  C   C43       1.0  0.60107  0.23102  0.13411  1.0000
  C   C44       1.0  0.39893  0.26898  0.63411  1.0000
  C   C45       1.0  0.89893  0.23099  0.63412  1.0000
  C   C46       1.0  0.10107  0.26900  0.13411  1.0000
  C   C47       1.0  0.39893  0.76898  0.86588  1.0000
  C   C48       1.0  0.60108  0.73103  0.36588  1.0000
  C   C49       1.0  0.91291  0.81176  0.46559  1.0000
  C   C50       1.0  0.08709  0.68824  0.96559  1.0000
  C   C51       1.0  0.41293  0.18826  0.03441  1.0000
  C   C52       1.0  0.58707  0.31173  0.53441  1.0000
  C   C53       1.0  0.08707  0.18823  0.53441  1.0000
  C   C54       1.0  0.91292  0.31175  0.03441  1.0000
  C   C55       1.0  0.58707  0.81175  0.96559  1.0000
  C   C56       1.0  0.41293  0.68827  0.46559  1.0000
  O   O1        1.0  0.93622  0.67956  0.48891  1.0000
  O   O2        1.0  0.06378  0.82045  0.98891  1.0000
  O   O3        1.0  0.43624  0.32048  0.01109  1.0000
  O   O4        1.0  0.56376  0.17951  0.51109  1.0000
  O   O5        1.0  0.06377  0.32043  0.51109  1.0000
  O   O6        1.0  0.93622  0.17955  0.01110  1.0000
  O   O7        1.0  0.56376  0.67953  0.98891  1.0000
  O   O8        1.0  0.43624  0.82049  0.48891  1.0000
  O   O9        1.0  0.82598  0.91265  0.49566  1.0000
  O   O10       1.0  0.17403  0.58736  0.99566  1.0000
  O   O11       1.0  0.32600  0.08739  0.00434  1.0000
  O   O12       1.0  0.67400  0.41260  0.50433  1.0000
  O   O13       1.0  0.17401  0.08734  0.50434  1.0000
  O   O14       1.0  0.82598  0.41264  0.00434  1.0000
  O   O15       1.0  0.67400  0.91261  0.99566  1.0000
  O   O16       1.0  0.32600  0.58740  0.49566  1.0000
  O   O17       1.0  0.82735  0.08587  0.39399  1.0000
  O   O18       1.0  0.17265  0.41413  0.89399  1.0000
  O   O19       1.0  0.32738  0.91416  0.10600  1.0000
  O   O20       1.0  0.67263  0.58583  0.60600  1.0000
  O   O21       1.0  0.17264  0.91412  0.60601  1.0000
  O   O22       1.0  0.82736  0.58587  0.10600  1.0000
  O   O23       1.0  0.67262  0.08585  0.89399  1.0000
  O   O24       1.0  0.32738  0.41416  0.39400  1.0000
