data_image0
_chemical_formula_structural       Cu2H18C6N10O6
_chemical_formula_sum              "Cu2 H18 C6 N10 O6"
_cell_length_a       7.24303
_cell_length_b       7.02626
_cell_length_c       9.03862
_cell_angle_alpha    62.4298
_cell_angle_beta     66.6923
_cell_angle_gamma    64.1914

_space_group_name_H-M_alt    "P 1"
_space_group_IT_number       1

loop_
  _space_group_symop_operation_xyz
  'x, y, z'

loop_
  _atom_site_type_symbol
  _atom_site_label
  _atom_site_symmetry_multiplicity
  _atom_site_fract_x
  _atom_site_fract_y
  _atom_site_fract_z
  _atom_site_occupancy
  Cu  Cu1       1.0  0.50000  0.50000  0.50000  1.0000
  Cu  Cu2       1.0  1.00000  0.00000  0.00000  1.0000
  H   H1        1.0  0.01596  0.41521  0.85425  1.0000
  H   H2        1.0  0.98404  0.58479  0.14575  1.0000
  H   H3        1.0  0.25903  0.22838  0.82961  1.0000
  H   H4        1.0  0.74097  0.77162  0.17039  1.0000
  H   H5        1.0  0.13584  0.26894  0.01625  1.0000
  H   H6        1.0  0.86416  0.73105  0.98375  1.0000
  H   H7        1.0  0.76919  0.41915  0.64956  1.0000
  H   H8        1.0  0.23082  0.58085  0.35043  1.0000
  H   H9        1.0  0.79550  0.63485  0.46757  1.0000
  H   H10       1.0  0.20450  0.36515  0.53243  1.0000
  H   H11       1.0  0.90241  0.37289  0.46594  1.0000
  H   H12       1.0  0.09759  0.62712  0.53406  1.0000
  H   H13       1.0  0.44868  0.83077  0.96130  1.0000
  H   H14       1.0  0.55132  0.16922  0.03870  1.0000
  H   H15       1.0  0.38350  0.83897  0.14230  1.0000
  H   H16       1.0  0.61650  0.16102  0.85770  1.0000
  H   H17       1.0  0.65578  0.43064  0.12724  1.0000
  H   H18       1.0  0.34422  0.56935  0.87277  1.0000
  C   C1        1.0  0.74414  0.03300  0.48035  1.0000
  C   C2        1.0  0.25586  0.96700  0.51965  1.0000
  C   C3        1.0  0.70866  0.27568  0.23048  1.0000
  C   C4        1.0  0.29133  0.72433  0.76951  1.0000
  C   C5        1.0  0.72206  0.92382  0.67038  1.0000
  C   C6        1.0  0.27794  0.07619  0.32962  1.0000
  N   N1        1.0  0.83212  0.07573  0.21269  1.0000
  N   N2        1.0  0.16788  0.92426  0.78731  1.0000
  N   N3        1.0  0.85488  0.92100  0.37090  1.0000
  N   N4        1.0  0.14513  0.07900  0.62910  1.0000
  N   N5        1.0  0.11415  0.26150  0.91361  1.0000
  N   N6        1.0  0.88585  0.73849  0.08640  1.0000
  N   N7        1.0  0.64976  0.25557  0.39703  1.0000
  N   N8        1.0  0.35024  0.74443  0.60297  1.0000
  N   N9        1.0  0.77203  0.47883  0.52177  1.0000
  N   N10       1.0  0.22798  0.52117  0.47823  1.0000
  O   O1        1.0  0.85022  0.73202  0.72761  1.0000
  O   O2        1.0  0.14976  0.26800  0.27239  1.0000
  O   O3        1.0  0.56929  0.03664  0.76124  1.0000
  O   O4        1.0  0.43071  0.96338  0.23875  1.0000
  O   O5        1.0  0.37367  0.75959  0.08013  1.0000
  O   O6        1.0  0.62633  0.24039  0.91987  1.0000
