data_image0
_chemical_formula_structural       Na4H40C32O20F4
_chemical_formula_sum              "Na4 H40 C32 O20 F4"
_cell_length_a       5.38282
_cell_length_b       5.861
_cell_length_c       30.5418
_cell_angle_alpha    90.0011
_cell_angle_beta     93.144
_cell_angle_gamma    90.0014

_space_group_name_H-M_alt    "P 1"
_space_group_IT_number       1

loop_
  _space_group_symop_operation_xyz
  'x, y, z'

loop_
  _atom_site_type_symbol
  _atom_site_label
  _atom_site_symmetry_multiplicity
  _atom_site_fract_x
  _atom_site_fract_y
  _atom_site_fract_z
  _atom_site_occupancy
  Na  Na1       1.0  0.58002  0.59173  0.55217  1.0000
  Na  Na2       1.0  0.91999  0.09168  0.94783  1.0000
  Na  Na3       1.0  0.41998  0.40829  0.44783  1.0000
  Na  Na4       1.0  0.08002  0.90831  0.05217  1.0000
  H   H1        1.0  0.43499  0.06851  0.69254  1.0000
  H   H2        1.0  0.06500  0.56846  0.80745  1.0000
  H   H3        1.0  0.56499  0.93147  0.30746  1.0000
  H   H4        1.0  0.93496  0.43159  0.19254  1.0000
  H   H5        1.0  0.11863  0.13223  0.74683  1.0000
  H   H6        1.0  0.38134  0.63224  0.75317  1.0000
  H   H7        1.0  0.88133  0.86776  0.25317  1.0000
  H   H8        1.0  0.61862  0.36781  0.24683  1.0000
  H   H9        1.0  0.82771  0.70572  0.67254  1.0000
  H   H10       1.0  0.67224  0.20572  0.82746  1.0000
  H   H11       1.0  0.17227  0.29426  0.32746  1.0000
  H   H12       1.0  0.32777  0.79429  0.17254  1.0000
  H   H13       1.0  0.13897  0.64108  0.61664  1.0000
  H   H14       1.0  0.36104  0.14108  0.88337  1.0000
  H   H15       1.0  0.86102  0.35891  0.38336  1.0000
  H   H16       1.0  0.63896  0.85892  0.11663  1.0000
  H   H17       1.0  0.69872  0.82613  0.47659  1.0000
  H   H18       1.0  0.80128  0.32611  0.02342  1.0000
  H   H19       1.0  0.30129  0.17389  0.52342  1.0000
  H   H20       1.0  0.19874  0.67387  0.97658  1.0000
  H   H21       1.0  0.89630  0.64634  0.46920  1.0000
  H   H22       1.0  0.60371  0.14632  0.03080  1.0000
  H   H23       1.0  0.10371  0.35367  0.53080  1.0000
  H   H24       1.0  0.39631  0.85366  0.96920  1.0000
  H   H25       1.0  0.11521  0.87979  0.54659  1.0000
  H   H26       1.0  0.38481  0.37974  0.95341  1.0000
  H   H27       1.0  0.88480  0.12023  0.45341  1.0000
  H   H28       1.0  0.61521  0.62023  0.04659  1.0000
  H   H29       1.0  0.23266  0.82844  0.50104  1.0000
  H   H30       1.0  0.26735  0.32844  0.99896  1.0000
  H   H31       1.0  0.76735  0.17158  0.49896  1.0000
  H   H32       1.0  0.73267  0.67153  0.00104  1.0000
  H   H33       1.0  0.49635  0.97407  0.62243  1.0000
  H   H34       1.0  0.00364  0.47400  0.87757  1.0000
  H   H35       1.0  0.50366  0.02594  0.37757  1.0000
  H   H36       1.0  0.99638  0.52600  0.12243  1.0000
  H   H37       1.0  0.75065  0.12014  0.65016  1.0000
  H   H38       1.0  0.74934  0.62007  0.84984  1.0000
  H   H39       1.0  0.24936  0.87984  0.34984  1.0000
  H   H40       1.0  0.25066  0.37992  0.15016  1.0000
  C   C1        1.0  0.31080  0.35230  0.65091  1.0000
  C   C2        1.0  0.18921  0.85227  0.84909  1.0000
  C   C3        1.0  0.68920  0.64768  0.34909  1.0000
  C   C4        1.0  0.81078  0.14774  0.15091  1.0000
  C   C5        1.0  0.30314  0.20744  0.68730  1.0000
  C   C6        1.0  0.19685  0.70740  0.81269  1.0000
  C   C7        1.0  0.69684  0.79254  0.31270  1.0000
  C   C8        1.0  0.80313  0.29264  0.18730  1.0000
  C   C9        1.0  0.12588  0.24299  0.71835  1.0000
  C   C10       1.0  0.37409  0.74297  0.78165  1.0000
  C   C11       1.0  0.87410  0.75700  0.28165  1.0000
  C   C12       1.0  0.62588  0.25706  0.21835  1.0000
  C   C13       1.0  0.95943  0.42214  0.71235  1.0000
  C   C14       1.0  0.54057  0.92215  0.78764  1.0000
  C   C15       1.0  0.04057  0.57784  0.28765  1.0000
  C   C16       1.0  0.45942  0.07787  0.21236  1.0000
  C   C17       1.0  0.96299  0.56815  0.67648  1.0000
  C   C18       1.0  0.53701  0.06817  0.82353  1.0000
  C   C19       1.0  0.03702  0.43182  0.32353  1.0000
  C   C20       1.0  0.46298  0.93186  0.17647  1.0000
  C   C21       1.0  0.13986  0.53218  0.64555  1.0000
  C   C22       1.0  0.36010  0.03215  0.85445  1.0000
  C   C23       1.0  0.86011  0.46781  0.35445  1.0000
  C   C24       1.0  0.63991  0.96786  0.14555  1.0000
  C   C25       1.0  0.62191  0.12192  0.62076  1.0000
  C   C26       1.0  0.87810  0.62184  0.87924  1.0000
  C   C27       1.0  0.37808  0.87808  0.37924  1.0000
  C   C28       1.0  0.12190  0.37816  0.12076  1.0000
  C   C29       1.0  0.77824  0.09278  0.58108  1.0000
  C   C30       1.0  0.72181  0.59270  0.91892  1.0000
  C   C31       1.0  0.22179  0.90722  0.41892  1.0000
  C   C32       1.0  0.27822  0.40727  0.08108  1.0000
  O   O1        1.0  0.73089  0.65995  0.48113  1.0000
  O   O2        1.0  0.76911  0.15994  0.01887  1.0000
  O   O3        1.0  0.26911  0.34006  0.51887  1.0000
  O   O4        1.0  0.23090  0.84005  0.98113  1.0000
  O   O5        1.0  0.27709  0.87707  0.53158  1.0000
  O   O6        1.0  0.22293  0.37704  0.96842  1.0000
  O   O7        1.0  0.72292  0.12295  0.46842  1.0000
  O   O8        1.0  0.77710  0.62294  0.03158  1.0000
  O   O9        1.0  0.48007  0.32837  0.61890  1.0000
  O   O10       1.0  0.01994  0.82832  0.88110  1.0000
  O   O11       1.0  0.51993  0.67162  0.38110  1.0000
  O   O12       1.0  0.98006  0.17169  0.11890  1.0000
  O   O13       1.0  0.81075  0.26050  0.55580  1.0000
  O   O14       1.0  0.68930  0.76043  0.94420  1.0000
  O   O15       1.0  0.18926  0.73953  0.44420  1.0000
  O   O16       1.0  0.31072  0.23955  0.05580  1.0000
  O   O17       1.0  0.86786  0.89376  0.57731  1.0000
  O   O18       1.0  0.63219  0.39367  0.92269  1.0000
  O   O19       1.0  0.13215  0.10627  0.42269  1.0000
  O   O20       1.0  0.36783  0.60631  0.07731  1.0000
  F   F1        1.0  0.78650  0.45628  0.74305  1.0000
  F   F2        1.0  0.71345  0.95632  0.75694  1.0000
  F   F3        1.0  0.21347  0.54370  0.25694  1.0000
  F   F4        1.0  0.28654  0.04369  0.24306  1.0000
