data_image0
_chemical_formula_structural       Rb4H24C32O12F4
_chemical_formula_sum              "Rb4 H24 C32 O12 F4"
_cell_length_a       6.91299
_cell_length_b       7.11431
_cell_length_c       18.1287
_cell_angle_alpha    89.9999
_cell_angle_beta     92.1058
_cell_angle_gamma    89.9999

_space_group_name_H-M_alt    "P 1"
_space_group_IT_number       1

loop_
  _space_group_symop_operation_xyz
  'x, y, z'

loop_
  _atom_site_type_symbol
  _atom_site_label
  _atom_site_symmetry_multiplicity
  _atom_site_fract_x
  _atom_site_fract_y
  _atom_site_fract_z
  _atom_site_occupancy
  Rb  Rb1       1.0  0.75572  0.52230  0.43231  1.0000
  Rb  Rb2       1.0  0.74428  0.02230  0.56769  1.0000
  Rb  Rb3       1.0  0.24428  0.47770  0.56769  1.0000
  Rb  Rb4       1.0  0.25571  0.97770  0.43231  1.0000
  H   H1        1.0  0.35473  0.30946  0.17295  1.0000
  H   H2        1.0  0.14527  0.80947  0.82705  1.0000
  H   H3        1.0  0.64527  0.69053  0.82705  1.0000
  H   H4        1.0  0.85473  0.19054  0.17295  1.0000
  H   H5        1.0  0.49578  0.30102  0.04908  1.0000
  H   H6        1.0  0.00423  0.80103  0.95092  1.0000
  H   H7        1.0  0.50423  0.69897  0.95092  1.0000
  H   H8        1.0  0.99578  0.19898  0.04908  1.0000
  H   H9        1.0  0.94379  0.68524  0.12169  1.0000
  H   H10       1.0  0.55620  0.18524  0.87831  1.0000
  H   H11       1.0  0.05620  0.31476  0.87831  1.0000
  H   H12       1.0  0.44379  0.81476  0.12169  1.0000
  H   H13       1.0  0.80604  0.69317  0.24773  1.0000
  H   H14       1.0  0.69395  0.19317  0.75227  1.0000
  H   H15       1.0  0.19395  0.30683  0.75227  1.0000
  H   H16       1.0  0.30604  0.80683  0.24773  1.0000
  H   H17       1.0  0.35596  0.26834  0.29989  1.0000
  H   H18       1.0  0.14404  0.76834  0.70011  1.0000
  H   H19       1.0  0.64404  0.73166  0.70011  1.0000
  H   H20       1.0  0.85596  0.23166  0.29989  1.0000
  H   H21       1.0  0.21080  0.45742  0.26394  1.0000
  H   H22       1.0  0.28919  0.95743  0.73606  1.0000
  H   H23       1.0  0.78920  0.54257  0.73606  1.0000
  H   H24       1.0  0.71080  0.04258  0.26394  1.0000
  C   C1        1.0  0.57093  0.50396  0.21834  1.0000
  C   C2        1.0  0.92907  0.00396  0.78166  1.0000
  C   C3        1.0  0.42907  0.49604  0.78166  1.0000
  C   C4        1.0  0.07093  0.99604  0.21834  1.0000
  C   C5        1.0  0.48337  0.39227  0.16292  1.0000
  C   C6        1.0  0.01663  0.89228  0.83707  1.0000
  C   C7        1.0  0.51663  0.60772  0.83708  1.0000
  C   C8        1.0  0.98337  0.10773  0.16292  1.0000
  C   C9        1.0  0.56116  0.38727  0.09283  1.0000
  C   C10       1.0  0.93884  0.88727  0.90717  1.0000
  C   C11       1.0  0.43884  0.61273  0.90717  1.0000
  C   C12       1.0  0.06116  0.11273  0.09283  1.0000
  C   C13       1.0  0.72373  0.49437  0.07955  1.0000
  C   C14       1.0  0.77626  0.99437  0.92045  1.0000
  C   C15       1.0  0.27626  0.50563  0.92044  1.0000
  C   C16       1.0  0.22373  0.00564  0.07955  1.0000
  C   C17       1.0  0.81535  0.60398  0.13401  1.0000
  C   C18       1.0  0.68464  0.10399  0.86599  1.0000
  C   C19       1.0  0.18465  0.39601  0.86599  1.0000
  C   C20       1.0  0.31536  0.89602  0.13401  1.0000
  C   C21       1.0  0.73834  0.60771  0.20400  1.0000
  C   C22       1.0  0.76165  0.10771  0.79600  1.0000
  C   C23       1.0  0.26166  0.39229  0.79600  1.0000
  C   C24       1.0  0.23834  0.89229  0.20400  1.0000
  C   C25       1.0  0.32915  0.42039  0.30388  1.0000
  C   C26       1.0  0.17085  0.92039  0.69613  1.0000
  C   C27       1.0  0.67085  0.57961  0.69613  1.0000
  C   C28       1.0  0.82916  0.07961  0.30387  1.0000
  C   C29       1.0  0.26297  0.46576  0.38162  1.0000
  C   C30       1.0  0.23703  0.96576  0.61838  1.0000
  C   C31       1.0  0.73703  0.53424  0.61838  1.0000
  C   C32       1.0  0.76297  0.03424  0.38161  1.0000
  O   O1        1.0  0.50156  0.52251  0.28815  1.0000
  O   O2        1.0  0.99844  0.02251  0.71185  1.0000
  O   O3        1.0  0.49844  0.47749  0.71185  1.0000
  O   O4        1.0  0.00156  0.97750  0.28815  1.0000
  O   O5        1.0  0.34687  0.59569  0.41820  1.0000
  O   O6        1.0  0.15313  0.09569  0.58180  1.0000
  O   O7        1.0  0.65313  0.40431  0.58180  1.0000
  O   O8        1.0  0.84688  0.90430  0.41820  1.0000
  O   O9        1.0  0.12410  0.36475  0.40297  1.0000
  O   O10       1.0  0.37590  0.86476  0.59703  1.0000
  O   O11       1.0  0.87591  0.63524  0.59703  1.0000
  O   O12       1.0  0.62410  0.13524  0.40296  1.0000
  F   F1        1.0  0.79775  0.49085  0.01046  1.0000
  F   F2        1.0  0.70225  0.99085  0.98954  1.0000
  F   F3        1.0  0.20224  0.50915  0.98954  1.0000
  F   F4        1.0  0.29775  0.00916  0.01045  1.0000
