data_image0
_chemical_formula_structural       K4H24C32O12F4
_chemical_formula_sum              "K4 H24 C32 O12 F4"
_cell_length_a       6.59888
_cell_length_b       6.90246
_cell_length_c       18.4828
_cell_angle_alpha    89.9998
_cell_angle_beta     93.3026
_cell_angle_gamma    90

_space_group_name_H-M_alt    "P 1"
_space_group_IT_number       1

loop_
  _space_group_symop_operation_xyz
  'x, y, z'

loop_
  _atom_site_type_symbol
  _atom_site_label
  _atom_site_symmetry_multiplicity
  _atom_site_fract_x
  _atom_site_fract_y
  _atom_site_fract_z
  _atom_site_occupancy
  K   K1        1.0  0.75281  0.51689  0.43817  1.0000
  K   K2        1.0  0.74718  0.01689  0.56184  1.0000
  K   K3        1.0  0.24719  0.48311  0.56183  1.0000
  K   K4        1.0  0.25281  0.98311  0.43816  1.0000
  H   H1        1.0  0.33038  0.33214  0.18055  1.0000
  H   H2        1.0  0.16962  0.83214  0.81945  1.0000
  H   H3        1.0  0.66962  0.66787  0.81945  1.0000
  H   H4        1.0  0.83038  0.16786  0.18055  1.0000
  H   H5        1.0  0.46759  0.33419  0.05834  1.0000
  H   H6        1.0  0.03242  0.83419  0.94166  1.0000
  H   H7        1.0  0.53241  0.66581  0.94166  1.0000
  H   H8        1.0  0.96759  0.16582  0.05834  1.0000
  H   H9        1.0  0.98177  0.66849  0.13877  1.0000
  H   H10       1.0  0.51823  0.16849  0.86123  1.0000
  H   H11       1.0  0.01823  0.33150  0.86123  1.0000
  H   H12       1.0  0.48177  0.83151  0.13877  1.0000
  H   H13       1.0  0.84508  0.66960  0.26289  1.0000
  H   H14       1.0  0.65492  0.16960  0.73711  1.0000
  H   H15       1.0  0.15492  0.33040  0.73711  1.0000
  H   H16       1.0  0.34508  0.83040  0.26289  1.0000
  H   H17       1.0  0.34108  0.26632  0.30748  1.0000
  H   H18       1.0  0.15892  0.76632  0.69252  1.0000
  H   H19       1.0  0.65892  0.73368  0.69252  1.0000
  H   H20       1.0  0.84109  0.23368  0.30748  1.0000
  H   H21       1.0  0.20245  0.47269  0.27365  1.0000
  H   H22       1.0  0.29755  0.97269  0.72634  1.0000
  H   H23       1.0  0.79755  0.52731  0.72635  1.0000
  H   H24       1.0  0.70245  0.02731  0.27365  1.0000
  C   C1        1.0  0.57903  0.50289  0.22966  1.0000
  C   C2        1.0  0.92097  0.00289  0.77034  1.0000
  C   C3        1.0  0.42097  0.49711  0.77034  1.0000
  C   C4        1.0  0.07903  0.99711  0.22966  1.0000
  C   C5        1.0  0.47274  0.40645  0.17264  1.0000
  C   C6        1.0  0.02726  0.90644  0.82736  1.0000
  C   C7        1.0  0.52726  0.59356  0.82736  1.0000
  C   C8        1.0  0.97274  0.09355  0.17264  1.0000
  C   C9        1.0  0.54866  0.40708  0.10348  1.0000
  C   C10       1.0  0.95134  0.90708  0.89652  1.0000
  C   C11       1.0  0.45133  0.59292  0.89652  1.0000
  C   C12       1.0  0.04866  0.09292  0.10348  1.0000
  C   C13       1.0  0.72896  0.50330  0.09297  1.0000
  C   C14       1.0  0.77104  0.00330  0.90703  1.0000
  C   C15       1.0  0.27104  0.49670  0.90703  1.0000
  C   C16       1.0  0.22896  0.99670  0.09297  1.0000
  C   C17       1.0  0.83964  0.59634  0.14913  1.0000
  C   C18       1.0  0.66036  0.09634  0.85087  1.0000
  C   C19       1.0  0.16036  0.40366  0.85087  1.0000
  C   C20       1.0  0.33964  0.90366  0.14913  1.0000
  C   C21       1.0  0.76375  0.59555  0.21793  1.0000
  C   C22       1.0  0.73625  0.09555  0.78207  1.0000
  C   C23       1.0  0.23625  0.40445  0.78207  1.0000
  C   C24       1.0  0.26375  0.90445  0.21793  1.0000
  C   C25       1.0  0.32504  0.42415  0.31270  1.0000
  C   C26       1.0  0.17496  0.92415  0.68730  1.0000
  C   C27       1.0  0.67496  0.57585  0.68730  1.0000
  C   C28       1.0  0.82504  0.07585  0.31270  1.0000
  C   C29       1.0  0.26192  0.47280  0.38901  1.0000
  C   C30       1.0  0.23808  0.97279  0.61099  1.0000
  C   C31       1.0  0.73808  0.52720  0.61099  1.0000
  C   C32       1.0  0.76192  0.02721  0.38901  1.0000
  O   O1        1.0  0.51269  0.51786  0.29868  1.0000
  O   O2        1.0  0.98730  0.01787  0.70132  1.0000
  O   O3        1.0  0.48731  0.48214  0.70132  1.0000
  O   O4        1.0  0.01270  0.98213  0.29868  1.0000
  O   O5        1.0  0.35104  0.60918  0.42383  1.0000
  O   O6        1.0  0.14895  0.10918  0.57617  1.0000
  O   O7        1.0  0.64896  0.39082  0.57617  1.0000
  O   O8        1.0  0.85105  0.89082  0.42383  1.0000
  O   O9        1.0  0.11880  0.36908  0.41113  1.0000
  O   O10       1.0  0.38120  0.86909  0.58887  1.0000
  O   O11       1.0  0.88120  0.63092  0.58887  1.0000
  O   O12       1.0  0.61880  0.13092  0.41113  1.0000
  F   F1        1.0  0.80200  0.50550  0.02511  1.0000
  F   F2        1.0  0.69800  0.00550  0.97489  1.0000
  F   F3        1.0  0.19799  0.49450  0.97489  1.0000
  F   F4        1.0  0.30200  0.99450  0.02511  1.0000
