data_image0
_chemical_formula_structural       Fe2H24Au4C28I4N16O2
_chemical_formula_sum              "Fe2 H24 Au4 C28 I4 N16 O2"
_cell_length_a       9.37594
_cell_length_b       10.0338
_cell_length_c       12.7242
_cell_angle_alpha    92.1297
_cell_angle_beta     99.6272
_cell_angle_gamma    114.307

_space_group_name_H-M_alt    "P 1"
_space_group_IT_number       1

loop_
  _space_group_symop_operation_xyz
  'x, y, z'

loop_
  _atom_site_type_symbol
  _atom_site_label
  _atom_site_symmetry_multiplicity
  _atom_site_fract_x
  _atom_site_fract_y
  _atom_site_fract_z
  _atom_site_occupancy
  Fe  Fe1       1.0  0.60372  0.35319  0.68865  1.0000
  Fe  Fe2       1.0  0.39627  0.64680  0.31134  1.0000
  H   H1        1.0  0.36102  0.28982  0.80500  1.0000
  H   H2        1.0  0.63898  0.71018  0.19500  1.0000
  H   H3        1.0  0.67931  0.17860  0.52572  1.0000
  H   H4        1.0  0.32070  0.82140  0.47428  1.0000
  H   H5        1.0  0.77374  0.62326  0.85991  1.0000
  H   H6        1.0  0.22626  0.37674  0.14009  1.0000
  H   H7        1.0  0.76105  0.61888  0.58347  1.0000
  H   H8        1.0  0.23895  0.38111  0.41652  1.0000
  H   H9        1.0  0.87946  0.67346  0.42014  1.0000
  H   H10       1.0  0.12053  0.32654  0.57986  1.0000
  H   H11       1.0  0.90771  0.30854  0.74141  1.0000
  H   H12       1.0  0.09228  0.69146  0.25860  1.0000
  H   H13       1.0  0.17908  0.43892  0.85779  1.0000
  H   H14       1.0  0.82092  0.56108  0.14221  1.0000
  H   H15       1.0  0.62172  0.25473  0.93368  1.0000
  H   H16       1.0  0.37827  0.74527  0.06632  1.0000
  H   H17       1.0  0.42679  0.11490  0.87932  1.0000
  H   H18       1.0  0.57321  0.88509  0.12068  1.0000
  H   H19       1.0  0.31068  0.23661  0.99522  1.0000
  H   H20       1.0  0.68931  0.76339  0.00478  1.0000
  H   H21       1.0  0.50548  0.37871  0.04719  1.0000
  H   H22       1.0  0.49451  0.62128  0.95281  1.0000
  H   H23       1.0  0.45835  0.19480  0.07569  1.0000
  H   H24       1.0  0.54165  0.80520  0.92431  1.0000
  Au  Au1       1.0  0.59659  0.85160  0.70925  1.0000
  Au  Au2       1.0  0.40343  0.14841  0.29075  1.0000
  Au  Au3       1.0  0.12380  0.02626  0.41513  1.0000
  Au  Au4       1.0  0.87620  0.97374  0.58487  1.0000
  C   C1        1.0  0.95147  0.88290  0.30223  1.0000
  C   C2        1.0  0.04853  0.11710  0.69777  1.0000
  C   C3        1.0  0.29979  0.16698  0.52724  1.0000
  C   C4        1.0  0.70021  0.83301  0.47277  1.0000
  C   C5        1.0  0.79930  0.32590  0.41437  1.0000
  C   C6        1.0  0.20070  0.67410  0.58563  1.0000
  C   C7        1.0  0.72574  0.28956  0.50297  1.0000
  C   C8        1.0  0.27427  0.71044  0.49702  1.0000
  C   C9        1.0  0.86551  0.58408  0.85814  1.0000
  C   C10       1.0  0.13449  0.41592  0.14186  1.0000
  C   C11       1.0  0.61172  0.05375  0.71145  1.0000
  C   C12       1.0  0.38828  0.94625  0.28856  1.0000
  C   C13       1.0  0.77078  0.53326  0.53491  1.0000
  C   C14       1.0  0.22922  0.46674  0.46508  1.0000
  C   C15       1.0  0.57688  0.64772  0.70023  1.0000
  C   C16       1.0  0.42313  0.35229  0.29978  1.0000
  C   C17       1.0  0.02113  0.65893  0.91758  1.0000
  C   C18       1.0  0.97887  0.34107  0.08241  1.0000
  C   C19       1.0  0.83802  0.56302  0.44446  1.0000
  C   C20       1.0  0.16197  0.43698  0.55553  1.0000
  C   C21       1.0  0.93895  0.40880  0.79335  1.0000
  C   C22       1.0  0.06105  0.59120  0.20666  1.0000
  C   C23       1.0  0.09043  0.48298  0.85772  1.0000
  C   C24       1.0  0.90957  0.51703  0.14228  1.0000
  C   C25       1.0  0.49462  0.23090  0.91431  1.0000
  C   C26       1.0  0.50537  0.76909  0.08569  1.0000
  C   C27       1.0  0.43880  0.26248  0.01366  1.0000
  C   C28       1.0  0.56120  0.73752  0.98634  1.0000
  I   I1        1.0  0.83025  0.16249  0.32454  1.0000
  I   I2        1.0  0.16974  0.83751  0.67546  1.0000
  I   I3        1.0  0.08478  0.86576  0.00330  1.0000
  I   I4        1.0  0.91523  0.13425  0.99670  1.0000
  N   N1        1.0  0.82605  0.45926  0.79381  1.0000
  N   N2        1.0  0.17397  0.54075  0.20620  1.0000
  N   N3        1.0  0.84467  0.79802  0.23761  1.0000
  N   N4        1.0  0.15533  0.20199  0.76239  1.0000
  N   N5        1.0  0.40964  0.24699  0.59209  1.0000
  N   N6        1.0  0.59036  0.75301  0.40791  1.0000
  N   N7        1.0  0.71285  0.39561  0.56457  1.0000
  N   N8        1.0  0.28715  0.60439  0.43543  1.0000
  N   N9        1.0  0.85462  0.46003  0.38415  1.0000
  N   N10       1.0  0.14538  0.53997  0.61584  1.0000
  N   N11       1.0  0.13268  0.60954  0.91950  1.0000
  N   N12       1.0  0.86732  0.39046  0.08050  1.0000
  N   N13       1.0  0.57950  0.53197  0.69035  1.0000
  N   N14       1.0  0.42051  0.46803  0.30965  1.0000
  N   N15       1.0  0.61797  0.17207  0.70336  1.0000
  N   N16       1.0  0.38203  0.82793  0.29665  1.0000
  O   O1        1.0  0.47831  0.32673  0.83535  1.0000
  O   O2        1.0  0.52168  0.67326  0.16466  1.0000
