data_image0
_chemical_formula_structural       Sn6P4H24C12N2O16
_chemical_formula_sum              "Sn6 P4 H24 C12 N2 O16"
_cell_length_a       6.73586
_cell_length_b       10.7072
_cell_length_c       11.2798
_cell_angle_alpha    86.8855
_cell_angle_beta     82.4265
_cell_angle_gamma    72.553

_space_group_name_H-M_alt    "P 1"
_space_group_IT_number       1

loop_
  _space_group_symop_operation_xyz
  'x, y, z'

loop_
  _atom_site_type_symbol
  _atom_site_label
  _atom_site_symmetry_multiplicity
  _atom_site_fract_x
  _atom_site_fract_y
  _atom_site_fract_z
  _atom_site_occupancy
  Sn  Sn1       1.0  0.91645  0.81332  0.32762  1.0000
  Sn  Sn2       1.0  0.08359  0.18666  0.67238  1.0000
  Sn  Sn3       1.0  0.66545  0.91900  0.62348  1.0000
  Sn  Sn4       1.0  0.33457  0.08103  0.37651  1.0000
  Sn  Sn5       1.0  0.67733  0.60090  0.53004  1.0000
  Sn  Sn6       1.0  0.32268  0.39911  0.46995  1.0000
  P   P1        1.0  0.20660  0.83476  0.54865  1.0000
  P   P2        1.0  0.79342  0.16524  0.45135  1.0000
  P   P3        1.0  0.90337  0.50675  0.77165  1.0000
  P   P4        1.0  0.09662  0.49324  0.22837  1.0000
  H   H1        1.0  0.04440  0.75575  0.76510  1.0000
  H   H2        1.0  0.95560  0.24426  0.23490  1.0000
  H   H3        1.0  0.24553  0.54508  0.72979  1.0000
  H   H4        1.0  0.75448  0.45491  0.27021  1.0000
  H   H5        1.0  0.19480  0.49718  0.88299  1.0000
  H   H6        1.0  0.80519  0.50283  0.11702  1.0000
  H   H7        1.0  0.75898  0.71801  0.90540  1.0000
  H   H8        1.0  0.24101  0.28199  0.09460  1.0000
  H   H9        1.0  0.93533  0.68173  0.01677  1.0000
  H   H10       1.0  0.06467  0.31827  0.98323  1.0000
  H   H11       1.0  0.36139  0.88134  0.93572  1.0000
  H   H12       1.0  0.63860  0.11866  0.06428  1.0000
  H   H13       1.0  0.20344  0.92109  0.81821  1.0000
  H   H14       1.0  0.79656  0.07891  0.18178  1.0000
  H   H15       1.0  0.05966  0.88014  0.08275  1.0000
  H   H16       1.0  0.94035  0.11986  0.91725  1.0000
  H   H17       1.0  0.78405  0.94368  0.87940  1.0000
  H   H18       1.0  0.21594  0.05632  0.12061  1.0000
  H   H19       1.0  0.70771  0.91205  0.03121  1.0000
  H   H20       1.0  0.29229  0.08795  0.96880  1.0000
  H   H21       1.0  0.29066  0.66434  0.96854  1.0000
  H   H22       1.0  0.70933  0.33567  0.03146  1.0000
  H   H23       1.0  0.39778  0.68538  0.81717  1.0000
  H   H24       1.0  0.60223  0.31462  0.18282  1.0000
  C   C1        1.0  0.12680  0.55819  0.80837  1.0000
  C   C2        1.0  0.87321  0.44182  0.19163  1.0000
  C   C3        1.0  0.89074  0.74143  0.93677  1.0000
  C   C4        1.0  0.10925  0.25857  0.06322  1.0000
  C   C5        1.0  0.22120  0.86813  0.90457  1.0000
  C   C6        1.0  0.77879  0.13187  0.09543  1.0000
  C   C7        1.0  0.02617  0.92538  0.99422  1.0000
  C   C8        1.0  0.97379  0.07463  0.00579  1.0000
  C   C9        1.0  0.83993  0.88698  0.95949  1.0000
  C   C10       1.0  0.16006  0.11301  0.04050  1.0000
  C   C11       1.0  0.26435  0.72256  0.88566  1.0000
  C   C12       1.0  0.73564  0.27743  0.11433  1.0000
  N   N1        1.0  0.07644  0.69797  0.84291  1.0000
  N   N2        1.0  0.92356  0.30203  0.15709  1.0000
  O   O1        1.0  0.17875  0.79714  0.42286  1.0000
  O   O2        1.0  0.82126  0.20285  0.57715  1.0000
  O   O3        1.0  0.76568  0.62712  0.70467  1.0000
  O   O4        1.0  0.23433  0.37289  0.29533  1.0000
  O   O5        1.0  0.37132  0.72379  0.60628  1.0000
  O   O6        1.0  0.62869  0.27620  0.39373  1.0000
  O   O7        1.0  0.73321  0.78236  0.48580  1.0000
  O   O8        1.0  0.26678  0.21764  0.51420  1.0000
  O   O9        1.0  0.27826  0.96222  0.53642  1.0000
  O   O10       1.0  0.72172  0.03779  0.46358  1.0000
  O   O11       1.0  0.00328  0.86312  0.63919  1.0000
  O   O12       1.0  0.99675  0.13688  0.36083  1.0000
  O   O13       1.0  0.01109  0.39920  0.67586  1.0000
  O   O14       1.0  0.98892  0.60079  0.32413  1.0000
  O   O15       1.0  0.79524  0.46244  0.88339  1.0000
  O   O16       1.0  0.20477  0.53756  0.11661  1.0000
