data_image0
_chemical_formula_structural       Co4P4H48C24N4Cl4O12
_chemical_formula_sum              "Co4 P4 H48 C24 N4 Cl4 O12"
_cell_length_a       9.51267
_cell_length_b       10.1465
_cell_length_c       10.1561
_cell_angle_alpha    90.4308
_cell_angle_beta     90.0001
_cell_angle_gamma    89.9997

_space_group_name_H-M_alt    "P 1"
_space_group_IT_number       1

loop_
  _space_group_symop_operation_xyz
  'x, y, z'

loop_
  _atom_site_type_symbol
  _atom_site_label
  _atom_site_symmetry_multiplicity
  _atom_site_fract_x
  _atom_site_fract_y
  _atom_site_fract_z
  _atom_site_occupancy
  Co  Co1       1.0  0.89153  0.11497  0.63509  1.0000
  Co  Co2       1.0  0.39154  0.88503  0.86491  1.0000
  Co  Co3       1.0  0.10847  0.88503  0.36491  1.0000
  Co  Co4       1.0  0.60846  0.11497  0.13509  1.0000
  P   P1        1.0  0.70579  0.98733  0.86309  1.0000
  P   P2        1.0  0.20580  0.01266  0.63693  1.0000
  P   P3        1.0  0.29421  0.01266  0.13691  1.0000
  P   P4        1.0  0.79421  0.98734  0.36308  1.0000
  H   H1        1.0  0.73122  0.74898  0.86738  1.0000
  H   H2        1.0  0.23122  0.25102  0.63262  1.0000
  H   H3        1.0  0.26878  0.25102  0.13262  1.0000
  H   H4        1.0  0.76878  0.74898  0.36738  1.0000
  H   H5        1.0  0.76927  0.81730  0.71029  1.0000
  H   H6        1.0  0.26928  0.18270  0.78971  1.0000
  H   H7        1.0  0.23072  0.18270  0.28970  1.0000
  H   H8        1.0  0.73072  0.81730  0.21029  1.0000
  H   H9        1.0  0.02394  0.49919  0.76354  1.0000
  H   H10       1.0  0.52393  0.50080  0.73645  1.0000
  H   H11       1.0  0.97606  0.50081  0.23646  1.0000
  H   H12       1.0  0.47606  0.49920  0.26355  1.0000
  H   H13       1.0  0.85848  0.55310  0.81658  1.0000
  H   H14       1.0  0.35848  0.44690  0.68342  1.0000
  H   H15       1.0  0.14152  0.44690  0.18342  1.0000
  H   H16       1.0  0.64152  0.55311  0.31658  1.0000
  H   H17       1.0  0.13314  0.58039  0.97309  1.0000
  H   H18       1.0  0.63314  0.41961  0.52691  1.0000
  H   H19       1.0  0.86686  0.41961  0.02691  1.0000
  H   H20       1.0  0.36686  0.58039  0.47309  1.0000
  H   H21       1.0  0.98742  0.90469  0.79851  1.0000
  H   H22       1.0  0.48742  0.09531  0.70149  1.0000
  H   H23       1.0  0.01258  0.09531  0.20149  1.0000
  H   H24       1.0  0.51258  0.90469  0.29851  1.0000
  H   H25       1.0  0.83532  0.66620  0.05091  1.0000
  H   H26       1.0  0.33531  0.33380  0.44909  1.0000
  H   H27       1.0  0.16469  0.33380  0.94909  1.0000
  H   H28       1.0  0.66468  0.66620  0.55091  1.0000
  H   H29       1.0  0.98887  0.68804  0.14660  1.0000
  H   H30       1.0  0.48886  0.31196  0.35340  1.0000
  H   H31       1.0  0.01114  0.31196  0.85340  1.0000
  H   H32       1.0  0.51114  0.68804  0.64660  1.0000
  H   H33       1.0  0.12120  0.72483  0.76854  1.0000
  H   H34       1.0  0.62120  0.27517  0.73146  1.0000
  H   H35       1.0  0.87880  0.27517  0.23146  1.0000
  H   H36       1.0  0.37880  0.72483  0.26854  1.0000
  H   H37       1.0  0.97405  0.71432  0.66233  1.0000
  H   H38       1.0  0.47405  0.28567  0.83767  1.0000
  H   H39       1.0  0.02595  0.28567  0.33767  1.0000
  H   H40       1.0  0.52595  0.71433  0.16233  1.0000
  H   H41       1.0  0.92803  0.89511  0.03411  1.0000
  H   H42       1.0  0.42803  0.10490  0.46589  1.0000
  H   H43       1.0  0.07197  0.10490  0.96589  1.0000
  H   H44       1.0  0.57197  0.89511  0.53411  1.0000
  H   H45       1.0  0.09581  0.83394  0.98595  1.0000
  H   H46       1.0  0.59581  0.16606  0.51405  1.0000
  H   H47       1.0  0.90419  0.16606  0.01404  1.0000
  H   H48       1.0  0.40419  0.83394  0.48595  1.0000
  C   C1        1.0  0.78626  0.82892  0.81666  1.0000
  C   C2        1.0  0.28626  0.17108  0.68334  1.0000
  C   C3        1.0  0.21374  0.17108  0.18334  1.0000
  C   C4        1.0  0.71374  0.82892  0.31666  1.0000
  C   C5        1.0  0.97193  0.57416  0.82484  1.0000
  C   C6        1.0  0.47192  0.42584  0.67515  1.0000
  C   C7        1.0  0.02807  0.42584  0.17516  1.0000
  C   C8        1.0  0.52808  0.57416  0.32485  1.0000
  C   C9        1.0  0.01775  0.56686  0.96930  1.0000
  C   C10       1.0  0.51775  0.43314  0.53070  1.0000
  C   C11       1.0  0.98225  0.43314  0.03070  1.0000
  C   C12       1.0  0.48225  0.56686  0.46930  1.0000
  C   C13       1.0  0.94996  0.68212  0.04487  1.0000
  C   C14       1.0  0.44996  0.31788  0.45513  1.0000
  C   C15       1.0  0.05004  0.31788  0.95513  1.0000
  C   C16       1.0  0.55004  0.68212  0.54487  1.0000
  C   C17       1.0  0.00738  0.70640  0.76533  1.0000
  C   C18       1.0  0.50738  0.29359  0.73467  1.0000
  C   C19       1.0  0.99262  0.29359  0.23467  1.0000
  C   C20       1.0  0.49262  0.70641  0.26533  1.0000
  C   C21       1.0  0.98250  0.81455  0.98294  1.0000
  C   C22       1.0  0.48250  0.18546  0.51706  1.0000
  C   C23       1.0  0.01750  0.18545  0.01706  1.0000
  C   C24       1.0  0.51750  0.81455  0.48294  1.0000
  N   N1        1.0  0.94119  0.81983  0.83997  1.0000
  N   N2        1.0  0.44119  0.18017  0.66003  1.0000
  N   N3        1.0  0.05881  0.18017  0.16003  1.0000
  N   N4        1.0  0.55881  0.81983  0.33997  1.0000
  Cl  Cl1       1.0  0.92695  0.32032  0.57690  1.0000
  Cl  Cl2       1.0  0.42695  0.67968  0.92310  1.0000
  Cl  Cl3       1.0  0.07305  0.67968  0.42310  1.0000
  Cl  Cl4       1.0  0.57305  0.32032  0.07690  1.0000
  O   O1        1.0  0.79114  0.09952  0.80349  1.0000
  O   O2        1.0  0.29114  0.90048  0.69651  1.0000
  O   O3        1.0  0.20885  0.90048  0.19651  1.0000
  O   O4        1.0  0.70886  0.09951  0.30349  1.0000
  O   O5        1.0  0.70280  0.99323  0.01418  1.0000
  O   O6        1.0  0.20280  0.00676  0.48582  1.0000
  O   O7        1.0  0.29720  0.00676  0.98582  1.0000
  O   O8        1.0  0.79721  0.99324  0.51418  1.0000
  O   O9        1.0  0.55838  0.97833  0.79902  1.0000
  O   O10       1.0  0.05838  0.02167  0.70099  1.0000
  O   O11       1.0  0.44162  0.02167  0.20098  1.0000
  O   O12       1.0  0.94162  0.97833  0.29902  1.0000
