data_image0
_chemical_formula_structural       Cu2P6H38C28N2O20
_chemical_formula_sum              "Cu2 P6 H38 C28 N2 O20"
_cell_length_a       9.6897
_cell_length_b       9.83714
_cell_length_c       10.331
_cell_angle_alpha    81.3725
_cell_angle_beta     71.4223
_cell_angle_gamma    87.8005

_space_group_name_H-M_alt    "P 1"
_space_group_IT_number       1

loop_
  _space_group_symop_operation_xyz
  'x, y, z'

loop_
  _atom_site_type_symbol
  _atom_site_label
  _atom_site_symmetry_multiplicity
  _atom_site_fract_x
  _atom_site_fract_y
  _atom_site_fract_z
  _atom_site_occupancy
  Cu  Cu1       1.0  0.27003  0.84006  0.01798  1.0000
  Cu  Cu2       1.0  0.72997  0.15994  0.98202  1.0000
  P   P1        1.0  0.33660  0.01181  0.69129  1.0000
  P   P2        1.0  0.66340  0.98820  0.30872  1.0000
  P   P3        1.0  0.14548  0.14096  0.08493  1.0000
  P   P4        1.0  0.85452  0.85903  0.91507  1.0000
  P   P5        1.0  0.67821  0.41261  0.17284  1.0000
  P   P6        1.0  0.32178  0.58740  0.82716  1.0000
  H   H1        1.0  0.22769  0.37265  0.92979  1.0000
  H   H2        1.0  0.77232  0.62735  0.07020  1.0000
  H   H3        1.0  0.92177  0.08734  0.08927  1.0000
  H   H4        1.0  0.07824  0.91267  0.91072  1.0000
  H   H5        1.0  0.56515  0.06662  0.56683  1.0000
  H   H6        1.0  0.43485  0.93338  0.43317  1.0000
  H   H7        1.0  0.30780  0.40115  0.13890  1.0000
  H   H8        1.0  0.69220  0.59885  0.86110  1.0000
  H   H9        1.0  0.90628  0.48389  0.31591  1.0000
  H   H10       1.0  0.09373  0.51610  0.68408  1.0000
  H   H11       1.0  0.02585  0.31568  0.20724  1.0000
  H   H12       1.0  0.97415  0.68432  0.79276  1.0000
  H   H13       1.0  0.98728  0.15455  0.31319  1.0000
  H   H14       1.0  0.01271  0.84545  0.68681  1.0000
  H   H15       1.0  0.11722  0.13248  0.71099  1.0000
  H   H16       1.0  0.88277  0.86752  0.28901  1.0000
  H   H17       1.0  0.25460  0.23663  0.72449  1.0000
  H   H18       1.0  0.74539  0.76337  0.27551  1.0000
  H   H19       1.0  0.18442  0.64400  0.51573  1.0000
  H   H20       1.0  0.81559  0.35598  0.48426  1.0000
  H   H21       1.0  0.04062  0.63241  0.10282  1.0000
  H   H22       1.0  0.95938  0.36759  0.89717  1.0000
  H   H23       1.0  0.29945  0.79483  0.29448  1.0000
  H   H24       1.0  0.70055  0.20518  0.70552  1.0000
  H   H25       1.0  0.69340  0.23460  0.33789  1.0000
  H   H26       1.0  0.30659  0.76540  0.66212  1.0000
  H   H27       1.0  0.51754  0.56271  0.31353  1.0000
  H   H28       1.0  0.48245  0.43729  0.68647  1.0000
  H   H29       1.0  0.48174  0.56074  0.15568  1.0000
  H   H30       1.0  0.51825  0.43926  0.84433  1.0000
  H   H31       1.0  0.08391  0.11237  0.49395  1.0000
  H   H32       1.0  0.91609  0.88762  0.50605  1.0000
  H   H33       1.0  0.43583  0.35871  0.50502  1.0000
  H   H34       1.0  0.56417  0.64129  0.49499  1.0000
  H   H35       1.0  0.47427  0.93826  0.11393  1.0000
  H   H36       1.0  0.52573  0.06175  0.88606  1.0000
  H   H37       1.0  0.57106  0.81872  0.04845  1.0000
  H   H38       1.0  0.42894  0.18127  0.95156  1.0000
  C   C1        1.0  0.18541  0.25109  0.30785  1.0000
  C   C2        1.0  0.81459  0.74892  0.69215  1.0000
  C   C3        1.0  0.29546  0.35029  0.24331  1.0000
  C   C4        1.0  0.70454  0.64970  0.75669  1.0000
  C   C5        1.0  0.99439  0.54799  0.31765  1.0000
  C   C6        1.0  0.00562  0.45200  0.68234  1.0000
  C   C7        1.0  0.03557  0.54670  0.43612  1.0000
  C   C8        1.0  0.96444  0.45329  0.56388  1.0000
  C   C9        1.0  0.38638  0.38894  0.31306  1.0000
  C   C10       1.0  0.61362  0.61106  0.68694  1.0000
  C   C11       1.0  0.07618  0.22019  0.24032  1.0000
  C   C12       1.0  0.92381  0.77981  0.75968  1.0000
  C   C13       1.0  0.23207  0.16394  0.66248  1.0000
  C   C14       1.0  0.76792  0.83605  0.33752  1.0000
  C   C15       1.0  0.14717  0.63770  0.42793  1.0000
  C   C16       1.0  0.85283  0.36230  0.57206  1.0000
  C   C17       1.0  0.06788  0.63238  0.19710  1.0000
  C   C18       1.0  0.93212  0.36762  0.80290  1.0000
  C   C19       1.0  0.21284  0.72259  0.30517  1.0000
  C   C20       1.0  0.78716  0.27742  0.69483  1.0000
  C   C21       1.0  0.50470  0.49515  0.24236  1.0000
  C   C22       1.0  0.49530  0.50485  0.75764  1.0000
  C   C23       1.0  0.25915  0.22642  0.51478  1.0000
  C   C24       1.0  0.74085  0.77359  0.48522  1.0000
  C   C25       1.0  0.17079  0.18814  0.44212  1.0000
  C   C26       1.0  0.82920  0.81186  0.55789  1.0000
  C   C27       1.0  0.36693  0.32696  0.44915  1.0000
  C   C28       1.0  0.63306  0.67304  0.55085  1.0000
  N   N1        1.0  0.17507  0.71788  0.19145  1.0000
  N   N2        1.0  0.82492  0.28212  0.80855  1.0000
  O   O1        1.0  0.19681  0.99714  0.12347  1.0000
  O   O2        1.0  0.80319  0.00286  0.87654  1.0000
  O   O3        1.0  0.25855  0.23695  0.97505  1.0000
  O   O4        1.0  0.74146  0.76305  0.02495  1.0000
  O   O5        1.0  0.33501  0.91116  0.59137  1.0000
  O   O6        1.0  0.66499  0.08884  0.40864  1.0000
  O   O7        1.0  0.00988  0.14123  0.02866  1.0000
  O   O8        1.0  0.99013  0.85877  0.97133  1.0000
  O   O9        1.0  0.26612  0.95532  0.84345  1.0000
  O   O10       1.0  0.73389  0.04469  0.15656  1.0000
  O   O11       1.0  0.49871  0.05923  0.66695  1.0000
  O   O12       1.0  0.50129  0.94078  0.33305  1.0000
  O   O13       1.0  0.72547  0.33586  0.29697  1.0000
  O   O14       1.0  0.27452  0.66414  0.70303  1.0000
  O   O15       1.0  0.65779  0.32172  0.07480  1.0000
  O   O16       1.0  0.34221  0.67828  0.92521  1.0000
  O   O17       1.0  0.79911  0.52571  0.10767  1.0000
  O   O18       1.0  0.20089  0.47429  0.89232  1.0000
  O   O19       1.0  0.47193  0.85883  0.06861  1.0000
  O   O20       1.0  0.52807  0.14116  0.93140  1.0000
