data_image0
_chemical_formula_structural       Cu2P6H38C28N2O20
_chemical_formula_sum              "Cu2 P6 H38 C28 N2 O20"
_cell_length_a       9.69776
_cell_length_b       9.82467
_cell_length_c       10.1875
_cell_angle_alpha    80.3846
_cell_angle_beta     74.4374
_cell_angle_gamma    87.5142

_space_group_name_H-M_alt    "P 1"
_space_group_IT_number       1

loop_
  _space_group_symop_operation_xyz
  'x, y, z'

loop_
  _atom_site_type_symbol
  _atom_site_label
  _atom_site_symmetry_multiplicity
  _atom_site_fract_x
  _atom_site_fract_y
  _atom_site_fract_z
  _atom_site_occupancy
  Cu  Cu1       1.0  0.79425  0.35257  0.71236  1.0000
  Cu  Cu2       1.0  0.27781  0.67561  0.67809  1.0000
  P   P1        1.0  0.86133  0.10537  0.52129  1.0000
  P   P2        1.0  0.18204  0.49620  0.00386  1.0000
  P   P3        1.0  0.87804  0.53235  0.38535  1.0000
  P   P4        1.0  0.20682  0.92499  0.86504  1.0000
  P   P5        1.0  0.37765  0.37803  0.62074  1.0000
  P   P6        1.0  0.67172  0.64530  0.76834  1.0000
  H   H1        1.0  0.09837  0.59212  0.25063  1.0000
  H   H2        1.0  0.22119  0.74224  0.03145  1.0000
  H   H3        1.0  0.90651  0.69692  0.64545  1.0000
  H   H4        1.0  0.84109  0.28814  0.35673  1.0000
  H   H5        1.0  0.96309  0.43542  0.13926  1.0000
  H   H6        1.0  0.77185  0.88990  0.61674  1.0000
  H   H7        1.0  0.52571  0.49608  0.69070  1.0000
  H   H8        1.0  0.29389  0.14550  0.76798  1.0000
  H   H9        1.0  0.44124  0.99365  0.00328  1.0000
  H   H10       1.0  0.61729  0.04160  0.38651  1.0000
  H   H11       1.0  0.04756  0.07200  0.99998  1.0000
  H   H12       1.0  0.00866  0.06968  0.83967  1.0000
  H   H13       1.0  0.54074  0.36328  0.40176  1.0000
  H   H14       1.0  0.50607  0.20179  0.51028  1.0000
  H   H15       1.0  0.57084  0.14135  0.79073  1.0000
  H   H16       1.0  0.83600  0.91422  0.82008  1.0000
  H   H17       1.0  0.22755  0.11525  0.56414  1.0000
  H   H18       1.0  0.96843  0.86634  0.19509  1.0000
  H   H19       1.0  0.48979  0.89232  0.59951  1.0000
  H   H20       1.0  0.09799  0.15920  0.18737  1.0000
  H   H21       1.0  0.56085  0.83300  0.87182  1.0000
  H   H22       1.0  0.51637  0.67571  0.98507  1.0000
  H   H23       1.0  0.05768  0.95555  0.54206  1.0000
  H   H24       1.0  0.01456  0.95734  0.38254  1.0000
  H   H25       1.0  0.61418  0.62934  0.17490  1.0000
  H   H26       1.0  0.36119  0.85785  0.17188  1.0000
  H   H27       1.0  0.71486  0.15800  0.21409  1.0000
  H   H28       1.0  0.65369  0.64032  0.39534  1.0000
  H   H29       1.0  0.78047  0.75402  0.41303  1.0000
  H   H30       1.0  0.82148  0.30997  0.99501  1.0000
  H   H31       1.0  0.25784  0.70421  0.39191  1.0000
  H   H32       1.0  0.28223  0.27724  0.96915  1.0000
  H   H33       1.0  0.40851  0.39094  0.98855  1.0000
  H   H34       1.0  0.44959  0.39913  0.20860  1.0000
  H   H35       1.0  0.05567  0.62221  0.52071  1.0000
  H   H36       1.0  0.99829  0.42113  0.86100  1.0000
  H   H37       1.0  0.10382  0.34743  0.74822  1.0000
  H   H38       1.0  0.02986  0.54653  0.67525  1.0000
  C   C1        1.0  0.71446  0.76609  0.98788  1.0000
  C   C2        1.0  0.34958  0.26227  0.39556  1.0000
  C   C3        1.0  0.91706  0.89877  0.99850  1.0000
  C   C4        1.0  0.52742  0.05838  0.00769  1.0000
  C   C5        1.0  0.53544  0.97206  0.38145  1.0000
  C   C6        1.0  0.03367  0.00393  0.92896  1.0000
  C   C7        1.0  0.45448  0.29607  0.47075  1.0000
  C   C8        1.0  0.14898  0.12759  0.38429  1.0000
  C   C9        1.0  0.59843  0.14250  0.88711  1.0000
  C   C10       1.0  0.78963  0.73982  0.20094  1.0000
  C   C11       1.0  0.82445  0.86280  0.92572  1.0000
  C   C12       1.0  0.24036  0.16475  0.45771  1.0000
  C   C13       1.0  0.49884  0.96676  0.25844  1.0000
  C   C14       1.0  0.89820  0.83720  0.13663  1.0000
  C   C15       1.0  0.56798  0.05875  0.12964  1.0000
  C   C16       1.0  0.46577  0.88756  0.50214  1.0000
  C   C17       1.0  0.27540  0.28715  0.18206  1.0000
  C   C18       1.0  0.16775  0.18878  0.24608  1.0000
  C   C19       1.0  0.60673  0.73640  0.91404  1.0000
  C   C20       1.0  0.03164  0.02310  0.45427  1.0000
  C   C21       1.0  0.70047  0.70361  0.12453  1.0000
  C   C22       1.0  0.39481  0.86975  0.26304  1.0000
  C   C23       1.0  0.67719  0.15047  0.12409  1.0000
  C   C24       1.0  0.76421  0.67796  0.35076  1.0000
  C   C25       1.0  0.73977  0.23515  0.00113  1.0000
  C   C26       1.0  0.33370  0.78465  0.38628  1.0000
  C   C27       1.0  0.29867  0.35140  0.03329  1.0000
  C   C28       1.0  0.36406  0.32400  0.25866  1.0000
  N   N1        1.0  0.36672  0.79529  0.50425  1.0000
  N   N2        1.0  0.70288  0.22937  0.88400  1.0000
  O   O1        1.0  0.31885  0.51881  0.57288  1.0000
  O   O2        1.0  0.26354  0.27836  0.72121  1.0000
  O   O3        1.0  0.73412  0.50733  0.81934  1.0000
  O   O4        1.0  0.03654  0.59330  0.35061  1.0000
  O   O5        1.0  0.18585  0.59924  0.10142  1.0000
  O   O6        1.0  0.25494  0.84393  0.99210  1.0000
  O   O7        1.0  0.83102  0.47778  0.53735  1.0000
  O   O8        1.0  0.87982  0.19185  0.62481  1.0000
  O   O9        1.0  0.87496  0.42803  0.28898  1.0000
  O   O10       1.0  0.19219  0.83801  0.76016  1.0000
  O   O11       1.0  0.79746  0.74293  0.66641  1.0000
  O   O12       1.0  0.80876  0.18514  0.39708  1.0000
  O   O13       1.0  0.22489  0.55271  0.85225  1.0000
  O   O14       1.0  0.02430  0.43375  0.03979  1.0000
  O   O15       1.0  0.55119  0.63752  0.70042  1.0000
  O   O16       1.0  0.74374  0.98986  0.58218  1.0000
  O   O17       1.0  0.50529  0.39222  0.68566  1.0000
  O   O18       1.0  0.32184  0.04130  0.80784  1.0000
  O   O19       1.0  0.03743  0.64237  0.61569  1.0000
  O   O20       1.0  0.01001  0.39787  0.76845  1.0000
