data_image0
_chemical_formula_structural       Cu2P6H38C28N2O20
_chemical_formula_sum              "Cu2 P6 H38 C28 N2 O20"
_cell_length_a       9.5496
_cell_length_b       9.97271
_cell_length_c       10.1661
_cell_angle_alpha    80.4384
_cell_angle_beta     72.8942
_cell_angle_gamma    88.8385

_space_group_name_H-M_alt    "P 1"
_space_group_IT_number       1

loop_
  _space_group_symop_operation_xyz
  'x, y, z'

loop_
  _atom_site_type_symbol
  _atom_site_label
  _atom_site_symmetry_multiplicity
  _atom_site_fract_x
  _atom_site_fract_y
  _atom_site_fract_z
  _atom_site_occupancy
  Cu  Cu1       1.0  0.27414  0.63983  0.48590  1.0000
  Cu  Cu2       1.0  0.72586  0.36017  0.51410  1.0000
  P   P1        1.0  0.81517  0.10588  0.33634  1.0000
  P   P2        1.0  0.18483  0.89413  0.66366  1.0000
  P   P3        1.0  0.11870  0.46993  0.79822  1.0000
  P   P4        1.0  0.88129  0.53007  0.20178  1.0000
  P   P5        1.0  0.40197  0.35954  0.38789  1.0000
  P   P6        1.0  0.59803  0.64046  0.61210  1.0000
  H   H1        1.0  0.80151  0.28163  0.17715  1.0000
  H   H2        1.0  0.19849  0.71837  0.82286  1.0000
  H   H3        1.0  0.17518  0.27687  0.51440  1.0000
  H   H4        1.0  0.82483  0.72312  0.48560  1.0000
  H   H5        1.0  0.91198  0.41958  0.96966  1.0000
  H   H6        1.0  0.08801  0.58042  0.03034  1.0000
  H   H7        1.0  0.70305  0.89879  0.44883  1.0000
  H   H8        1.0  0.29695  0.10121  0.55117  1.0000
  H   H9        1.0  0.95134  0.59214  0.42392  1.0000
  H   H10       1.0  0.04866  0.40786  0.57608  1.0000
  H   H11       1.0  0.00329  0.65765  0.53734  1.0000
  H   H12       1.0  0.99670  0.34233  0.46267  1.0000
  H   H13       1.0  0.60567  0.01901  0.18104  1.0000
  H   H14       1.0  0.39434  0.98099  0.81896  1.0000
  H   H15       1.0  0.52249  0.36444  0.14717  1.0000
  H   H16       1.0  0.47751  0.63556  0.85282  1.0000
  H   H17       1.0  0.50175  0.20038  0.24630  1.0000
  H   H18       1.0  0.49825  0.79962  0.75369  1.0000
  H   H19       1.0  0.03743  0.14202  0.99765  1.0000
  H   H20       1.0  0.96256  0.85798  0.00234  1.0000
  H   H21       1.0  0.20537  0.11371  0.34933  1.0000
  H   H22       1.0  0.79463  0.88629  0.65067  1.0000
  H   H23       1.0  0.30908  0.85242  0.99324  1.0000
  H   H24       1.0  0.69092  0.14758  0.00676  1.0000
  H   H25       1.0  0.48973  0.85792  0.39657  1.0000
  H   H26       1.0  0.51028  0.14208  0.60343  1.0000
  H   H27       1.0  0.41124  0.39029  0.97091  1.0000
  H   H28       1.0  0.58876  0.60971  0.02909  1.0000
  H   H29       1.0  0.21660  0.68982  0.21322  1.0000
  H   H30       1.0  0.78340  0.31019  0.78679  1.0000
  H   H31       1.0  0.01369  0.95801  0.35810  1.0000
  H   H32       1.0  0.98631  0.04200  0.64190  1.0000
  H   H33       1.0  0.96101  0.94808  0.20668  1.0000
  H   H34       1.0  0.03898  0.05192  0.79332  1.0000
  H   H35       1.0  0.21357  0.25169  0.76292  1.0000
  H   H36       1.0  0.78642  0.74832  0.23707  1.0000
  H   H37       1.0  0.35074  0.36926  0.76004  1.0000
  H   H38       1.0  0.64925  0.63075  0.23996  1.0000
  C   C1        1.0  0.31986  0.25934  0.16847  1.0000
  C   C2        1.0  0.68014  0.74066  0.83153  1.0000
  C   C3        1.0  0.51826  0.95055  0.18184  1.0000
  C   C4        1.0  0.48175  0.04945  0.81815  1.0000
  C   C5        1.0  0.44157  0.29273  0.22496  1.0000
  C   C6        1.0  0.55843  0.70727  0.77504  1.0000
  C   C7        1.0  0.11616  0.17539  0.04555  1.0000
  C   C8        1.0  0.88383  0.82461  0.95445  1.0000
  C   C9        1.0  0.20914  0.16179  0.24391  1.0000
  C   C10       1.0  0.79085  0.83821  0.75609  1.0000
  C   C11       1.0  0.10612  0.12045  0.18435  1.0000
  C   C12       1.0  0.89388  0.87955  0.81564  1.0000
  C   C13       1.0  0.22553  0.27302  0.96788  1.0000
  C   C14       1.0  0.77447  0.72698  0.03212  1.0000
  C   C15       1.0  0.35508  0.85785  0.07832  1.0000
  C   C16       1.0  0.64492  0.14215  0.92168  1.0000
  C   C17       1.0  0.46795  0.95195  0.06529  1.0000
  C   C18       1.0  0.53206  0.04806  0.93471  1.0000
  C   C19       1.0  0.45601  0.85965  0.30329  1.0000
  C   C20       1.0  0.54400  0.14035  0.69671  1.0000
  C   C21       1.0  0.32429  0.31583  0.03160  1.0000
  C   C22       1.0  0.67571  0.68417  0.96840  1.0000
  C   C23       1.0  0.30104  0.76644  0.20157  1.0000
  C   C24       1.0  0.69896  0.23357  0.79842  1.0000
  C   C25       1.0  0.98479  0.01923  0.26989  1.0000
  C   C26       1.0  0.01521  0.98077  0.73011  1.0000
  C   C27       1.0  0.23898  0.32978  0.81757  1.0000
  C   C28       1.0  0.76102  0.67022  0.18243  1.0000
  N   N1        1.0  0.35120  0.76834  0.31186  1.0000
  N   N2        1.0  0.64881  0.23166  0.68813  1.0000
  O   O1        1.0  0.77037  0.17820  0.20602  1.0000
  O   O2        1.0  0.22962  0.82180  0.79399  1.0000
  O   O3        1.0  0.15298  0.57852  0.87546  1.0000
  O   O4        1.0  0.84701  0.42148  0.12454  1.0000
  O   O5        1.0  0.32147  0.49264  0.37186  1.0000
  O   O6        1.0  0.67853  0.50736  0.62814  1.0000
  O   O7        1.0  0.83804  0.20136  0.42948  1.0000
  O   O8        1.0  0.16196  0.79865  0.57052  1.0000
  O   O9        1.0  0.28518  0.24855  0.50014  1.0000
  O   O10       1.0  0.71483  0.75145  0.49986  1.0000
  O   O11       1.0  0.95649  0.41134  0.86624  1.0000
  O   O12       1.0  0.04350  0.58866  0.13376  1.0000
  O   O13       1.0  0.68727  0.99782  0.40819  1.0000
  O   O14       1.0  0.31274  0.00219  0.59183  1.0000
  O   O15       1.0  0.54036  0.35716  0.42900  1.0000
  O   O16       1.0  0.45965  0.64284  0.57100  1.0000
  O   O17       1.0  0.13312  0.51705  0.64306  1.0000
  O   O18       1.0  0.86687  0.48295  0.35695  1.0000
  O   O19       1.0  0.97310  0.67876  0.45217  1.0000
  O   O20       1.0  0.02689  0.32123  0.54784  1.0000
