data_image0
_chemical_formula_structural       Bi2H18C10S2N2Cl2O4
_chemical_formula_sum              "Bi2 H18 C10 S2 N2 Cl2 O4"
_cell_length_a       6.57148
_cell_length_b       7.23758
_cell_length_c       10.1251
_cell_angle_alpha    89.9995
_cell_angle_beta     105.42
_cell_angle_gamma    90.0002

_space_group_name_H-M_alt    "P 1"
_space_group_IT_number       1

loop_
  _space_group_symop_operation_xyz
  'x, y, z'

loop_
  _atom_site_type_symbol
  _atom_site_label
  _atom_site_symmetry_multiplicity
  _atom_site_fract_x
  _atom_site_fract_y
  _atom_site_fract_z
  _atom_site_occupancy
  Bi  Bi1       1.0  0.40333  0.50135  0.05743  1.0000
  Bi  Bi2       1.0  0.59668  0.00134  0.94258  1.0000
  H   H1        1.0  0.29090  0.67577  0.28578  1.0000
  H   H2        1.0  0.70909  0.17577  0.71422  1.0000
  H   H3        1.0  0.09822  0.72872  0.14585  1.0000
  H   H4        1.0  0.90179  0.22872  0.85414  1.0000
  H   H5        1.0  0.95219  0.51005  0.27973  1.0000
  H   H6        1.0  0.04780  0.01005  0.72027  1.0000
  H   H7        1.0  0.03100  0.07346  0.23330  1.0000
  H   H8        1.0  0.96900  0.57346  0.76669  1.0000
  H   H9        1.0  0.19294  0.05021  0.40355  1.0000
  H   H10       1.0  0.80705  0.55022  0.59645  1.0000
  H   H11       1.0  0.95514  0.18190  0.37067  1.0000
  H   H12       1.0  0.04485  0.68191  0.62933  1.0000
  H   H13       1.0  0.40726  0.30292  0.52598  1.0000
  H   H14       1.0  0.59273  0.80292  0.47403  1.0000
  H   H15       1.0  0.41293  0.52393  0.45423  1.0000
  H   H16       1.0  0.58706  0.02393  0.54577  1.0000
  H   H17       1.0  0.18574  0.44910  0.50492  1.0000
  H   H18       1.0  0.81425  0.94910  0.49507  1.0000
  C   C1        1.0  0.94501  0.38919  0.08625  1.0000
  C   C2        1.0  0.05500  0.88919  0.91375  1.0000
  C   C3        1.0  0.06815  0.46575  0.22533  1.0000
  C   C4        1.0  0.93185  0.96576  0.77467  1.0000
  C   C5        1.0  0.21510  0.31989  0.31600  1.0000
  C   C6        1.0  0.78490  0.81990  0.68400  1.0000
  C   C7        1.0  0.09056  0.14573  0.33099  1.0000
  C   C8        1.0  0.90944  0.64573  0.66901  1.0000
  C   C9        1.0  0.31032  0.40533  0.45749  1.0000
  C   C10       1.0  0.68968  0.90534  0.54251  1.0000
  S   S1        1.0  0.43682  0.25283  0.24337  1.0000
  S   S2        1.0  0.56318  0.75284  0.75664  1.0000
  N   N1        1.0  0.19236  0.62300  0.19840  1.0000
  N   N2        1.0  0.80764  0.12300  0.80160  1.0000
  Cl  Cl1       1.0  0.66574  0.76275  0.20180  1.0000
  Cl  Cl2       1.0  0.33427  0.26275  0.79822  1.0000
  O   O1        1.0  0.03545  0.39593  0.98894  1.0000
  O   O2        1.0  0.96457  0.89592  0.01106  1.0000
  O   O3        1.0  0.76344  0.32047  0.07310  1.0000
  O   O4        1.0  0.23656  0.82048  0.92690  1.0000
