data_image0
_chemical_formula_structural       Cu2H28C26S2N6O12
_chemical_formula_sum              "Cu2 H28 C26 S2 N6 O12"
_cell_length_a       8.83635
_cell_length_b       8.79943
_cell_length_c       10.5533
_cell_angle_alpha    73.5279
_cell_angle_beta     83.6659
_cell_angle_gamma    77.0464

_space_group_name_H-M_alt    "P 1"
_space_group_IT_number       1

loop_
  _space_group_symop_operation_xyz
  'x, y, z'

loop_
  _atom_site_type_symbol
  _atom_site_label
  _atom_site_symmetry_multiplicity
  _atom_site_fract_x
  _atom_site_fract_y
  _atom_site_fract_z
  _atom_site_occupancy
  Cu  Cu1       1.0  0.12742  0.10441  0.16251  1.0000
  Cu  Cu2       1.0  0.87258  0.89559  0.83749  1.0000
  H   H1        1.0  0.32157  0.15263  0.34609  1.0000
  H   H2        1.0  0.67843  0.84737  0.65391  1.0000
  H   H3        1.0  0.42014  0.12397  0.21689  1.0000
  H   H4        1.0  0.57987  0.87602  0.78311  1.0000
  H   H5        1.0  0.55629  0.68054  0.98140  1.0000
  H   H6        1.0  0.44371  0.31946  0.01860  1.0000
  H   H7        1.0  0.63572  0.43025  0.16327  1.0000
  H   H8        1.0  0.36428  0.56974  0.83674  1.0000
  H   H9        1.0  0.47286  0.38458  0.37531  1.0000
  H   H10       1.0  0.52714  0.61542  0.62470  1.0000
  H   H11       1.0  0.24353  0.59484  0.40702  1.0000
  H   H12       1.0  0.75647  0.40516  0.59298  1.0000
  H   H13       1.0  0.67977  0.60130  0.40377  1.0000
  H   H14       1.0  0.32022  0.39870  0.59623  1.0000
  H   H15       1.0  0.88820  0.57126  0.37286  1.0000
  H   H16       1.0  0.11180  0.42874  0.62714  1.0000
  H   H17       1.0  0.76294  0.70156  0.24966  1.0000
  H   H18       1.0  0.23706  0.29844  0.75034  1.0000
  H   H19       1.0  0.75277  0.08070  0.54865  1.0000
  H   H20       1.0  0.24724  0.91930  0.45135  1.0000
  H   H21       1.0  0.63922  0.12516  0.41174  1.0000
  H   H22       1.0  0.36079  0.87484  0.58826  1.0000
  H   H23       1.0  0.75621  0.26528  0.42160  1.0000
  H   H24       1.0  0.24380  0.73472  0.57840  1.0000
  H   H25       1.0  0.00382  0.28169  0.90010  1.0000
  H   H26       1.0  0.99618  0.71831  0.09990  1.0000
  H   H27       1.0  0.10027  0.42456  0.21991  1.0000
  H   H28       1.0  0.89973  0.57544  0.78009  1.0000
  C   C1        1.0  0.35717  0.77549  0.09227  1.0000
  C   C2        1.0  0.64283  0.22451  0.90773  1.0000
  C   C3        1.0  0.48961  0.66071  0.07562  1.0000
  C   C4        1.0  0.51039  0.33929  0.92439  1.0000
  C   C5        1.0  0.53320  0.52062  0.17747  1.0000
  C   C6        1.0  0.46680  0.47938  0.82254  1.0000
  C   C7        1.0  0.44339  0.49526  0.29619  1.0000
  C   C8        1.0  0.55661  0.50474  0.70382  1.0000
  C   C9        1.0  0.31315  0.61122  0.31427  1.0000
  C   C10       1.0  0.68685  0.38879  0.68573  1.0000
  C   C11       1.0  0.26820  0.75292  0.21333  1.0000
  C   C12       1.0  0.73179  0.24708  0.78667  1.0000
  C   C13       1.0  0.89988  0.89300  0.36022  1.0000
  C   C14       1.0  0.10012  0.10701  0.63978  1.0000
  C   C15       1.0  0.77652  0.79962  0.41136  1.0000
  C   C16       1.0  0.22347  0.20038  0.58863  1.0000
  C   C17       1.0  0.77708  0.65856  0.35699  1.0000
  C   C18       1.0  0.22291  0.34144  0.64301  1.0000
  C   C19       1.0  0.88456  0.05703  0.36874  1.0000
  C   C20       1.0  0.11545  0.94297  0.63126  1.0000
  C   C21       1.0  0.74973  0.13768  0.44172  1.0000
  C   C22       1.0  0.25027  0.86231  0.55828  1.0000
  C   C23       1.0  0.00192  0.37988  0.94400  1.0000
  C   C24       1.0  0.99809  0.62011  0.05600  1.0000
  C   C25       1.0  0.05408  0.45931  0.12205  1.0000
  C   C26       1.0  0.94593  0.54069  0.87795  1.0000
  S   S1        1.0  0.28533  0.93651  0.95439  1.0000
  S   S2        1.0  0.71467  0.06349  0.04561  1.0000
  N   N1        1.0  0.13622  0.87076  0.23544  1.0000
  N   N2        1.0  0.86378  0.12924  0.76456  1.0000
  N   N3        1.0  0.02430  0.81048  0.30487  1.0000
  N   N4        1.0  0.97570  0.18951  0.69513  1.0000
  N   N5        1.0  0.05529  0.34028  0.06573  1.0000
  N   N6        1.0  0.94472  0.65972  0.93426  1.0000
  O   O1        1.0  0.26543  0.08710  0.99922  1.0000
  O   O2        1.0  0.73457  0.91290  0.00078  1.0000
  O   O3        1.0  0.13813  0.90409  0.93011  1.0000
  O   O4        1.0  0.86187  0.09590  0.06990  1.0000
  O   O5        1.0  0.39985  0.93997  0.84365  1.0000
  O   O6        1.0  0.60015  0.06002  0.15636  1.0000
  O   O7        1.0  0.67073  0.83607  0.49226  1.0000
  O   O8        1.0  0.32926  0.16394  0.50773  1.0000
  O   O9        1.0  0.98546  0.14083  0.31511  1.0000
  O   O10       1.0  0.01454  0.85916  0.68489  1.0000
  O   O11       1.0  0.31522  0.16721  0.25047  1.0000
  O   O12       1.0  0.68478  0.83278  0.74953  1.0000
