data_image0
_chemical_formula_structural       Na2H14C8N16O6
_chemical_formula_sum              "Na2 H14 C8 N16 O6"
_cell_length_a       6.66888
_cell_length_b       7.24979
_cell_length_c       10.6748
_cell_angle_alpha    108.843
_cell_angle_beta     98.6397
_cell_angle_gamma    103.702

_space_group_name_H-M_alt    "P 1"
_space_group_IT_number       1

loop_
  _space_group_symop_operation_xyz
  'x, y, z'

loop_
  _atom_site_type_symbol
  _atom_site_label
  _atom_site_symmetry_multiplicity
  _atom_site_fract_x
  _atom_site_fract_y
  _atom_site_fract_z
  _atom_site_occupancy
  Na  Na1       1.0  0.95137  0.30211  0.05896  1.0000
  Na  Na2       1.0  0.04862  0.69789  0.94104  1.0000
  H   H1        1.0  0.26649  0.74487  0.54011  1.0000
  H   H2        1.0  0.73351  0.25513  0.45989  1.0000
  H   H3        1.0  0.29343  0.53013  0.58278  1.0000
  H   H4        1.0  0.70657  0.46987  0.41721  1.0000
  H   H5        1.0  0.17958  0.80345  0.31139  1.0000
  H   H6        1.0  0.82042  0.19655  0.68861  1.0000
  H   H7        1.0  0.29758  0.43064  0.92414  1.0000
  H   H8        1.0  0.70242  0.56936  0.07586  1.0000
  H   H9        1.0  0.36631  0.55017  0.08412  1.0000
  H   H10       1.0  0.63369  0.44983  0.91588  1.0000
  H   H11       1.0  0.65065  0.05316  0.17304  1.0000
  H   H12       1.0  0.34935  0.94684  0.82696  1.0000
  H   H13       1.0  0.50990  0.13581  0.08728  1.0000
  H   H14       1.0  0.49009  0.86420  0.91273  1.0000
  C   C1        1.0  0.20220  0.48040  0.37750  1.0000
  C   C2        1.0  0.79780  0.51960  0.62251  1.0000
  C   C3        1.0  0.19092  0.26057  0.33337  1.0000
  C   C4        1.0  0.80908  0.73942  0.66663  1.0000
  C   C5        1.0  0.21864  0.13181  0.40425  1.0000
  C   C6        1.0  0.78136  0.86819  0.59575  1.0000
  C   C7        1.0  0.27447  0.16293  0.54732  1.0000
  C   C8        1.0  0.72553  0.83707  0.45268  1.0000
  N   N1        1.0  0.26172  0.59261  0.51029  1.0000
  N   N2        1.0  0.73828  0.40739  0.48971  1.0000
  N   N3        1.0  0.13976  0.14457  0.19701  1.0000
  N   N4        1.0  0.86024  0.85543  0.80299  1.0000
  N   N5        1.0  0.13374  0.95578  0.17999  1.0000
  N   N6        1.0  0.86626  0.04422  0.82001  1.0000
  N   N7        1.0  0.18054  0.94599  0.30419  1.0000
  N   N8        1.0  0.81946  0.05401  0.69581  1.0000
  N   N9        1.0  0.32247  0.34320  0.65231  1.0000
  N   N10       1.0  0.67753  0.65680  0.34769  1.0000
  N   N11       1.0  0.36468  0.30147  0.76472  1.0000
  N   N12       1.0  0.63532  0.69853  0.23528  1.0000
  N   N13       1.0  0.34264  0.10304  0.72935  1.0000
  N   N14       1.0  0.65736  0.89696  0.27065  1.0000
  N   N15       1.0  0.28659  0.01239  0.59380  1.0000
  N   N16       1.0  0.71342  0.98762  0.40620  1.0000
  O   O1        1.0  0.15514  0.55220  0.28729  1.0000
  O   O2        1.0  0.84486  0.44780  0.71271  1.0000
  O   O3        1.0  0.24384  0.49197  0.00448  1.0000
  O   O4        1.0  0.75616  0.50803  0.99552  1.0000
  O   O5        1.0  0.65773  0.15252  0.12627  1.0000
  O   O6        1.0  0.34227  0.84748  0.87373  1.0000
