data_image0
_chemical_formula_structural       Bi4H32C48Cl4
_chemical_formula_sum              "Bi4 H32 C48 Cl4"
_cell_length_a       8.66458
_cell_length_b       9.17702
_cell_length_c       12.8145
_cell_angle_alpha    90
_cell_angle_beta     90.0002
_cell_angle_gamma    90.0004

_space_group_name_H-M_alt    "P 1"
_space_group_IT_number       1

loop_
  _space_group_symop_operation_xyz
  'x, y, z'

loop_
  _atom_site_type_symbol
  _atom_site_label
  _atom_site_symmetry_multiplicity
  _atom_site_fract_x
  _atom_site_fract_y
  _atom_site_fract_z
  _atom_site_occupancy
  Bi  Bi1       1.0  0.00794  0.16447  0.77506  1.0000
  Bi  Bi2       1.0  0.50794  0.33553  0.22494  1.0000
  Bi  Bi3       1.0  0.99206  0.66447  0.72494  1.0000
  Bi  Bi4       1.0  0.49206  0.83553  0.27506  1.0000
  H   H1        1.0  0.50015  0.39549  0.62650  1.0000
  H   H2        1.0  0.00015  0.10451  0.37350  1.0000
  H   H3        1.0  0.49985  0.89549  0.87350  1.0000
  H   H4        1.0  0.99985  0.60451  0.12650  1.0000
  H   H5        1.0  0.32263  0.32411  0.76705  1.0000
  H   H6        1.0  0.82263  0.17589  0.23295  1.0000
  H   H7        1.0  0.67736  0.82411  0.73295  1.0000
  H   H8        1.0  0.17737  0.67590  0.26705  1.0000
  H   H9        1.0  0.41573  0.17478  0.91687  1.0000
  H   H10       1.0  0.91574  0.32521  0.08313  1.0000
  H   H11       1.0  0.58426  0.67478  0.58314  1.0000
  H   H12       1.0  0.08427  0.82522  0.41687  1.0000
  H   H13       1.0  0.69091  0.10138  0.92610  1.0000
  H   H14       1.0  0.19092  0.39861  0.07389  1.0000
  H   H15       1.0  0.30908  0.60138  0.57390  1.0000
  H   H16       1.0  0.80909  0.89862  0.42611  1.0000
  H   H17       1.0  0.20657  0.33157  0.57910  1.0000
  H   H18       1.0  0.70657  0.16843  0.42090  1.0000
  H   H19       1.0  0.79343  0.83158  0.92090  1.0000
  H   H20       1.0  0.29343  0.66843  0.07910  1.0000
  H   H21       1.0  0.13379  0.48561  0.42786  1.0000
  H   H22       1.0  0.63379  0.01439  0.57214  1.0000
  H   H23       1.0  0.86621  0.98561  0.07214  1.0000
  H   H24       1.0  0.36621  0.51439  0.92786  1.0000
  H   H25       1.0  0.85613  0.53886  0.39327  1.0000
  H   H26       1.0  0.35613  0.96114  0.60673  1.0000
  H   H27       1.0  0.14388  0.03886  0.10673  1.0000
  H   H28       1.0  0.64388  0.46114  0.89327  1.0000
  H   H29       1.0  0.65527  0.45057  0.51237  1.0000
  H   H30       1.0  0.15527  0.04943  0.48763  1.0000
  H   H31       1.0  0.34473  0.95057  0.98763  1.0000
  H   H32       1.0  0.84473  0.54943  0.01237  1.0000
  C   C1        1.0  0.75196  0.20763  0.78096  1.0000
  C   C2        1.0  0.25197  0.29236  0.21904  1.0000
  C   C3        1.0  0.24803  0.70764  0.71904  1.0000
  C   C4        1.0  0.74804  0.79236  0.28096  1.0000
  C   C5        1.0  0.70027  0.29205  0.69541  1.0000
  C   C6        1.0  0.20027  0.20795  0.30459  1.0000
  C   C7        1.0  0.29973  0.79206  0.80459  1.0000
  C   C8        1.0  0.79973  0.70795  0.19542  1.0000
  C   C9        1.0  0.54364  0.33034  0.69111  1.0000
  C   C10       1.0  0.04365  0.16966  0.30889  1.0000
  C   C11       1.0  0.45635  0.83034  0.80889  1.0000
  C   C12       1.0  0.95636  0.66966  0.19111  1.0000
  C   C13       1.0  0.44241  0.28793  0.77000  1.0000
  C   C14       1.0  0.94242  0.21207  0.23000  1.0000
  C   C15       1.0  0.55758  0.78793  0.73000  1.0000
  C   C16       1.0  0.05759  0.71207  0.27000  1.0000
  C   C17       1.0  0.49463  0.20523  0.85422  1.0000
  C   C18       1.0  0.99464  0.29476  0.14578  1.0000
  C   C19       1.0  0.50536  0.70523  0.64578  1.0000
  C   C20       1.0  0.00537  0.79477  0.35422  1.0000
  C   C21       1.0  0.65031  0.16438  0.85928  1.0000
  C   C22       1.0  0.15032  0.33562  0.14072  1.0000
  C   C23       1.0  0.34968  0.66438  0.64072  1.0000
  C   C24       1.0  0.84969  0.83563  0.35928  1.0000
  C   C25       1.0  0.81440  0.34045  0.61701  1.0000
  C   C26       1.0  0.31440  0.15955  0.38299  1.0000
  C   C27       1.0  0.18560  0.84045  0.88299  1.0000
  C   C28       1.0  0.68560  0.65955  0.11701  1.0000
  C   C29       1.0  0.97135  0.30437  0.63262  1.0000
  C   C30       1.0  0.47136  0.19563  0.36738  1.0000
  C   C31       1.0  0.02864  0.80437  0.86738  1.0000
  C   C32       1.0  0.52865  0.69563  0.13262  1.0000
  C   C33       1.0  0.08534  0.35788  0.56589  1.0000
  C   C34       1.0  0.58535  0.14212  0.43411  1.0000
  C   C35       1.0  0.91465  0.85789  0.93411  1.0000
  C   C36       1.0  0.41466  0.64212  0.06589  1.0000
  C   C37       1.0  0.04473  0.44466  0.48028  1.0000
  C   C38       1.0  0.54473  0.05534  0.51972  1.0000
  C   C39       1.0  0.95527  0.94466  0.01972  1.0000
  C   C40       1.0  0.45527  0.55534  0.98028  1.0000
  C   C41       1.0  0.88921  0.47505  0.46128  1.0000
  C   C42       1.0  0.38921  0.02495  0.53872  1.0000
  C   C43       1.0  0.11079  0.97505  0.03872  1.0000
  C   C44       1.0  0.61079  0.52495  0.96128  1.0000
  C   C45       1.0  0.77541  0.42444  0.52913  1.0000
  C   C46       1.0  0.27541  0.07556  0.47087  1.0000
  C   C47       1.0  0.22459  0.92444  0.97087  1.0000
  C   C48       1.0  0.72459  0.57556  0.02913  1.0000
  Cl  Cl1       1.0  0.05259  0.43494  0.86890  1.0000
  Cl  Cl2       1.0  0.55259  0.06506  0.13110  1.0000
  Cl  Cl3       1.0  0.94741  0.93494  0.63110  1.0000
  Cl  Cl4       1.0  0.44741  0.56506  0.36890  1.0000
