data_image0
_chemical_formula_structural       Ag8H12C28N4O20
_chemical_formula_sum              "Ag8 H12 C28 N4 O20"
_cell_length_a       5.35737
_cell_length_b       8.4895
_cell_length_c       17.9633
_cell_angle_alpha    92.5548
_cell_angle_beta     89.9999
_cell_angle_gamma    89.9999

_space_group_name_H-M_alt    "P 1"
_space_group_IT_number       1

loop_
  _space_group_symop_operation_xyz
  'x, y, z'

loop_
  _atom_site_type_symbol
  _atom_site_label
  _atom_site_symmetry_multiplicity
  _atom_site_fract_x
  _atom_site_fract_y
  _atom_site_fract_z
  _atom_site_occupancy
  Ag  Ag1       1.0  0.20857  0.62488  0.43509  1.0000
  Ag  Ag2       1.0  0.70855  0.37513  0.06492  1.0000
  Ag  Ag3       1.0  0.79145  0.37513  0.56492  1.0000
  Ag  Ag4       1.0  0.29145  0.62487  0.93509  1.0000
  Ag  Ag5       1.0  0.63748  0.80270  0.47552  1.0000
  Ag  Ag6       1.0  0.13746  0.19731  0.02448  1.0000
  Ag  Ag7       1.0  0.36255  0.19731  0.52447  1.0000
  Ag  Ag8       1.0  0.86254  0.80268  0.97552  1.0000
  H   H1        1.0  0.78969  0.45339  0.24787  1.0000
  H   H2        1.0  0.28971  0.54662  0.25213  1.0000
  H   H3        1.0  0.21029  0.54662  0.75213  1.0000
  H   H4        1.0  0.71032  0.45337  0.74787  1.0000
  H   H5        1.0  0.08948  0.27608  0.17591  1.0000
  H   H6        1.0  0.58950  0.72392  0.32409  1.0000
  H   H7        1.0  0.91047  0.72391  0.82408  1.0000
  H   H8        1.0  0.41052  0.27608  0.67592  1.0000
  H   H9        1.0  0.28452  0.05323  0.24050  1.0000
  H   H10       1.0  0.78454  0.94677  0.25949  1.0000
  H   H11       1.0  0.71542  0.94676  0.75949  1.0000
  H   H12       1.0  0.21545  0.05324  0.74050  1.0000
  C   C1        1.0  0.67216  0.44459  0.39457  1.0000
  C   C2        1.0  0.17213  0.55543  0.10543  1.0000
  C   C3        1.0  0.32786  0.55542  0.60543  1.0000
  C   C4        1.0  0.82787  0.44457  0.89457  1.0000
  C   C5        1.0  0.84263  0.33608  0.34958  1.0000
  C   C6        1.0  0.34262  0.66393  0.15042  1.0000
  C   C7        1.0  0.15737  0.66392  0.65042  1.0000
  C   C8        1.0  0.65738  0.33606  0.84958  1.0000
  C   C9        1.0  0.88496  0.35751  0.27437  1.0000
  C   C10       1.0  0.38497  0.64250  0.22563  1.0000
  C   C11       1.0  0.11502  0.64250  0.72563  1.0000
  C   C12       1.0  0.61505  0.35749  0.77437  1.0000
  C   C13       1.0  0.04999  0.25930  0.23448  1.0000
  C   C14       1.0  0.55000  0.74070  0.26552  1.0000
  C   C15       1.0  0.94999  0.74068  0.76552  1.0000
  C   C16       1.0  0.45002  0.25930  0.73448  1.0000
  C   C17       1.0  0.15984  0.13505  0.27026  1.0000
  C   C18       1.0  0.65984  0.86495  0.22973  1.0000
  C   C19       1.0  0.84013  0.86495  0.72973  1.0000
  C   C20       1.0  0.34015  0.13505  0.77027  1.0000
  C   C21       1.0  0.10913  0.11328  0.34473  1.0000
  C   C22       1.0  0.60913  0.88673  0.15527  1.0000
  C   C23       1.0  0.89087  0.88672  0.65526  1.0000
  C   C24       1.0  0.39086  0.11327  0.84474  1.0000
  C   C25       1.0  0.20712  0.97472  0.38556  1.0000
  C   C26       1.0  0.70712  0.02529  0.11444  1.0000
  C   C27       1.0  0.79288  0.02529  0.61443  1.0000
  C   C28       1.0  0.29288  0.97471  0.88556  1.0000
  N   N1        1.0  0.96016  0.21704  0.38466  1.0000
  N   N2        1.0  0.46014  0.78297  0.11534  1.0000
  N   N3        1.0  0.03985  0.78297  0.61534  1.0000
  N   N4        1.0  0.53985  0.21703  0.88467  1.0000
  O   O1        1.0  0.44155  0.42757  0.38330  1.0000
  O   O2        1.0  0.94153  0.57245  0.11670  1.0000
  O   O3        1.0  0.55847  0.57245  0.61670  1.0000
  O   O4        1.0  0.05847  0.42755  0.88330  1.0000
  O   O5        1.0  0.77590  0.54996  0.43717  1.0000
  O   O6        1.0  0.27587  0.45004  0.06283  1.0000
  O   O7        1.0  0.22414  0.45003  0.56284  1.0000
  O   O8        1.0  0.72413  0.54995  0.93717  1.0000
  O   O9        1.0  0.93287  0.19810  0.45672  1.0000
  O   O10       1.0  0.43286  0.80190  0.04328  1.0000
  O   O11       1.0  0.06715  0.80190  0.54328  1.0000
  O   O12       1.0  0.56713  0.19810  0.95672  1.0000
  O   O13       1.0  0.41262  0.99608  0.42003  1.0000
  O   O14       1.0  0.91263  0.00392  0.07996  1.0000
  O   O15       1.0  0.58738  0.00392  0.57996  1.0000
  O   O16       1.0  0.08737  0.99607  0.92004  1.0000
  O   O17       1.0  0.07843  0.85072  0.37814  1.0000
  O   O18       1.0  0.57843  0.14928  0.12186  1.0000
  O   O19       1.0  0.92157  0.14928  0.62186  1.0000
  O   O20       1.0  0.42156  0.85072  0.87814  1.0000
