data_image0
_chemical_formula_structural       Sm2H34C48N8O12
_chemical_formula_sum              "Sm2 H34 C48 N8 O12"
_cell_length_a       9.8468
_cell_length_b       9.82618
_cell_length_c       12.7693
_cell_angle_alpha    72.5322
_cell_angle_beta     85.5894
_cell_angle_gamma    73.1475

_space_group_name_H-M_alt    "P 1"
_space_group_IT_number       1

loop_
  _space_group_symop_operation_xyz
  'x, y, z'

loop_
  _atom_site_type_symbol
  _atom_site_label
  _atom_site_symmetry_multiplicity
  _atom_site_fract_x
  _atom_site_fract_y
  _atom_site_fract_z
  _atom_site_occupancy
  Sm  Sm1       1.0  0.57198  0.38098  0.89584  1.0000
  Sm  Sm2       1.0  0.42802  0.61902  0.10416  1.0000
  H   H1        1.0  0.17425  0.59496  0.33311  1.0000
  H   H2        1.0  0.82575  0.40504  0.66689  1.0000
  H   H3        1.0  0.54573  0.70163  0.67459  1.0000
  H   H4        1.0  0.45427  0.29837  0.32541  1.0000
  H   H5        1.0  0.43976  0.84670  0.48812  1.0000
  H   H6        1.0  0.56024  0.15330  0.51188  1.0000
  H   H7        1.0  0.29540  0.73748  0.39912  1.0000
  H   H8        1.0  0.70460  0.26253  0.60088  1.0000
  H   H9        1.0  0.41857  0.10487  0.96305  1.0000
  H   H10       1.0  0.58143  0.89513  0.03695  1.0000
  H   H11       1.0  0.28464  0.96797  0.89704  1.0000
  H   H12       1.0  0.71537  0.03203  0.10295  1.0000
  H   H13       1.0  0.19160  0.07175  0.69949  1.0000
  H   H14       1.0  0.80841  0.92825  0.30051  1.0000
  H   H15       1.0  0.97860  0.19026  0.41376  1.0000
  H   H16       1.0  0.02140  0.80974  0.58624  1.0000
  H   H17       1.0  0.82981  0.18072  0.26820  1.0000
  H   H18       1.0  0.17019  0.81928  0.73180  1.0000
  H   H19       1.0  0.90810  0.58235  0.05433  1.0000
  H   H20       1.0  0.09190  0.41765  0.94566  1.0000
  H   H21       1.0  0.05579  0.59110  0.19698  1.0000
  H   H22       1.0  0.94421  0.40890  0.80302  1.0000
  H   H23       1.0  0.01220  0.08327  0.84989  1.0000
  H   H24       1.0  0.98780  0.91674  0.15011  1.0000
  H   H25       1.0  0.94643  0.05572  0.73460  1.0000
  H   H26       1.0  0.05358  0.94428  0.26540  1.0000
  H   H27       1.0  0.93585  0.93428  0.87033  1.0000
  H   H28       1.0  0.06416  0.06572  0.12967  1.0000
  H   H29       1.0  0.59249  0.95411  0.77964  1.0000
  H   H30       1.0  0.40751  0.04589  0.22036  1.0000
  H   H31       1.0  0.72315  0.82251  0.72409  1.0000
  H   H32       1.0  0.27686  0.17749  0.27591  1.0000
  H   H33       1.0  0.75451  0.85362  0.84955  1.0000
  H   H34       1.0  0.24550  0.14638  0.15045  1.0000
  C   C1        1.0  0.47787  0.66062  0.63555  1.0000
  C   C2        1.0  0.52212  0.33938  0.36445  1.0000
  C   C3        1.0  0.41913  0.74065  0.53058  1.0000
  C   C4        1.0  0.58087  0.25935  0.46942  1.0000
  C   C5        1.0  0.33911  0.68133  0.48184  1.0000
  C   C6        1.0  0.66088  0.31867  0.51816  1.0000
  C   C7        1.0  0.31679  0.54308  0.53986  1.0000
  C   C8        1.0  0.68320  0.45692  0.46015  1.0000
  C   C9        1.0  0.37709  0.47088  0.64779  1.0000
  C   C10       1.0  0.62291  0.52912  0.35221  1.0000
  C   C11       1.0  0.35256  0.33098  0.71277  1.0000
  C   C12       1.0  0.64744  0.66902  0.28723  1.0000
  C   C13       1.0  0.37798  0.14591  0.87911  1.0000
  C   C14       1.0  0.62202  0.85409  0.12089  1.0000
  C   C15       1.0  0.30164  0.06926  0.84102  1.0000
  C   C16       1.0  0.69837  0.93074  0.15898  1.0000
  C   C17       1.0  0.25096  0.12599  0.73433  1.0000
  C   C18       1.0  0.74904  0.87401  0.26566  1.0000
  C   C19       1.0  0.27327  0.26055  0.66836  1.0000
  C   C20       1.0  0.72673  0.73945  0.33164  1.0000
  C   C21       1.0  0.21710  0.33195  0.55971  1.0000
  C   C22       1.0  0.78290  0.66805  0.44029  1.0000
  C   C23       1.0  0.23804  0.46875  0.49890  1.0000
  C   C24       1.0  0.76196  0.53126  0.50110  1.0000
  C   C25       1.0  0.11006  0.39302  0.40484  1.0000
  C   C26       1.0  0.88994  0.60698  0.59516  1.0000
  C   C27       1.0  0.02600  0.39127  0.31643  1.0000
  C   C28       1.0  0.97400  0.60873  0.68357  1.0000
  C   C29       1.0  0.96277  0.27494  0.33436  1.0000
  C   C30       1.0  0.03723  0.72506  0.66564  1.0000
  C   C31       1.0  0.88055  0.26976  0.25286  1.0000
  C   C32       1.0  0.11946  0.73024  0.74714  1.0000
  C   C33       1.0  0.85996  0.38021  0.15147  1.0000
  C   C34       1.0  0.14004  0.61979  0.84853  1.0000
  C   C35       1.0  0.92329  0.49579  0.13283  1.0000
  C   C36       1.0  0.07671  0.50421  0.86717  1.0000
  C   C37       1.0  0.00583  0.50130  0.21441  1.0000
  C   C38       1.0  0.99417  0.49869  0.78559  1.0000
  C   C39       1.0  0.76616  0.37608  0.06637  1.0000
  C   C40       1.0  0.23384  0.62392  0.93363  1.0000
  C   C41       1.0  0.78864  0.15430  0.83643  1.0000
  C   C42       1.0  0.21136  0.84570  0.16357  1.0000
  C   C43       1.0  0.92829  0.04879  0.82174  1.0000
  C   C44       1.0  0.07172  0.95121  0.17826  1.0000
  C   C45       1.0  0.60974  0.72490  0.86579  1.0000
  C   C46       1.0  0.39027  0.27510  0.13421  1.0000
  C   C47       1.0  0.67335  0.84619  0.79875  1.0000
  C   C48       1.0  0.32665  0.15381  0.20126  1.0000
  N   N1        1.0  0.45795  0.53001  0.69316  1.0000
  N   N2        1.0  0.54205  0.46999  0.30685  1.0000
  N   N3        1.0  0.40485  0.27130  0.81726  1.0000
  N   N4        1.0  0.59515  0.72870  0.18274  1.0000
  N   N5        1.0  0.13755  0.28605  0.50099  1.0000
  N   N6        1.0  0.86245  0.71395  0.49901  1.0000
  N   N7        1.0  0.16890  0.50579  0.40065  1.0000
  N   N8        1.0  0.83110  0.49422  0.59935  1.0000
  O   O1        1.0  0.81425  0.30828  0.99604  1.0000
  O   O2        1.0  0.18574  0.69172  0.00396  1.0000
  O   O3        1.0  0.63312  0.44307  0.06878  1.0000
  O   O4        1.0  0.36688  0.55693  0.93122  1.0000
  O   O5        1.0  0.75608  0.28909  0.77140  1.0000
  O   O6        1.0  0.24392  0.71091  0.22860  1.0000
  O   O7        1.0  0.70542  0.11589  0.91273  1.0000
  O   O8        1.0  0.29458  0.88411  0.08727  1.0000
  O   O9        1.0  0.64139  0.60371  0.84007  1.0000
  O   O10       1.0  0.35861  0.39629  0.15993  1.0000
  O   O11       1.0  0.52962  0.75130  0.94475  1.0000
  O   O12       1.0  0.47038  0.24870  0.05525  1.0000
