data_image0
_chemical_formula_structural       H24Pb2C30N4O8
_chemical_formula_sum              "H24 Pb2 C30 N4 O8"
_cell_length_a       8.88637
_cell_length_b       8.88565
_cell_length_c       11.2635
_cell_angle_alpha    106.848
_cell_angle_beta     106.871
_cell_angle_gamma    105.259

_space_group_name_H-M_alt    "P 1"
_space_group_IT_number       1

loop_
  _space_group_symop_operation_xyz
  'x, y, z'

loop_
  _atom_site_type_symbol
  _atom_site_label
  _atom_site_symmetry_multiplicity
  _atom_site_fract_x
  _atom_site_fract_y
  _atom_site_fract_z
  _atom_site_occupancy
  H   H1        1.0  0.68020  0.02420  0.02212  1.0000
  H   H2        1.0  0.00300  0.65838  0.97803  1.0000
  H   H3        1.0  0.90814  0.75315  0.47817  1.0000
  H   H4        1.0  0.27506  0.42953  0.52193  1.0000
  H   H5        1.0  0.68795  0.19376  0.87974  1.0000
  H   H6        1.0  0.31460  0.80884  0.12026  1.0000
  H   H7        1.0  0.05841  0.06470  0.62042  1.0000
  H   H8        1.0  0.44416  0.43754  0.37927  1.0000
  H   H9        1.0  0.66783  0.75423  0.57089  1.0000
  H   H10       1.0  0.18293  0.09700  0.42881  1.0000
  H   H11       1.0  0.34716  0.93317  0.92891  1.0000
  H   H12       1.0  0.00426  0.41836  0.07123  1.0000
  H   H13       1.0  0.68532  0.20580  0.66391  1.0000
  H   H14       1.0  0.54198  0.02194  0.33614  1.0000
  H   H15       1.0  0.27245  0.29221  0.83600  1.0000
  H   H16       1.0  0.45580  0.43603  0.16357  1.0000
  H   H17       1.0  0.75261  0.05919  0.56651  1.0000
  H   H18       1.0  0.49250  0.18650  0.43340  1.0000
  H   H19       1.0  0.43665  0.24244  0.93348  1.0000
  H   H20       1.0  0.30880  0.50313  0.06623  1.0000
  H   H21       1.0  0.38773  0.99602  0.54481  1.0000
  H   H22       1.0  0.45094  0.84333  0.45527  1.0000
  H   H23       1.0  0.09335  0.20139  0.95497  1.0000
  H   H24       1.0  0.24600  0.13833  0.04483  1.0000
  Pb  Pb1       1.0  0.86937  0.36924  0.50028  1.0000
  Pb  Pb2       1.0  0.61951  0.61923  0.00015  1.0000
  C   C1        1.0  0.67871  0.97059  0.92121  1.0000
  C   C2        1.0  0.05005  0.75782  0.07883  1.0000
  C   C3        1.0  0.00755  0.80017  0.57899  1.0000
  C   C4        1.0  0.22123  0.42825  0.42111  1.0000
  C   C5        1.0  0.68216  0.06378  0.84086  1.0000
  C   C6        1.0  0.22341  0.84180  0.15912  1.0000
  C   C7        1.0  0.09148  0.97352  0.65928  1.0000
  C   C8        1.0  0.31420  0.43187  0.34061  1.0000
  C   C9        1.0  0.67514  0.98690  0.71084  1.0000
  C   C10       1.0  0.27618  0.96479  0.28902  1.0000
  C   C11       1.0  0.21468  0.02638  0.78914  1.0000
  C   C12       1.0  0.23714  0.42546  0.21080  1.0000
  C   C13       1.0  0.67164  0.82086  0.67018  1.0000
  C   C14       1.0  0.15061  0.00172  0.32957  1.0000
  C   C15       1.0  0.25165  0.90080  0.82973  1.0000
  C   C16       1.0  0.07111  0.42198  0.17043  1.0000
  C   C17       1.0  0.67091  0.73646  0.75643  1.0000
  C   C18       1.0  0.98020  0.91459  0.24338  1.0000
  C   C19       1.0  0.16447  0.73036  0.74358  1.0000
  C   C20       1.0  0.98695  0.42095  0.25678  1.0000
  C   C21       1.0  0.67123  0.55765  0.71479  1.0000
  C   C22       1.0  0.84298  0.95648  0.28505  1.0000
  C   C23       1.0  0.20650  0.59321  0.78533  1.0000
  C   C24       1.0  0.80809  0.42119  0.21510  1.0000
  C   C25       1.0  0.66018  0.07055  0.61255  1.0000
  C   C26       1.0  0.45789  0.04811  0.38740  1.0000
  C   C27       1.0  0.29831  0.20812  0.88737  1.0000
  C   C28       1.0  0.32047  0.41077  0.11232  1.0000
  C   C29       1.0  0.48059  0.98090  0.50003  1.0000
  C   C30       1.0  0.23092  0.23109  0.99988  1.0000
  N   N1        1.0  0.67156  0.81045  0.87946  1.0000
  N   N2        1.0  0.93147  0.79220  0.12051  1.0000
  N   N3        1.0  0.04204  0.68158  0.62068  1.0000
  N   N4        1.0  0.06112  0.42131  0.37969  1.0000
  O   O1        1.0  0.65755  0.48642  0.59537  1.0000
  O   O2        1.0  0.89094  0.06217  0.40439  1.0000
  O   O3        1.0  0.31248  0.64135  0.90462  1.0000
  O   O4        1.0  0.73689  0.40765  0.09570  1.0000
  O   O5        1.0  0.68695  0.49305  0.80329  1.0000
  O   O6        1.0  0.69004  0.88360  0.19668  1.0000
  O   O7        1.0  0.13362  0.44020  0.69710  1.0000
  O   O8        1.0  0.74337  0.43662  0.30350  1.0000
