data_image0
_chemical_formula_structural       La2H26C14S4O26
_chemical_formula_sum              "La2 H26 C14 S4 O26"
_cell_length_a       7.90245
_cell_length_b       10.3027
_cell_length_c       10.7583
_cell_angle_alpha    115.601
_cell_angle_beta     94.0831
_cell_angle_gamma    105.441

_space_group_name_H-M_alt    "P 1"
_space_group_IT_number       1

loop_
  _space_group_symop_operation_xyz
  'x, y, z'

loop_
  _atom_site_type_symbol
  _atom_site_label
  _atom_site_symmetry_multiplicity
  _atom_site_fract_x
  _atom_site_fract_y
  _atom_site_fract_z
  _atom_site_occupancy
  La  La1       1.0  0.43827  0.81451  0.71631  1.0000
  La  La2       1.0  0.56172  0.18549  0.28369  1.0000
  H   H1        1.0  0.41767  0.73621  0.27126  1.0000
  H   H2        1.0  0.58233  0.26379  0.72875  1.0000
  H   H3        1.0  0.16038  0.24739  0.03622  1.0000
  H   H4        1.0  0.83962  0.75261  0.96378  1.0000
  H   H5        1.0  0.26191  0.52022  0.81885  1.0000
  H   H6        1.0  0.73809  0.47977  0.18115  1.0000
  H   H7        1.0  0.19160  0.83916  0.47541  1.0000
  H   H8        1.0  0.80840  0.16085  0.52459  1.0000
  H   H9        1.0  0.26852  0.00160  0.61060  1.0000
  H   H10       1.0  0.73148  0.99840  0.38941  1.0000
  H   H11       1.0  0.69736  0.82808  0.49850  1.0000
  H   H12       1.0  0.30265  0.17192  0.50150  1.0000
  H   H13       1.0  0.81110  0.95111  0.65027  1.0000
  H   H14       1.0  0.18891  0.04889  0.34973  1.0000
  H   H15       1.0  0.16106  0.47649  0.54318  1.0000
  H   H16       1.0  0.83894  0.52351  0.45682  1.0000
  H   H17       1.0  0.04853  0.55948  0.64684  1.0000
  H   H18       1.0  0.95147  0.44052  0.35316  1.0000
  H   H19       1.0  0.03708  0.79326  0.78341  1.0000
  H   H20       1.0  0.96293  0.20675  0.21659  1.0000
  H   H21       1.0  0.12105  0.95381  0.79392  1.0000
  H   H22       1.0  0.87894  0.04620  0.20609  1.0000
  H   H23       1.0  0.85221  0.00783  0.86247  1.0000
  H   H24       1.0  0.14779  0.99216  0.13753  1.0000
  H   H25       1.0  0.77356  0.00980  0.99229  1.0000
  H   H26       1.0  0.22644  0.99020  0.00771  1.0000
  C   C1        1.0  0.42971  0.79418  0.04819  1.0000
  C   C2        1.0  0.57028  0.20581  0.95180  1.0000
  C   C3        1.0  0.35013  0.64283  0.04523  1.0000
  C   C4        1.0  0.64989  0.35717  0.95477  1.0000
  C   C5        1.0  0.35771  0.63332  0.17135  1.0000
  C   C6        1.0  0.64229  0.36667  0.82865  1.0000
  C   C7        1.0  0.29005  0.49156  0.16637  1.0000
  C   C8        1.0  0.70994  0.50844  0.83364  1.0000
  C   C9        1.0  0.21017  0.35798  0.03859  1.0000
  C   C10       1.0  0.78983  0.64203  0.96142  1.0000
  C   C11       1.0  0.19913  0.37116  0.91489  1.0000
  C   C12       1.0  0.80087  0.62884  0.08511  1.0000
  C   C13       1.0  0.26984  0.51170  0.91658  1.0000
  C   C14       1.0  0.73017  0.48829  0.08342  1.0000
  S   S1        1.0  0.31630  0.47945  0.32583  1.0000
  S   S2        1.0  0.68371  0.52054  0.67416  1.0000
  S   S3        1.0  0.09283  0.21108  0.74719  1.0000
  S   S4        1.0  0.90716  0.78893  0.25281  1.0000
  O   O1        1.0  0.41937  0.79755  0.93156  1.0000
  O   O2        1.0  0.58062  0.20243  0.06842  1.0000
  O   O3        1.0  0.50313  0.90981  0.16788  1.0000
  O   O4        1.0  0.49686  0.09017  0.83210  1.0000
  O   O5        1.0  0.37173  0.63569  0.44037  1.0000
  O   O6        1.0  0.62828  0.36431  0.55964  1.0000
  O   O7        1.0  0.45237  0.40578  0.32023  1.0000
  O   O8        1.0  0.54763  0.59422  0.67977  1.0000
  O   O9        1.0  0.13940  0.38500  0.32894  1.0000
  O   O10       1.0  0.86061  0.61501  0.67107  1.0000
  O   O11       1.0  0.23297  0.18631  0.66520  1.0000
  O   O12       1.0  0.76703  0.81370  0.33480  1.0000
  O   O13       1.0  0.95441  0.25024  0.68771  1.0000
  O   O14       1.0  0.04558  0.74977  0.31229  1.0000
  O   O15       1.0  0.01636  0.07952  0.77493  1.0000
  O   O16       1.0  0.98363  0.92048  0.22508  1.0000
  O   O17       1.0  0.26847  0.89576  0.57135  1.0000
  O   O18       1.0  0.73153  0.10424  0.42865  1.0000
  O   O19       1.0  0.69155  0.87501  0.59861  1.0000
  O   O20       1.0  0.30845  0.12498  0.40138  1.0000
  O   O21       1.0  0.17211  0.56032  0.63638  1.0000
  O   O22       1.0  0.82789  0.43969  0.36362  1.0000
  O   O23       1.0  0.15042  0.88020  0.82034  1.0000
  O   O24       1.0  0.84958  0.11980  0.17967  1.0000
  O   O25       1.0  0.75787  0.94708  0.88891  1.0000
  O   O26       1.0  0.24213  0.05292  0.11108  1.0000
