data_image0
_chemical_formula_structural       Nd2H18C14S4O22
_chemical_formula_sum              "Nd2 H18 C14 S4 O22"
_cell_length_a       6.78338
_cell_length_b       9.2053
_cell_length_c       11.3658
_cell_angle_alpha    113.135
_cell_angle_beta     93.9375
_cell_angle_gamma    104.806

_space_group_name_H-M_alt    "P 1"
_space_group_IT_number       1

loop_
  _space_group_symop_operation_xyz
  'x, y, z'

loop_
  _atom_site_type_symbol
  _atom_site_label
  _atom_site_symmetry_multiplicity
  _atom_site_fract_x
  _atom_site_fract_y
  _atom_site_fract_z
  _atom_site_occupancy
  Nd  Nd1       1.0  0.66400  0.17543  0.77163  1.0000
  Nd  Nd2       1.0  0.33600  0.82457  0.22837  1.0000
  H   H1        1.0  0.23400  0.50573  0.30609  1.0000
  H   H2        1.0  0.76600  0.49427  0.69391  1.0000
  H   H3        1.0  0.14170  0.14927  0.47135  1.0000
  H   H4        1.0  0.85830  0.85073  0.52865  1.0000
  H   H5        1.0  0.33620  0.67600  0.72214  1.0000
  H   H6        1.0  0.66380  0.32400  0.27786  1.0000
  H   H7        1.0  0.80152  0.37085  0.05718  1.0000
  H   H8        1.0  0.19848  0.62915  0.94282  1.0000
  H   H9        1.0  0.89342  0.22642  0.04724  1.0000
  H   H10       1.0  0.10658  0.77358  0.95276  1.0000
  H   H11       1.0  0.61609  0.52660  0.89163  1.0000
  H   H12       1.0  0.38392  0.47340  0.10837  1.0000
  H   H13       1.0  0.86342  0.56210  0.93341  1.0000
  H   H14       1.0  0.13658  0.43790  0.06659  1.0000
  H   H15       1.0  0.42524  0.15916  0.00656  1.0000
  H   H16       1.0  0.57476  0.84084  0.99344  1.0000
  H   H17       1.0  0.31160  0.01281  0.87355  1.0000
  H   H18       1.0  0.68840  0.98719  0.12645  1.0000
  C   C1        1.0  0.35498  0.78718  0.53305  1.0000
  C   C2        1.0  0.64502  0.21282  0.46695  1.0000
  C   C3        1.0  0.28692  0.60940  0.51595  1.0000
  C   C4        1.0  0.71309  0.39060  0.48405  1.0000
  C   C5        1.0  0.23196  0.47899  0.39132  1.0000
  C   C6        1.0  0.76804  0.52101  0.60868  1.0000
  C   C7        1.0  0.18137  0.31483  0.37619  1.0000
  C   C8        1.0  0.81863  0.68517  0.62381  1.0000
  C   C9        1.0  0.17929  0.27728  0.48358  1.0000
  C   C10       1.0  0.82070  0.72272  0.51642  1.0000
  C   C11       1.0  0.23279  0.40943  0.60773  1.0000
  C   C12       1.0  0.76720  0.59057  0.39227  1.0000
  C   C13       1.0  0.28770  0.57416  0.62519  1.0000
  C   C14       1.0  0.71231  0.42584  0.37481  1.0000
  S   S1        1.0  0.12766  0.15524  0.21466  1.0000
  S   S2        1.0  0.87234  0.84476  0.78534  1.0000
  S   S3        1.0  0.23633  0.36614  0.74691  1.0000
  S   S4        1.0  0.76367  0.63386  0.25309  1.0000
  O   O1        1.0  0.42926  0.89943  0.64809  1.0000
  O   O2        1.0  0.57074  0.10057  0.35191  1.0000
  O   O3        1.0  0.33609  0.81390  0.43228  1.0000
  O   O4        1.0  0.66391  0.18610  0.56772  1.0000
  O   O5        1.0  0.91876  0.14173  0.15498  1.0000
  O   O6        1.0  0.08124  0.85827  0.84502  1.0000
  O   O7        1.0  0.12523  0.00271  0.22952  1.0000
  O   O8        1.0  0.87477  0.99729  0.77048  1.0000
  O   O9        1.0  0.28947  0.20901  0.14958  1.0000
  O   O10       1.0  0.71053  0.79099  0.85042  1.0000
  O   O11       1.0  0.33683  0.23637  0.72189  1.0000
  O   O12       1.0  0.66317  0.76363  0.27811  1.0000
  O   O13       1.0  0.35459  0.52414  0.85830  1.0000
  O   O14       1.0  0.64541  0.47586  0.14170  1.0000
  O   O15       1.0  0.02039  0.31211  0.76033  1.0000
  O   O16       1.0  0.97961  0.68789  0.23967  1.0000
  O   O17       1.0  0.88214  0.30078  0.00444  1.0000
  O   O18       1.0  0.11787  0.69922  0.99556  1.0000
  O   O19       1.0  0.72870  0.47542  0.88420  1.0000
  O   O20       1.0  0.27131  0.52458  0.11580  1.0000
  O   O21       1.0  0.44297  0.10558  0.91602  1.0000
  O   O22       1.0  0.55703  0.89442  0.08398  1.0000
