data_image0
_chemical_formula_structural       Pr2H18C14S4O22
_chemical_formula_sum              "Pr2 H18 C14 S4 O22"
_cell_length_a       6.80121
_cell_length_b       9.23833
_cell_length_c       11.3992
_cell_angle_alpha    113.256
_cell_angle_beta     93.6816
_cell_angle_gamma    104.836

_space_group_name_H-M_alt    "P 1"
_space_group_IT_number       1

loop_
  _space_group_symop_operation_xyz
  'x, y, z'

loop_
  _atom_site_type_symbol
  _atom_site_label
  _atom_site_symmetry_multiplicity
  _atom_site_fract_x
  _atom_site_fract_y
  _atom_site_fract_z
  _atom_site_occupancy
  Pr  Pr1       1.0  0.33552  0.82453  0.22824  1.0000
  Pr  Pr2       1.0  0.66448  0.17547  0.77176  1.0000
  H   H1        1.0  0.76773  0.49443  0.69321  1.0000
  H   H2        1.0  0.23227  0.50557  0.30679  1.0000
  H   H3        1.0  0.85831  0.84938  0.52838  1.0000
  H   H4        1.0  0.14169  0.15062  0.47162  1.0000
  H   H5        1.0  0.66278  0.32414  0.27828  1.0000
  H   H6        1.0  0.33722  0.67586  0.72172  1.0000
  H   H7        1.0  0.19804  0.62931  0.94190  1.0000
  H   H8        1.0  0.80196  0.37069  0.05810  1.0000
  H   H9        1.0  0.10621  0.77302  0.95183  1.0000
  H   H10       1.0  0.89379  0.22698  0.04817  1.0000
  H   H11       1.0  0.38321  0.47152  0.10810  1.0000
  H   H12       1.0  0.61679  0.52848  0.89190  1.0000
  H   H13       1.0  0.13696  0.43620  0.06609  1.0000
  H   H14       1.0  0.86304  0.56380  0.93391  1.0000
  H   H15       1.0  0.57793  0.84212  0.99283  1.0000
  H   H16       1.0  0.42207  0.15788  0.00717  1.0000
  H   H17       1.0  0.69015  0.98753  0.12591  1.0000
  H   H18       1.0  0.30985  0.01247  0.87409  1.0000
  C   C1        1.0  0.64625  0.21346  0.46665  1.0000
  C   C2        1.0  0.35375  0.78654  0.53335  1.0000
  C   C3        1.0  0.71356  0.39075  0.48391  1.0000
  C   C4        1.0  0.28644  0.60925  0.51608  1.0000
  C   C5        1.0  0.76900  0.52083  0.60819  1.0000
  C   C6        1.0  0.23100  0.47917  0.39181  1.0000
  C   C7        1.0  0.81919  0.68442  0.62321  1.0000
  C   C8        1.0  0.18081  0.31558  0.37679  1.0000
  C   C9        1.0  0.82043  0.72171  0.51608  1.0000
  C   C10       1.0  0.17957  0.27829  0.48391  1.0000
  C   C11       1.0  0.76633  0.58979  0.39224  1.0000
  C   C12       1.0  0.23367  0.41021  0.60776  1.0000
  C   C13       1.0  0.71167  0.42568  0.37492  1.0000
  C   C14       1.0  0.28832  0.57432  0.62508  1.0000
  S   S1        1.0  0.87333  0.84392  0.78437  1.0000
  S   S2        1.0  0.12667  0.15608  0.21563  1.0000
  S   S3        1.0  0.76245  0.63247  0.25337  1.0000
  S   S4        1.0  0.23755  0.36753  0.74663  1.0000
  O   O1        1.0  0.57076  0.10172  0.35205  1.0000
  O   O2        1.0  0.42924  0.89828  0.64795  1.0000
  O   O3        1.0  0.66688  0.18644  0.56672  1.0000
  O   O4        1.0  0.33312  0.81356  0.43328  1.0000
  O   O5        1.0  0.08093  0.85645  0.84366  1.0000
  O   O6        1.0  0.91907  0.14355  0.15634  1.0000
  O   O7        1.0  0.87709  0.99614  0.76966  1.0000
  O   O8        1.0  0.12291  0.00386  0.23034  1.0000
  O   O9        1.0  0.71118  0.79120  0.84951  1.0000
  O   O10       1.0  0.28882  0.20880  0.15049  1.0000
  O   O11       1.0  0.66147  0.76152  0.27855  1.0000
  O   O12       1.0  0.33853  0.23847  0.72145  1.0000
  O   O13       1.0  0.64503  0.47462  0.14258  1.0000
  O   O14       1.0  0.35497  0.52537  0.85742  1.0000
  O   O15       1.0  0.97768  0.68683  0.23945  1.0000
  O   O16       1.0  0.02232  0.31317  0.76055  1.0000
  O   O17       1.0  0.11771  0.69937  0.99477  1.0000
  O   O18       1.0  0.88229  0.30064  0.00523  1.0000
  O   O19       1.0  0.27115  0.52267  0.11476  1.0000
  O   O20       1.0  0.72885  0.47733  0.88524  1.0000
  O   O21       1.0  0.55977  0.89468  0.08329  1.0000
  O   O22       1.0  0.44023  0.10532  0.91672  1.0000
