data_image0
_chemical_formula_structural       Nd2H26C14S4O26
_chemical_formula_sum              "Nd2 H26 C14 S4 O26"
_cell_length_a       7.82282
_cell_length_b       10.3057
_cell_length_c       10.6465
_cell_angle_alpha    115.905
_cell_angle_beta     93.0479
_cell_angle_gamma    105.644

_space_group_name_H-M_alt    "P 1"
_space_group_IT_number       1

loop_
  _space_group_symop_operation_xyz
  'x, y, z'

loop_
  _atom_site_type_symbol
  _atom_site_label
  _atom_site_symmetry_multiplicity
  _atom_site_fract_x
  _atom_site_fract_y
  _atom_site_fract_z
  _atom_site_occupancy
  Nd  Nd1       1.0  0.56137  0.68495  0.78416  1.0000
  Nd  Nd2       1.0  0.43863  0.31505  0.21584  1.0000
  H   H1        1.0  0.25168  0.02368  0.31605  1.0000
  H   H2        1.0  0.74832  0.97632  0.68395  1.0000
  H   H3        1.0  0.16186  0.74771  0.53307  1.0000
  H   H4        1.0  0.83814  0.25229  0.46693  1.0000
  H   H5        1.0  0.41836  0.23659  0.77116  1.0000
  H   H6        1.0  0.58164  0.76341  0.22884  1.0000
  H   H7        1.0  0.96435  0.70394  0.72443  1.0000
  H   H8        1.0  0.03565  0.29606  0.27557  1.0000
  H   H9        1.0  0.87933  0.54279  0.71321  1.0000
  H   H10       1.0  0.12067  0.45721  0.28679  1.0000
  H   H11       1.0  0.79029  0.65724  0.02526  1.0000
  H   H12       1.0  0.20971  0.34276  0.97474  1.0000
  H   H13       1.0  0.70745  0.49420  0.89107  1.0000
  H   H14       1.0  0.29255  0.50580  0.10893  1.0000
  H   H15       1.0  0.18723  0.55132  0.84720  1.0000
  H   H16       1.0  0.81277  0.44868  0.15280  1.0000
  H   H17       1.0  0.30198  0.67622  0.99937  1.0000
  H   H18       1.0  0.69802  0.32378  0.00063  1.0000
  H   H19       1.0  0.23975  0.49511  0.50565  1.0000
  H   H20       1.0  0.76025  0.50489  0.49435  1.0000
  H   H21       1.0  0.15352  0.49432  0.63388  1.0000
  H   H22       1.0  0.84648  0.50568  0.36612  1.0000
  H   H23       1.0  0.95034  0.93205  0.85203  1.0000
  H   H24       1.0  0.04966  0.06795  0.14798  1.0000
  H   H25       1.0  0.83478  0.01349  0.95866  1.0000
  H   H26       1.0  0.16522  0.98651  0.04134  1.0000
  C   C1        1.0  0.42089  0.29738  0.54721  1.0000
  C   C2        1.0  0.57911  0.70263  0.45280  1.0000
  C   C3        1.0  0.34430  0.14517  0.54375  1.0000
  C   C4        1.0  0.65570  0.85483  0.45625  1.0000
  C   C5        1.0  0.26248  0.01445  0.41416  1.0000
  C   C6        1.0  0.73752  0.98555  0.58584  1.0000
  C   C7        1.0  0.19516  0.87324  0.41202  1.0000
  C   C8        1.0  0.80484  0.12676  0.58798  1.0000
  C   C9        1.0  0.20978  0.85884  0.53602  1.0000
  C   C10       1.0  0.79022  0.14116  0.46398  1.0000
  C   C11       1.0  0.29099  0.99195  0.66482  1.0000
  C   C12       1.0  0.70902  0.00805  0.33518  1.0000
  C   C13       1.0  0.35641  0.13431  0.67031  1.0000
  C   C14       1.0  0.64360  0.86568  0.32969  1.0000
  S   S1        1.0  0.32212  0.97773  0.82411  1.0000
  S   S2        1.0  0.67788  0.02226  0.17588  1.0000
  S   S3        1.0  0.09256  0.71196  0.24328  1.0000
  S   S4        1.0  0.90744  0.28804  0.75672  1.0000
  O   O1        1.0  0.49748  0.41221  0.66768  1.0000
  O   O2        1.0  0.50251  0.58779  0.33231  1.0000
  O   O3        1.0  0.40409  0.30201  0.43044  1.0000
  O   O4        1.0  0.59591  0.69799  0.56955  1.0000
  O   O5        1.0  0.38268  0.13357  0.94095  1.0000
  O   O6        1.0  0.61733  0.86644  0.05905  1.0000
  O   O7        1.0  0.45673  0.90021  0.81072  1.0000
  O   O8        1.0  0.54327  0.09979  0.18927  1.0000
  O   O9        1.0  0.14429  0.88553  0.83215  1.0000
  O   O10       1.0  0.85571  0.11447  0.16786  1.0000
  O   O11       1.0  0.95684  0.75013  0.17944  1.0000
  O   O12       1.0  0.04316  0.24987  0.82056  1.0000
  O   O13       1.0  0.01205  0.58211  0.27335  1.0000
  O   O14       1.0  0.98795  0.41789  0.72665  1.0000
  O   O15       1.0  0.23825  0.68547  0.16334  1.0000
  O   O16       1.0  0.76175  0.31453  0.83666  1.0000
  O   O17       1.0  0.84937  0.61847  0.69040  1.0000
  O   O18       1.0  0.15063  0.38153  0.30960  1.0000
  O   O19       1.0  0.70238  0.59883  0.93396  1.0000
  O   O20       1.0  0.29761  0.40117  0.06604  1.0000
  O   O21       1.0  0.30475  0.63236  0.89720  1.0000
  O   O22       1.0  0.69525  0.36764  0.10280  1.0000
  O   O23       1.0  0.24841  0.55803  0.60897  1.0000
  O   O24       1.0  0.75159  0.44197  0.39103  1.0000
  O   O25       1.0  0.82521  0.92955  0.86427  1.0000
  O   O26       1.0  0.17480  0.07045  0.13573  1.0000
