data_image0
_chemical_formula_structural       Pr2H26C14S4O26
_chemical_formula_sum              "Pr2 H26 C14 S4 O26"
_cell_length_a       7.94765
_cell_length_b       10.3745
_cell_length_c       10.685
_cell_angle_alpha    116.173
_cell_angle_beta     92.5117
_cell_angle_gamma    107.521

_space_group_name_H-M_alt    "P 1"
_space_group_IT_number       1

loop_
  _space_group_symop_operation_xyz
  'x, y, z'

loop_
  _atom_site_type_symbol
  _atom_site_label
  _atom_site_symmetry_multiplicity
  _atom_site_fract_x
  _atom_site_fract_y
  _atom_site_fract_z
  _atom_site_occupancy
  Pr  Pr1       1.0  0.43414  0.81334  0.71869  1.0000
  Pr  Pr2       1.0  0.56586  0.18667  0.28132  1.0000
  H   H1        1.0  0.42624  0.73701  0.27557  1.0000
  H   H2        1.0  0.57376  0.26299  0.72442  1.0000
  H   H3        1.0  0.16384  0.24286  0.03982  1.0000
  H   H4        1.0  0.83617  0.75714  0.96018  1.0000
  H   H5        1.0  0.25470  0.51444  0.81983  1.0000
  H   H6        1.0  0.74530  0.48556  0.18017  1.0000
  H   H7        1.0  0.18400  0.82999  0.47427  1.0000
  H   H8        1.0  0.81600  0.17001  0.52573  1.0000
  H   H9        1.0  0.26336  0.98937  0.61333  1.0000
  H   H10       1.0  0.73664  0.01062  0.38667  1.0000
  H   H11       1.0  0.69637  0.85110  0.50771  1.0000
  H   H12       1.0  0.30363  0.14889  0.49229  1.0000
  H   H13       1.0  0.74927  0.01519  0.64026  1.0000
  H   H14       1.0  0.25073  0.98481  0.35975  1.0000
  H   H15       1.0  0.15550  0.47663  0.54052  1.0000
  H   H16       1.0  0.84450  0.52337  0.45948  1.0000
  H   H17       1.0  0.04346  0.55977  0.64543  1.0000
  H   H18       1.0  0.95654  0.44023  0.35457  1.0000
  H   H19       1.0  0.04395  0.78661  0.78634  1.0000
  H   H20       1.0  0.95605  0.21339  0.21367  1.0000
  H   H21       1.0  0.13548  0.95115  0.80554  1.0000
  H   H22       1.0  0.86452  0.04885  0.19446  1.0000
  H   H23       1.0  0.84501  0.98840  0.84189  1.0000
  H   H24       1.0  0.15499  0.01160  0.15811  1.0000
  H   H25       1.0  0.76949  0.01324  0.98218  1.0000
  H   H26       1.0  0.23051  0.98676  0.01782  1.0000
  C   C1        1.0  0.42780  0.79351  0.05136  1.0000
  C   C2        1.0  0.57220  0.20650  0.94864  1.0000
  C   C3        1.0  0.34891  0.64039  0.04796  1.0000
  C   C4        1.0  0.65109  0.35961  0.95204  1.0000
  C   C5        1.0  0.36213  0.63239  0.17530  1.0000
  C   C6        1.0  0.63788  0.36761  0.82470  1.0000
  C   C7        1.0  0.29541  0.48980  0.17068  1.0000
  C   C8        1.0  0.70459  0.51021  0.82932  1.0000
  C   C9        1.0  0.21215  0.35422  0.04232  1.0000
  C   C10       1.0  0.78785  0.64578  0.95768  1.0000
  C   C11       1.0  0.19644  0.36526  0.91724  1.0000
  C   C12       1.0  0.80356  0.63474  0.08276  1.0000
  C   C13       1.0  0.26517  0.50675  0.91830  1.0000
  C   C14       1.0  0.73483  0.49326  0.08169  1.0000
  S   S1        1.0  0.32396  0.47720  0.33010  1.0000
  S   S2        1.0  0.67604  0.52279  0.66990  1.0000
  S   S3        1.0  0.09037  0.19430  0.75246  1.0000
  S   S4        1.0  0.90963  0.80570  0.24754  1.0000
  O   O1        1.0  0.41519  0.79615  0.93427  1.0000
  O   O2        1.0  0.58481  0.20385  0.06573  1.0000
  O   O3        1.0  0.50275  0.91094  0.17251  1.0000
  O   O4        1.0  0.49725  0.08906  0.82749  1.0000
  O   O5        1.0  0.38707  0.63498  0.44683  1.0000
  O   O6        1.0  0.61293  0.36502  0.55317  1.0000
  O   O7        1.0  0.45372  0.40047  0.31919  1.0000
  O   O8        1.0  0.54628  0.59953  0.68081  1.0000
  O   O9        1.0  0.14380  0.38401  0.33668  1.0000
  O   O10       1.0  0.85620  0.61599  0.66332  1.0000
  O   O11       1.0  0.22264  0.18185  0.66027  1.0000
  O   O12       1.0  0.77735  0.81814  0.33973  1.0000
  O   O13       1.0  0.92800  0.20869  0.69634  1.0000
  O   O14       1.0  0.07200  0.79131  0.30366  1.0000
  O   O15       1.0  0.04158  0.06871  0.79017  1.0000
  O   O16       1.0  0.95842  0.93129  0.20983  1.0000
  O   O17       1.0  0.25545  0.88181  0.57182  1.0000
  O   O18       1.0  0.74455  0.11819  0.42818  1.0000
  O   O19       1.0  0.66859  0.90747  0.60072  1.0000
  O   O20       1.0  0.33141  0.09253  0.39928  1.0000
  O   O21       1.0  0.16606  0.55743  0.63730  1.0000
  O   O22       1.0  0.83394  0.44258  0.36269  1.0000
  O   O23       1.0  0.15991  0.87399  0.82779  1.0000
  O   O24       1.0  0.84009  0.12601  0.17221  1.0000
  O   O25       1.0  0.74606  0.94157  0.87864  1.0000
  O   O26       1.0  0.25394  0.05843  0.12136  1.0000
