data_image0
_chemical_formula_structural       CuH20C18N6O6
_chemical_formula_sum              "Cu1 H20 C18 N6 O6"
_cell_length_a       7.41281
_cell_length_b       8.74599
_cell_length_c       8.9279
_cell_angle_alpha    65.0289
_cell_angle_beta     82.9814
_cell_angle_gamma    74.7262

_space_group_name_H-M_alt    "P 1"
_space_group_IT_number       1

loop_
  _space_group_symop_operation_xyz
  'x, y, z'

loop_
  _atom_site_type_symbol
  _atom_site_label
  _atom_site_symmetry_multiplicity
  _atom_site_fract_x
  _atom_site_fract_y
  _atom_site_fract_z
  _atom_site_occupancy
  Cu  Cu1       1.0  0.50000  1.00000  0.99999  1.0000
  H   H1        1.0  0.61272  0.28655  0.70645  1.0000
  H   H2        1.0  0.38729  0.71343  0.29355  1.0000
  H   H3        1.0  0.51809  0.61336  0.58836  1.0000
  H   H4        1.0  0.48194  0.38662  0.41165  1.0000
  H   H5        1.0  0.28421  0.75762  0.74581  1.0000
  H   H6        1.0  0.71582  0.24237  0.25419  1.0000
  H   H7        1.0  0.27319  0.25011  0.12001  1.0000
  H   H8        1.0  0.72680  0.74989  0.87999  1.0000
  H   H9        1.0  0.12263  0.73259  0.98337  1.0000
  H   H10       1.0  0.87739  0.26742  0.01662  1.0000
  H   H11       1.0  0.94370  0.75668  0.21195  1.0000
  H   H12       1.0  0.05629  0.24334  0.78806  1.0000
  H   H13       1.0  0.85115  0.44136  0.44657  1.0000
  H   H14       1.0  0.14886  0.55865  0.55342  1.0000
  H   H15       1.0  0.81893  0.64176  0.46733  1.0000
  H   H16       1.0  0.18107  0.35824  0.53267  1.0000
  H   H17       1.0  0.66852  0.84059  0.55187  1.0000
  H   H18       1.0  0.33143  0.15942  0.44813  1.0000
  H   H19       1.0  0.68928  0.05163  0.47502  1.0000
  H   H20       1.0  0.31068  0.94838  0.52499  1.0000
  C   C1        1.0  0.51488  0.35639  0.77024  1.0000
  C   C2        1.0  0.48513  0.64360  0.22976  1.0000
  C   C3        1.0  0.46070  0.53670  0.70636  1.0000
  C   C4        1.0  0.53931  0.46329  0.29365  1.0000
  C   C5        1.0  0.33335  0.61725  0.79342  1.0000
  C   C6        1.0  0.66666  0.38274  0.20658  1.0000
  C   C7        1.0  0.26582  0.51623  0.94754  1.0000
  C   C8        1.0  0.73419  0.48376  0.05246  1.0000
  C   C9        1.0  0.32359  0.33467  0.00329  1.0000
  C   C10       1.0  0.67640  0.66532  0.99671  1.0000
  C   C11       1.0  0.08277  0.51910  0.19647  1.0000
  C   C12       1.0  0.91723  0.48091  0.80353  1.0000
  C   C13       1.0  0.91999  0.54178  0.43798  1.0000
  C   C14       1.0  0.08002  0.45822  0.56202  1.0000
  C   C15       1.0  0.61426  0.97928  0.29381  1.0000
  C   C16       1.0  0.38573  0.02071  0.70619  1.0000
  C   C17       1.0  0.59885  0.97329  0.46879  1.0000
  C   C18       1.0  0.40112  0.02672  0.53121  1.0000
  N   N1        1.0  0.44409  0.25920  0.91520  1.0000
  N   N2        1.0  0.55591  0.74079  0.08480  1.0000
  N   N3        1.0  0.14622  0.60065  0.03593  1.0000
  N   N4        1.0  0.85379  0.39936  0.96407  1.0000
  N   N5        1.0  0.98661  0.62461  0.27023  1.0000
  N   N6        1.0  0.01339  0.37541  0.72977  1.0000
  O   O1        1.0  0.11298  0.35850  0.26982  1.0000
  O   O2        1.0  0.88703  0.64151  0.73018  1.0000
  O   O3        1.0  0.46419  0.97871  0.23367  1.0000
  O   O4        1.0  0.53580  0.02127  0.76632  1.0000
  O   O5        1.0  0.76865  0.98266  0.21672  1.0000
  O   O6        1.0  0.23136  0.01733  0.78330  1.0000
