data_image0
_chemical_formula_structural       CuH22C26N6O6
_chemical_formula_sum              "Cu1 H22 C26 N6 O6"
_cell_length_a       9.83342
_cell_length_b       9.36722
_cell_length_c       10.8619
_cell_angle_alpha    100.469
_cell_angle_beta     119.966
_cell_angle_gamma    119.397

_space_group_name_H-M_alt    "P 1"
_space_group_IT_number       1

loop_
  _space_group_symop_operation_xyz
  'x, y, z'

loop_
  _atom_site_type_symbol
  _atom_site_label
  _atom_site_symmetry_multiplicity
  _atom_site_fract_x
  _atom_site_fract_y
  _atom_site_fract_z
  _atom_site_occupancy
  Cu  Cu1       1.0  0.50000  0.00000  1.00000  1.0000
  H   H1        1.0  0.43728  0.98756  0.69593  1.0000
  H   H2        1.0  0.56275  0.01246  0.30409  1.0000
  H   H3        1.0  0.32496  0.10530  0.51153  1.0000
  H   H4        1.0  0.67506  0.89472  0.48848  1.0000
  H   H5        1.0  0.20104  0.26780  0.55754  1.0000
  H   H6        1.0  0.79898  0.73221  0.44247  1.0000
  H   H7        1.0  0.28310  0.15947  0.94794  1.0000
  H   H8        1.0  0.71690  0.84054  0.05206  1.0000
  H   H9        1.0  0.17408  0.40791  0.73161  1.0000
  H   H10       1.0  0.82592  0.59210  0.26839  1.0000
  H   H11       1.0  0.16517  0.57742  0.87045  1.0000
  H   H12       1.0  0.83486  0.42260  0.12957  1.0000
  H   H13       1.0  0.18775  0.71797  0.08556  1.0000
  H   H14       1.0  0.81228  0.28205  0.91447  1.0000
  H   H15       1.0  0.20885  0.56394  0.15279  1.0000
  H   H16       1.0  0.79118  0.43607  0.84723  1.0000
  H   H17       1.0  0.06640  0.44671  0.41254  1.0000
  H   H18       1.0  0.93357  0.55326  0.58744  1.0000
  H   H19       1.0  0.06440  0.26084  0.21332  1.0000
  H   H20       1.0  0.93556  0.73913  0.78666  1.0000
  H   H21       1.0  0.74598  0.80873  0.82964  1.0000
  H   H22       1.0  0.25399  0.19125  0.17035  1.0000
  C   C1        1.0  0.37560  0.05268  0.70871  1.0000
  C   C2        1.0  0.62442  0.94734  0.29130  1.0000
  C   C3        1.0  0.31602  0.12169  0.60853  1.0000
  C   C4        1.0  0.68400  0.87833  0.39148  1.0000
  C   C5        1.0  0.24756  0.21222  0.63432  1.0000
  C   C6        1.0  0.75246  0.78780  0.36569  1.0000
  C   C7        1.0  0.23677  0.23111  0.76002  1.0000
  C   C8        1.0  0.76324  0.76890  0.23998  1.0000
  C   C9        1.0  0.29474  0.15332  0.85335  1.0000
  C   C10       1.0  0.70527  0.84669  0.14666  1.0000
  C   C11       1.0  0.14369  0.35819  0.89722  1.0000
  C   C12       1.0  0.85633  0.64183  0.10278  1.0000
  C   C13       1.0  0.11643  0.56483  0.04101  1.0000
  C   C14       1.0  0.88360  0.43519  0.95901  1.0000
  C   C15       1.0  0.40090  0.73321  0.75228  1.0000
  C   C16       1.0  0.59907  0.26678  0.24770  1.0000
  C   C17       1.0  0.40750  0.63799  0.63272  1.0000
  C   C18       1.0  0.59247  0.36200  0.36726  1.0000
  C   C19       1.0  0.21278  0.48229  0.45765  1.0000
  C   C20       1.0  0.78718  0.51768  0.54233  1.0000
  C   C21       1.0  0.21133  0.37849  0.34881  1.0000
  C   C22       1.0  0.78863  0.62147  0.65117  1.0000
  C   C23       1.0  0.40160  0.42054  0.41179  1.0000
  C   C24       1.0  0.59837  0.57944  0.58819  1.0000
  C   C25       1.0  0.59774  0.68965  0.69547  1.0000
  C   C26       1.0  0.40223  0.31033  0.30451  1.0000
  N   N1        1.0  0.36655  0.06996  0.82977  1.0000
  N   N2        1.0  0.63347  0.93005  0.17024  1.0000
  N   N3        1.0  0.17415  0.32844  0.78573  1.0000
  N   N4        1.0  0.82587  0.67157  0.21428  1.0000
  N   N5        1.0  0.13213  0.49884  0.92102  1.0000
  N   N6        1.0  0.86790  0.50117  0.07900  1.0000
  O   O1        1.0  0.12677  0.26551  0.96501  1.0000
  O   O2        1.0  0.87323  0.73448  0.03498  1.0000
  O   O3        1.0  0.56805  0.91835  0.87751  1.0000
  O   O4        1.0  0.43193  0.08164  0.12248  1.0000
  O   O5        1.0  0.23597  0.63142  0.72993  1.0000
  O   O6        1.0  0.76400  0.36858  0.27005  1.0000
