data_image0
_chemical_formula_structural       Cu2H32C30N14O14
_chemical_formula_sum              "Cu2 H32 C30 N14 O14"
_cell_length_a       9.19103
_cell_length_b       9.22993
_cell_length_c       11.8374
_cell_angle_alpha    101.956
_cell_angle_beta     93.1057
_cell_angle_gamma    94.1025

_space_group_name_H-M_alt    "P 1"
_space_group_IT_number       1

loop_
  _space_group_symop_operation_xyz
  'x, y, z'

loop_
  _atom_site_type_symbol
  _atom_site_label
  _atom_site_symmetry_multiplicity
  _atom_site_fract_x
  _atom_site_fract_y
  _atom_site_fract_z
  _atom_site_occupancy
  Cu  Cu1       1.0  0.68266  0.62238  0.87517  1.0000
  Cu  Cu2       1.0  0.31734  0.37761  0.12483  1.0000
  H   H1        1.0  0.86554  0.37916  0.78207  1.0000
  H   H2        1.0  0.13446  0.62082  0.21792  1.0000
  H   H3        1.0  0.92950  0.25739  0.58247  1.0000
  H   H4        1.0  0.07048  0.74260  0.41752  1.0000
  H   H5        1.0  0.84523  0.35800  0.41324  1.0000
  H   H6        1.0  0.15478  0.64201  0.58675  1.0000
  H   H7        1.0  0.64880  0.69665  0.65234  1.0000
  H   H8        1.0  0.35119  0.30335  0.34766  1.0000
  H   H9        1.0  0.71901  0.54762  0.34601  1.0000
  H   H10       1.0  0.28100  0.45239  0.65399  1.0000
  H   H11       1.0  0.53188  0.66463  0.27330  1.0000
  H   H12       1.0  0.46814  0.33538  0.72671  1.0000
  H   H13       1.0  0.43027  0.92693  0.41092  1.0000
  H   H14       1.0  0.56974  0.07306  0.58908  1.0000
  H   H15       1.0  0.41013  0.86028  0.25897  1.0000
  H   H16       1.0  0.58987  0.13972  0.74105  1.0000
  H   H17       1.0  0.53730  0.10901  0.30616  1.0000
  H   H18       1.0  0.46271  0.89100  0.69384  1.0000
  H   H19       1.0  0.66847  0.05694  0.40181  1.0000
  H   H20       1.0  0.33154  0.94306  0.59819  1.0000
  H   H21       1.0  0.67163  0.85964  0.18247  1.0000
  H   H22       1.0  0.32838  0.14035  0.81754  1.0000
  H   H23       1.0  0.89468  0.83187  0.14927  1.0000
  H   H24       1.0  0.10531  0.16813  0.85074  1.0000
  H   H25       1.0  0.10462  0.75701  0.06732  1.0000
  H   H26       1.0  0.89537  0.24298  0.93269  1.0000
  H   H27       1.0  0.36072  0.82618  0.02905  1.0000
  H   H28       1.0  0.63927  0.17379  0.97096  1.0000
  H   H29       1.0  0.45200  0.09723  0.06675  1.0000
  H   H30       1.0  0.54800  0.90274  0.93325  1.0000
  H   H31       1.0  0.04990  0.22515  0.17873  1.0000
  H   H32       1.0  0.95010  0.77485  0.82125  1.0000
  C   C1        1.0  0.83135  0.41982  0.70577  1.0000
  C   C2        1.0  0.16864  0.58017  0.29423  1.0000
  C   C3        1.0  0.86619  0.35414  0.59474  1.0000
  C   C4        1.0  0.13380  0.64585  0.40525  1.0000
  C   C5        1.0  0.82093  0.41221  0.50049  1.0000
  C   C6        1.0  0.17908  0.58779  0.49950  1.0000
  C   C7        1.0  0.74140  0.53880  0.51899  1.0000
  C   C8        1.0  0.25861  0.46120  0.48101  1.0000
  C   C9        1.0  0.70902  0.59862  0.63322  1.0000
  C   C10       1.0  0.29098  0.40137  0.36678  1.0000
  C   C11       1.0  0.63298  0.73601  0.43796  1.0000
  C   C12       1.0  0.36703  0.26400  0.56205  1.0000
  C   C13       1.0  0.49000  0.88862  0.33415  1.0000
  C   C14       1.0  0.51000  0.11138  0.66586  1.0000
  C   C15       1.0  0.59916  0.01622  0.32120  1.0000
  C   C16       1.0  0.40084  0.98378  0.67881  1.0000
  C   C17       1.0  0.82672  0.03604  0.22443  1.0000
  C   C18       1.0  0.17327  0.96392  0.77555  1.0000
  C   C19       1.0  0.05874  0.98560  0.13268  1.0000
  C   C20       1.0  0.94124  0.01439  0.86731  1.0000
  C   C21       1.0  0.14798  0.87333  0.08631  1.0000
  C   C22       1.0  0.85200  0.12666  0.91370  1.0000
  C   C23       1.0  0.29013  0.91211  0.06316  1.0000
  C   C24       1.0  0.70986  0.08787  0.93685  1.0000
  C   C25       1.0  0.34137  0.06127  0.08291  1.0000
  C   C26       1.0  0.65863  0.93872  0.91708  1.0000
  C   C27       1.0  0.11597  0.13440  0.14696  1.0000
  C   C28       1.0  0.88402  0.86559  0.85302  1.0000
  C   C29       1.0  0.49913  0.42666  0.95685  1.0000
  C   C30       1.0  0.50088  0.57336  0.04314  1.0000
  N   N1        1.0  0.75324  0.53936  0.72230  1.0000
  N   N2        1.0  0.24676  0.46063  0.27769  1.0000
  N   N3        1.0  0.69309  0.59805  0.42669  1.0000
  N   N4        1.0  0.30692  0.40197  0.57332  1.0000
  N   N5        1.0  0.55737  0.75265  0.34086  1.0000
  N   N6        1.0  0.44264  0.24736  0.65914  1.0000
  N   N7        1.0  0.69150  0.96667  0.22718  1.0000
  N   N8        1.0  0.30850  0.03334  0.77282  1.0000
  N   N9        1.0  0.91861  0.94480  0.15714  1.0000
  N   N10       1.0  0.08139  0.05520  0.84286  1.0000
  N   N11       1.0  0.25315  0.16859  0.12141  1.0000
  N   N12       1.0  0.74685  0.83140  0.87858  1.0000
  N   N13       1.0  0.82351  0.55307  0.09750  1.0000
  N   N14       1.0  0.17650  0.44697  0.90250  1.0000
  O   O1        1.0  0.64742  0.83229  0.52895  1.0000
  O   O2        1.0  0.35259  0.16771  0.47106  1.0000
  O   O3        1.0  0.86408  0.16557  0.27650  1.0000
  O   O4        1.0  0.13591  0.83446  0.72350  1.0000
  O   O5        1.0  0.57081  0.42544  0.86808  1.0000
  O   O6        1.0  0.42918  0.57458  0.13193  1.0000
  O   O7        1.0  0.86608  0.57881  0.00195  1.0000
  O   O8        1.0  0.13394  0.42127  0.99807  1.0000
  O   O9        1.0  0.74718  0.43516  0.10035  1.0000
  O   O10       1.0  0.25284  0.56485  0.89963  1.0000
  O   O11       1.0  0.85658  0.65030  0.19040  1.0000
  O   O12       1.0  0.14341  0.34971  0.80961  1.0000
  O   O13       1.0  0.42500  0.31545  0.97800  1.0000
  O   O14       1.0  0.57500  0.68455  0.02200  1.0000
