data_image0
_chemical_formula_structural       Cu2P4H36C36N4O12
_chemical_formula_sum              "Cu2 P4 H36 C36 N4 O12"
_cell_length_a       9.91429
_cell_length_b       9.85228
_cell_length_c       11.2784
_cell_angle_alpha    109.699
_cell_angle_beta     108.468
_cell_angle_gamma    91.0248

_space_group_name_H-M_alt    "P 1"
_space_group_IT_number       1

loop_
  _space_group_symop_operation_xyz
  'x, y, z'

loop_
  _atom_site_type_symbol
  _atom_site_label
  _atom_site_symmetry_multiplicity
  _atom_site_fract_x
  _atom_site_fract_y
  _atom_site_fract_z
  _atom_site_occupancy
  Cu  Cu1       1.0  0.75108  0.86860  0.95816  1.0000
  Cu  Cu2       1.0  0.24893  0.13140  0.04184  1.0000
  P   P1        1.0  0.93396  0.01078  0.83275  1.0000
  P   P2        1.0  0.06605  0.98923  0.16725  1.0000
  P   P3        1.0  0.67938  0.57685  0.65549  1.0000
  P   P4        1.0  0.32062  0.42316  0.34451  1.0000
  H   H1        1.0  0.90334  0.77446  0.78242  1.0000
  H   H2        1.0  0.09666  0.22554  0.21758  1.0000
  H   H3        1.0  0.56296  0.59336  0.46071  1.0000
  H   H4        1.0  0.43704  0.40665  0.53930  1.0000
  H   H5        1.0  0.99659  0.24556  0.65595  1.0000
  H   H6        1.0  0.00341  0.75444  0.34406  1.0000
  H   H7        1.0  0.81730  0.71200  0.15347  1.0000
  H   H8        1.0  0.18271  0.28800  0.84653  1.0000
  H   H9        1.0  0.60651  0.98078  0.73721  1.0000
  H   H10       1.0  0.39349  0.01921  0.26278  1.0000
  H   H11       1.0  0.73836  0.94967  0.62920  1.0000
  H   H12       1.0  0.26164  0.05034  0.37080  1.0000
  H   H13       1.0  0.79511  0.14220  0.70194  1.0000
  H   H14       1.0  0.20488  0.85781  0.29807  1.0000
  H   H15       1.0  0.21754  0.80636  0.85501  1.0000
  H   H16       1.0  0.78247  0.19364  0.14498  1.0000
  H   H17       1.0  0.15453  0.91049  0.67799  1.0000
  H   H18       1.0  0.84547  0.08950  0.32201  1.0000
  H   H19       1.0  0.35043  0.99807  0.61231  1.0000
  H   H20       1.0  0.64957  0.00192  0.38769  1.0000
  H   H21       1.0  0.80776  0.37754  0.66321  1.0000
  H   H22       1.0  0.19224  0.62246  0.33679  1.0000
  H   H23       1.0  0.68447  0.34441  0.49980  1.0000
  H   H24       1.0  0.31552  0.65559  0.50020  1.0000
  H   H25       1.0  0.85699  0.78414  0.49061  1.0000
  H   H26       1.0  0.14301  0.21587  0.50940  1.0000
  H   H27       1.0  0.74793  0.43700  0.34454  1.0000
  H   H28       1.0  0.25205  0.56300  0.65546  1.0000
  H   H29       1.0  0.05695  0.50319  0.73180  1.0000
  H   H30       1.0  0.94303  0.49681  0.26820  1.0000
  H   H31       1.0  0.29404  0.71315  0.00617  1.0000
  H   H32       1.0  0.70597  0.28684  0.99383  1.0000
  H   H33       1.0  0.40752  0.60203  0.18090  1.0000
  H   H34       1.0  0.59250  0.39796  0.81909  1.0000
  H   H35       1.0  0.67060  0.60304  0.25610  1.0000
  H   H36       1.0  0.32941  0.39696  0.74390  1.0000
  C   C1        1.0  0.49717  0.76461  0.98745  1.0000
  C   C2        1.0  0.50283  0.23538  0.01255  1.0000
  C   C3        1.0  0.44573  0.83043  0.88523  1.0000
  C   C4        1.0  0.55427  0.16957  0.11477  1.0000
  C   C5        1.0  0.99872  0.13727  0.58808  1.0000
  C   C6        1.0  0.00128  0.86274  0.41192  1.0000
  C   C7        1.0  0.91600  0.01760  0.58339  1.0000
  C   C8        1.0  0.08400  0.98241  0.41661  1.0000
  C   C9        1.0  0.70101  0.70632  0.12370  1.0000
  C   C10       1.0  0.29900  0.29368  0.87629  1.0000
  C   C11       1.0  0.51631  0.94000  0.75655  1.0000
  C   C12       1.0  0.48369  0.05999  0.24344  1.0000
  C   C13       1.0  0.83216  0.03503  0.67594  1.0000
  C   C14       1.0  0.16783  0.96498  0.32407  1.0000
  C   C15       1.0  0.30217  0.84239  0.82568  1.0000
  C   C16       1.0  0.69783  0.15760  0.17431  1.0000
  C   C17       1.0  0.26636  0.90233  0.72594  1.0000
  C   C18       1.0  0.73364  0.09766  0.27405  1.0000
  C   C19       1.0  0.37465  0.95039  0.68955  1.0000
  C   C20       1.0  0.62535  0.04960  0.31044  1.0000
  C   C21       1.0  0.76904  0.42495  0.58514  1.0000
  C   C22       1.0  0.23095  0.57506  0.41486  1.0000
  C   C23       1.0  0.91824  0.87921  0.49372  1.0000
  C   C24       1.0  0.08176  0.12080  0.50628  1.0000
  C   C25       1.0  0.88850  0.46397  0.54257  1.0000
  C   C26       1.0  0.11148  0.53603  0.45743  1.0000
  C   C27       1.0  0.85898  0.46476  0.41276  1.0000
  C   C28       1.0  0.14101  0.53524  0.58724  1.0000
  C   C29       1.0  0.03153  0.50079  0.62941  1.0000
  C   C30       1.0  0.96845  0.49921  0.37058  1.0000
  C   C31       1.0  0.40896  0.70774  0.03964  1.0000
  C   C32       1.0  0.59105  0.29225  0.96036  1.0000
  C   C33       1.0  0.47096  0.64849  0.13700  1.0000
  C   C34       1.0  0.52905  0.35150  0.86300  1.0000
  C   C35       1.0  0.61918  0.64770  0.17955  1.0000
  C   C36       1.0  0.38083  0.35229  0.82044  1.0000
  N   N1        1.0  0.55051  0.88164  0.85159  1.0000
  N   N2        1.0  0.44949  0.11835  0.14840  1.0000
  N   N3        1.0  0.64106  0.76350  0.03049  1.0000
  N   N4        1.0  0.35895  0.23650  0.96950  1.0000
  O   O1        1.0  0.82989  0.02041  0.91003  1.0000
  O   O2        1.0  0.17012  0.97960  0.08997  1.0000
  O   O3        1.0  0.78854  0.68179  0.78631  1.0000
  O   O4        1.0  0.21146  0.31820  0.21369  1.0000
  O   O5        1.0  0.97937  0.85405  0.78850  1.0000
  O   O6        1.0  0.02063  0.14595  0.21150  1.0000
  O   O7        1.0  0.06713  0.12589  0.90136  1.0000
  O   O8        1.0  0.93287  0.87411  0.09864  1.0000
  O   O9        1.0  0.54641  0.51287  0.66881  1.0000
  O   O10       1.0  0.45359  0.48714  0.33120  1.0000
  O   O11       1.0  0.63898  0.65903  0.55140  1.0000
  O   O12       1.0  0.36102  0.34097  0.44861  1.0000
