data_image0
_chemical_formula_structural       Cu2P4H36C40N4O12
_chemical_formula_sum              "Cu2 P4 H36 C40 N4 O12"
_cell_length_a       9.9167
_cell_length_b       10.5818
_cell_length_c       11.1575
_cell_angle_alpha    69.8501
_cell_angle_beta     71.2825
_cell_angle_gamma    91.4303

_space_group_name_H-M_alt    "P 1"
_space_group_IT_number       1

loop_
  _space_group_symop_operation_xyz
  'x, y, z'

loop_
  _atom_site_type_symbol
  _atom_site_label
  _atom_site_symmetry_multiplicity
  _atom_site_fract_x
  _atom_site_fract_y
  _atom_site_fract_z
  _atom_site_occupancy
  Cu  Cu1       1.0  0.36722  0.76805  0.04437  1.0000
  Cu  Cu2       1.0  0.63277  0.23193  0.95564  1.0000
  P   P1        1.0  0.50650  0.93009  0.17527  1.0000
  P   P2        1.0  0.49351  0.06989  0.82473  1.0000
  P   P3        1.0  0.07028  0.68922  0.35206  1.0000
  P   P4        1.0  0.92973  0.31079  0.64793  1.0000
  H   H1        1.0  0.27146  0.89746  0.22618  1.0000
  H   H2        1.0  0.72855  0.10253  0.77383  1.0000
  H   H3        1.0  0.08907  0.55247  0.54512  1.0000
  H   H4        1.0  0.91096  0.44755  0.45486  1.0000
  H   H5        1.0  0.49061  0.60026  0.26958  1.0000
  H   H6        1.0  0.50937  0.39970  0.73045  1.0000
  H   H7        1.0  0.50556  0.35034  0.37391  1.0000
  H   H8        1.0  0.49442  0.64963  0.62610  1.0000
  H   H9        1.0  0.40502  0.18525  0.29708  1.0000
  H   H10       1.0  0.59496  0.81473  0.70291  1.0000
  H   H11       1.0  0.28292  0.15109  0.13815  1.0000
  H   H12       1.0  0.71706  0.84890  0.86185  1.0000
  H   H13       1.0  0.16890  0.24808  0.96583  1.0000
  H   H14       1.0  0.83108  0.75193  0.03417  1.0000
  H   H15       1.0  0.10025  0.46145  0.80791  1.0000
  H   H16       1.0  0.89973  0.53856  0.19208  1.0000
  H   H17       1.0  0.10744  0.71285  0.72991  1.0000
  H   H18       1.0  0.89255  0.28718  0.27009  1.0000
  H   H19       1.0  0.21262  0.84561  0.83727  1.0000
  H   H20       1.0  0.78737  0.15439  0.16276  1.0000
  H   H21       1.0  0.44913  0.74282  0.38422  1.0000
  H   H22       1.0  0.55089  0.25717  0.61577  1.0000
  H   H23       1.0  0.63937  0.80141  0.31011  1.0000
  H   H24       1.0  0.36065  0.19859  0.68989  1.0000
  H   H25       1.0  0.74380  0.97826  0.36392  1.0000
  H   H26       1.0  0.25621  0.02171  0.63609  1.0000
  H   H27       1.0  0.71682  0.12427  0.49904  1.0000
  H   H28       1.0  0.28320  0.87571  0.50097  1.0000
  H   H29       1.0  0.87624  0.81312  0.34347  1.0000
  H   H30       1.0  0.12378  0.18690  0.65653  1.0000
  H   H31       1.0  0.84626  0.69722  0.51100  1.0000
  H   H32       1.0  0.15376  0.30280  0.48901  1.0000
  H   H33       1.0  0.00875  0.05132  0.26297  1.0000
  H   H34       1.0  0.99127  0.94871  0.73703  1.0000
  H   H35       1.0  0.06410  0.23740  0.33425  1.0000
  H   H36       1.0  0.93591  0.76262  0.66576  1.0000
  C   C1        1.0  0.44466  0.52445  0.24211  1.0000
  C   C2        1.0  0.55532  0.47552  0.75791  1.0000
  C   C3        1.0  0.45340  0.38494  0.29848  1.0000
  C   C4        1.0  0.54659  0.61504  0.70153  1.0000
  C   C5        1.0  0.39821  0.29351  0.25586  1.0000
  C   C6        1.0  0.60178  0.70647  0.74413  1.0000
  C   C7        1.0  0.33208  0.34238  0.15696  1.0000
  C   C8        1.0  0.66790  0.65761  0.84304  1.0000
  C   C9        1.0  0.27323  0.25881  0.10290  1.0000
  C   C10       1.0  0.72675  0.74119  0.89710  1.0000
  C   C11       1.0  0.21095  0.31321  0.00720  1.0000
  C   C12       1.0  0.78903  0.68679  0.99280  1.0000
  C   C13       1.0  0.20304  0.45574  0.95616  1.0000
  C   C14       1.0  0.79694  0.54427  0.04384  1.0000
  C   C15       1.0  0.14580  0.52021  0.85343  1.0000
  C   C16       1.0  0.85418  0.47980  0.14657  1.0000
  C   C17       1.0  0.14857  0.65990  0.81016  1.0000
  C   C18       1.0  0.85143  0.34012  0.18984  1.0000
  C   C19       1.0  0.20625  0.73555  0.86885  1.0000
  C   C20       1.0  0.79374  0.26445  0.13115  1.0000
  C   C21       1.0  0.26047  0.53985  0.00846  1.0000
  C   C22       1.0  0.73952  0.46015  0.99154  1.0000
  C   C23       1.0  0.32543  0.48348  0.10847  1.0000
  C   C24       1.0  0.67455  0.51651  0.89154  1.0000
  C   C25       1.0  0.53255  0.83360  0.33516  1.0000
  C   C26       1.0  0.46747  0.16639  0.66483  1.0000
  C   C27       1.0  0.51594  0.91561  0.42351  1.0000
  C   C28       1.0  0.48408  0.08440  0.57648  1.0000
  C   C29       1.0  0.63625  0.98793  0.42328  1.0000
  C   C30       1.0  0.36376  0.01207  0.57671  1.0000
  C   C31       1.0  0.62145  0.07117  0.49846  1.0000
  C   C32       1.0  0.37857  0.92883  0.50153  1.0000
  C   C33       1.0  0.92599  0.77707  0.42188  1.0000
  C   C34       1.0  0.07403  0.22295  0.57812  1.0000
  C   C35       1.0  0.96681  0.89201  0.45995  1.0000
  C   C36       1.0  0.03322  0.10801  0.54005  1.0000
  C   C37       1.0  0.00364  0.02764  0.36784  1.0000
  C   C38       1.0  0.99638  0.97239  0.63216  1.0000
  C   C39       1.0  0.03507  0.13284  0.40773  1.0000
  C   C40       1.0  0.96495  0.86718  0.59226  1.0000
  N   N1        1.0  0.38224  0.57205  0.14962  1.0000
  N   N2        1.0  0.61774  0.42794  0.85040  1.0000
  N   N3        1.0  0.26102  0.67648  0.96511  1.0000
  N   N4        1.0  0.73897  0.32352  0.03490  1.0000
  O   O1        1.0  0.62149  0.05659  0.10195  1.0000
  O   O2        1.0  0.37852  0.94339  0.89803  1.0000
  O   O3        1.0  0.17852  0.79467  0.22096  1.0000
  O   O4        1.0  0.82148  0.20535  0.77903  1.0000
  O   O5        1.0  0.51341  0.83243  0.10012  1.0000
  O   O6        1.0  0.48658  0.16756  0.89988  1.0000
  O   O7        1.0  0.35141  0.97052  0.21930  1.0000
  O   O8        1.0  0.64860  0.02947  0.78072  1.0000
  O   O9        1.0  0.14840  0.63865  0.46094  1.0000
  O   O10       1.0  0.85162  0.36135  0.53904  1.0000
  O   O11       1.0  0.00061  0.57083  0.33353  1.0000
  O   O12       1.0  0.99938  0.42919  0.66647  1.0000
