data_image0
_chemical_formula_structural       Li4H32C20N4O16
_chemical_formula_sum              "Li4 H32 C20 N4 O16"
_cell_length_a       5.13646
_cell_length_b       7.991
_cell_length_c       15.8662
_cell_angle_alpha    89.9997
_cell_angle_beta     90
_cell_angle_gamma    90.0002

_space_group_name_H-M_alt    "P 1"
_space_group_IT_number       1

loop_
  _space_group_symop_operation_xyz
  'x, y, z'

loop_
  _atom_site_type_symbol
  _atom_site_label
  _atom_site_symmetry_multiplicity
  _atom_site_fract_x
  _atom_site_fract_y
  _atom_site_fract_z
  _atom_site_occupancy
  Li  Li1       1.0  0.46620  0.28418  0.65261  1.0000
  Li  Li2       1.0  0.03380  0.71582  0.15261  1.0000
  Li  Li3       1.0  0.53380  0.78418  0.84739  1.0000
  Li  Li4       1.0  0.96620  0.21582  0.34739  1.0000
  H   H1        1.0  0.94249  0.77306  0.73134  1.0000
  H   H2        1.0  0.55750  0.22694  0.23134  1.0000
  H   H3        1.0  0.05751  0.27306  0.76866  1.0000
  H   H4        1.0  0.44249  0.72694  0.26866  1.0000
  H   H5        1.0  0.72707  0.69749  0.60534  1.0000
  H   H6        1.0  0.77293  0.30252  0.10534  1.0000
  H   H7        1.0  0.27293  0.19748  0.89466  1.0000
  H   H8        1.0  0.22707  0.80251  0.39466  1.0000
  H   H9        1.0  0.02186  0.65677  0.55204  1.0000
  H   H10       1.0  0.47813  0.34323  0.05204  1.0000
  H   H11       1.0  0.97813  0.15677  0.94797  1.0000
  H   H12       1.0  0.52186  0.84323  0.44796  1.0000
  H   H13       1.0  0.75745  0.99775  0.57426  1.0000
  H   H14       1.0  0.74255  0.00226  0.07427  1.0000
  H   H15       1.0  0.24255  0.49774  0.92574  1.0000
  H   H16       1.0  0.25745  0.50225  0.42574  1.0000
  H   H17       1.0  0.94592  0.92866  0.48794  1.0000
  H   H18       1.0  0.55409  0.07134  0.98794  1.0000
  H   H19       1.0  0.05408  0.42866  0.01206  1.0000
  H   H20       1.0  0.44592  0.57134  0.51206  1.0000
  H   H21       1.0  0.36224  0.96034  0.70854  1.0000
  H   H22       1.0  0.13776  0.03966  0.20854  1.0000
  H   H23       1.0  0.63776  0.46034  0.79146  1.0000
  H   H24       1.0  0.86224  0.53966  0.29146  1.0000
  H   H25       1.0  0.93233  0.39608  0.61611  1.0000
  H   H26       1.0  0.56767  0.60392  0.11611  1.0000
  H   H27       1.0  0.06767  0.89608  0.88389  1.0000
  H   H28       1.0  0.43233  0.10392  0.38389  1.0000
  H   H29       1.0  0.77756  0.34470  0.53254  1.0000
  H   H30       1.0  0.72244  0.65530  0.03254  1.0000
  H   H31       1.0  0.22245  0.84470  0.96746  1.0000
  H   H32       1.0  0.27756  0.15530  0.46746  1.0000
  C   C1        1.0  0.25845  0.61175  0.69965  1.0000
  C   C2        1.0  0.24153  0.38825  0.19965  1.0000
  C   C3        1.0  0.74154  0.11175  0.80035  1.0000
  C   C4        1.0  0.75846  0.88825  0.30035  1.0000
  C   C5        1.0  0.07732  0.75907  0.67765  1.0000
  C   C6        1.0  0.42267  0.24093  0.17765  1.0000
  C   C7        1.0  0.92268  0.25907  0.82235  1.0000
  C   C8        1.0  0.57732  0.74093  0.32235  1.0000
  C   C9        1.0  0.92344  0.74536  0.59412  1.0000
  C   C10       1.0  0.57656  0.25464  0.09413  1.0000
  C   C11       1.0  0.07656  0.24536  0.90588  1.0000
  C   C12       1.0  0.42344  0.75464  0.40588  1.0000
  C   C13       1.0  0.92915  0.92257  0.55672  1.0000
  C   C14       1.0  0.57085  0.07744  0.05672  1.0000
  C   C15       1.0  0.07085  0.42257  0.94328  1.0000
  C   C16       1.0  0.42914  0.57743  0.44328  1.0000
  C   C17       1.0  0.16006  0.00337  0.59904  1.0000
  C   C18       1.0  0.33996  0.99664  0.09904  1.0000
  C   C19       1.0  0.83995  0.50336  0.90096  1.0000
  C   C20       1.0  0.66005  0.49663  0.40096  1.0000
  N   N1        1.0  0.22595  0.91344  0.66686  1.0000
  N   N2        1.0  0.27405  0.08656  0.16686  1.0000
  N   N3        1.0  0.77405  0.41344  0.83314  1.0000
  N   N4        1.0  0.72595  0.58656  0.33314  1.0000
  O   O1        1.0  0.21301  0.46916  0.66743  1.0000
  O   O2        1.0  0.28698  0.53084  0.16742  1.0000
  O   O3        1.0  0.78699  0.96916  0.83257  1.0000
  O   O4        1.0  0.71302  0.03084  0.33257  1.0000
  O   O5        1.0  0.44352  0.64176  0.75046  1.0000
  O   O6        1.0  0.05648  0.35824  0.25046  1.0000
  O   O7        1.0  0.55648  0.14176  0.74954  1.0000
  O   O8        1.0  0.94352  0.85825  0.24954  1.0000
  O   O9        1.0  0.27346  0.13582  0.57655  1.0000
  O   O10       1.0  0.22655  0.86418  0.07655  1.0000
  O   O11       1.0  0.72655  0.63581  0.92345  1.0000
  O   O12       1.0  0.77346  0.36418  0.42345  1.0000
  O   O13       1.0  0.76605  0.35001  0.59482  1.0000
  O   O14       1.0  0.73395  0.64999  0.09481  1.0000
  O   O15       1.0  0.23395  0.85001  0.90519  1.0000
  O   O16       1.0  0.26605  0.14999  0.40519  1.0000
