data_image0
_chemical_formula_structural       K3Sc3H12C12O30
_chemical_formula_sum              "K3 Sc3 H12 C12 O30"
_cell_length_a       8.87554
_cell_length_b       8.87562
_cell_length_c       11.6107
_cell_angle_alpha    90
_cell_angle_beta     89.9997
_cell_angle_gamma    120.001

_space_group_name_H-M_alt    "P 1"
_space_group_IT_number       1

loop_
  _space_group_symop_operation_xyz
  'x, y, z'

loop_
  _atom_site_type_symbol
  _atom_site_label
  _atom_site_symmetry_multiplicity
  _atom_site_fract_x
  _atom_site_fract_y
  _atom_site_fract_z
  _atom_site_occupancy
  K   K1        1.0  0.00000  0.00000  0.33332  1.0000
  K   K2        1.0  1.00000  0.00000  0.66668  1.0000
  K   K3        1.0  0.00000  0.00000  0.99999  1.0000
  Sc  Sc1       1.0  0.50000  0.50000  0.33333  1.0000
  Sc  Sc2       1.0  1.00000  0.50000  0.66666  1.0000
  Sc  Sc3       1.0  0.49999  1.00000  0.00001  1.0000
  H   H1        1.0  0.09912  0.34773  0.18378  1.0000
  H   H2        1.0  0.90088  0.65228  0.18378  1.0000
  H   H3        1.0  0.65232  0.90087  0.48287  1.0000
  H   H4        1.0  0.34769  0.09913  0.48287  1.0000
  H   H5        1.0  0.75138  0.65227  0.81621  1.0000
  H   H6        1.0  0.24863  0.34774  0.81621  1.0000
  H   H7        1.0  0.09912  0.75140  0.14952  1.0000
  H   H8        1.0  0.90089  0.24861  0.14952  1.0000
  H   H9        1.0  0.65226  0.75138  0.85047  1.0000
  H   H10       1.0  0.34774  0.24863  0.85048  1.0000
  H   H11       1.0  0.75143  0.09911  0.51712  1.0000
  H   H12       1.0  0.24858  0.90089  0.51712  1.0000
  C   C1        1.0  0.21032  0.42064  0.50001  1.0000
  C   C2        1.0  0.78967  0.57935  0.50001  1.0000
  C   C3        1.0  0.57935  0.78967  0.16666  1.0000
  C   C4        1.0  0.42065  0.21033  0.16666  1.0000
  C   C5        1.0  0.21032  0.78967  0.83333  1.0000
  C   C6        1.0  0.78968  0.21032  0.83333  1.0000
  C   C7        1.0  0.30992  0.61983  0.50001  1.0000
  C   C8        1.0  0.69008  0.38017  0.50001  1.0000
  C   C9        1.0  0.38018  0.69009  0.16667  1.0000
  C   C10       1.0  0.61982  0.30991  0.16667  1.0000
  C   C11       1.0  0.30991  0.69009  0.83333  1.0000
  C   C12       1.0  0.69008  0.30990  0.83333  1.0000
  O   O1        1.0  0.26555  0.34564  0.43416  1.0000
  O   O2        1.0  0.73446  0.65436  0.43416  1.0000
  O   O3        1.0  0.65437  0.73445  0.23249  1.0000
  O   O4        1.0  0.34563  0.26555  0.23250  1.0000
  O   O5        1.0  0.91991  0.65435  0.56584  1.0000
  O   O6        1.0  0.08009  0.34565  0.56584  1.0000
  O   O7        1.0  0.26554  0.91991  0.89917  1.0000
  O   O8        1.0  0.73445  0.08009  0.89917  1.0000
  O   O9        1.0  0.65437  0.91991  0.10084  1.0000
  O   O10       1.0  0.34563  0.08009  0.10084  1.0000
  O   O11       1.0  0.91992  0.26555  0.76750  1.0000
  O   O12       1.0  0.08008  0.73445  0.76750  1.0000
  O   O13       1.0  0.44936  0.69146  0.44196  1.0000
  O   O14       1.0  0.55065  0.30854  0.44195  1.0000
  O   O15       1.0  0.30854  0.55066  0.22472  1.0000
  O   O16       1.0  0.69146  0.44934  0.22472  1.0000
  O   O17       1.0  0.75787  0.30853  0.55804  1.0000
  O   O18       1.0  0.24212  0.69146  0.55804  1.0000
  O   O19       1.0  0.44934  0.75788  0.89139  1.0000
  O   O20       1.0  0.55065  0.24211  0.89139  1.0000
  O   O21       1.0  0.30855  0.75789  0.10862  1.0000
  O   O22       1.0  0.69144  0.24210  0.10862  1.0000
  O   O23       1.0  0.75786  0.44933  0.77529  1.0000
  O   O24       1.0  0.24213  0.55067  0.77528  1.0000
  O   O25       1.0  0.00001  0.23192  0.16664  1.0000
  O   O26       1.0  0.99999  0.76809  0.16664  1.0000
  O   O27       1.0  0.76814  1.00000  0.50000  1.0000
  O   O28       1.0  0.23188  0.00001  0.50000  1.0000
  O   O29       1.0  0.76807  0.76808  0.83334  1.0000
  O   O30       1.0  0.23193  0.23193  0.83334  1.0000
