data_image0
_chemical_formula_structural       Ag4H22C28N6O12
_chemical_formula_sum              "Ag4 H22 C28 N6 O12"
_cell_length_a       8.23922
_cell_length_b       10.0145
_cell_length_c       10.2896
_cell_angle_alpha    65.3642
_cell_angle_beta     77.7043
_cell_angle_gamma    79.6893

_space_group_name_H-M_alt    "P 1"
_space_group_IT_number       1

loop_
  _space_group_symop_operation_xyz
  'x, y, z'

loop_
  _atom_site_type_symbol
  _atom_site_label
  _atom_site_symmetry_multiplicity
  _atom_site_fract_x
  _atom_site_fract_y
  _atom_site_fract_z
  _atom_site_occupancy
  Ag  Ag1       1.0  0.77364  0.29606  0.18855  1.0000
  Ag  Ag2       1.0  0.22636  0.70394  0.81145  1.0000
  Ag  Ag3       1.0  0.91161  0.62702  0.02072  1.0000
  Ag  Ag4       1.0  0.08838  0.37298  0.97928  1.0000
  H   H1        1.0  0.59193  0.80131  0.65952  1.0000
  H   H2        1.0  0.40807  0.19869  0.34048  1.0000
  H   H3        1.0  0.87645  0.41864  0.60431  1.0000
  H   H4        1.0  0.12356  0.58136  0.39569  1.0000
  H   H5        1.0  0.54671  0.69516  0.30325  1.0000
  H   H6        1.0  0.45329  0.30484  0.69675  1.0000
  H   H7        1.0  0.48859  0.24953  0.06201  1.0000
  H   H8        1.0  0.51141  0.75047  0.93799  1.0000
  H   H9        1.0  0.53268  0.21870  0.89920  1.0000
  H   H10       1.0  0.46732  0.78130  0.10080  1.0000
  H   H11       1.0  0.65667  0.33114  0.92594  1.0000
  H   H12       1.0  0.34333  0.66886  0.07406  1.0000
  H   H13       1.0  0.66350  0.97323  0.93371  1.0000
  H   H14       1.0  0.33650  0.02677  0.06629  1.0000
  H   H15       1.0  0.99773  0.76200  0.22466  1.0000
  H   H16       1.0  0.00227  0.23800  0.77534  1.0000
  H   H17       1.0  0.08239  0.07550  0.25859  1.0000
  H   H18       1.0  0.91761  0.92451  0.74141  1.0000
  H   H19       1.0  0.07022  0.88221  0.36230  1.0000
  H   H20       1.0  0.92978  0.11779  0.63770  1.0000
  H   H21       1.0  0.91250  0.01426  0.39831  1.0000
  H   H22       1.0  0.08749  0.98574  0.60169  1.0000
  C   C1        1.0  0.55869  0.75839  0.47750  1.0000
  C   C2        1.0  0.44131  0.24161  0.52250  1.0000
  C   C3        1.0  0.62639  0.72921  0.60103  1.0000
  C   C4        1.0  0.37362  0.27079  0.39897  1.0000
  C   C5        1.0  0.74456  0.60715  0.64554  1.0000
  C   C6        1.0  0.25544  0.39285  0.35446  1.0000
  C   C7        1.0  0.78713  0.51564  0.56883  1.0000
  C   C8        1.0  0.21288  0.48436  0.43117  1.0000
  C   C9        1.0  0.71714  0.54601  0.44588  1.0000
  C   C10       1.0  0.28286  0.45399  0.55413  1.0000
  C   C11       1.0  0.60307  0.67041  0.39803  1.0000
  C   C12       1.0  0.39693  0.32959  0.60196  1.0000
  C   C13       1.0  0.82409  0.57218  0.77619  1.0000
  C   C14       1.0  0.17591  0.42782  0.22381  1.0000
  C   C15       1.0  0.76067  0.44033  0.37167  1.0000
  C   C16       1.0  0.23933  0.55968  0.62833  1.0000
  C   C17       1.0  0.58946  0.23197  0.97952  1.0000
  C   C18       1.0  0.41054  0.76803  0.02048  1.0000
  C   C19       1.0  0.70669  0.10035  0.04708  1.0000
  C   C20       1.0  0.29330  0.89965  0.95292  1.0000
  C   C21       1.0  0.72869  0.97512  0.01449  1.0000
  C   C22       1.0  0.27131  0.02488  0.98551  1.0000
  C   C23       1.0  0.91465  0.85996  0.17414  1.0000
  C   C24       1.0  0.08535  0.14004  0.82586  1.0000
  C   C25       1.0  0.89971  0.98388  0.20806  1.0000
  C   C26       1.0  0.10029  0.01612  0.79194  1.0000
  C   C27       1.0  0.99730  0.98814  0.31218  1.0000
  C   C28       1.0  0.00270  0.01186  0.68782  1.0000
  N   N1        1.0  0.79543  0.10342  0.14217  1.0000
  N   N2        1.0  0.20457  0.89658  0.85783  1.0000
  N   N3        1.0  0.83250  0.85610  0.07687  1.0000
  N   N4        1.0  0.16751  0.14390  0.92313  1.0000
  N   N5        1.0  0.43430  0.88485  0.43017  1.0000
  N   N6        1.0  0.56570  0.11515  0.56983  1.0000
  O   O1        1.0  0.70230  0.48174  0.25110  1.0000
  O   O2        1.0  0.29770  0.51827  0.74889  1.0000
  O   O3        1.0  0.84476  0.31999  0.42893  1.0000
  O   O4        1.0  0.15524  0.68001  0.57107  1.0000
  O   O5        1.0  0.91130  0.44774  0.82022  1.0000
  O   O6        1.0  0.08870  0.55226  0.17978  1.0000
  O   O7        1.0  0.79482  0.66751  0.83222  1.0000
  O   O8        1.0  0.20518  0.33249  0.16779  1.0000
  O   O9        1.0  0.35634  0.93378  0.52100  1.0000
  O   O10       1.0  0.64366  0.06621  0.47900  1.0000
  O   O11       1.0  0.41321  0.93770  0.30124  1.0000
  O   O12       1.0  0.58679  0.06230  0.69877  1.0000
