data_image0
_chemical_formula_structural       Ag4H22C28N6O12
_chemical_formula_sum              "Ag4 H22 C28 N6 O12"
_cell_length_a       6.79886
_cell_length_b       10.2684
_cell_length_c       11.1538
_cell_angle_alpha    93.9611
_cell_angle_beta     97.9599
_cell_angle_gamma    96.7251

_space_group_name_H-M_alt    "P 1"
_space_group_IT_number       1

loop_
  _space_group_symop_operation_xyz
  'x, y, z'

loop_
  _atom_site_type_symbol
  _atom_site_label
  _atom_site_symmetry_multiplicity
  _atom_site_fract_x
  _atom_site_fract_y
  _atom_site_fract_z
  _atom_site_occupancy
  Ag  Ag1       1.0  0.94724  0.87758  0.54332  1.0000
  Ag  Ag2       1.0  0.05277  0.12242  0.45668  1.0000
  Ag  Ag3       1.0  0.63412  0.16600  0.54951  1.0000
  Ag  Ag4       1.0  0.36589  0.83400  0.45049  1.0000
  H   H1        1.0  0.87532  0.01939  0.94806  1.0000
  H   H2        1.0  0.12467  0.98060  0.05194  1.0000
  H   H3        1.0  0.82842  0.18574  0.11225  1.0000
  H   H4        1.0  0.17157  0.81426  0.88775  1.0000
  H   H5        1.0  0.52326  0.30638  0.08189  1.0000
  H   H6        1.0  0.47674  0.69362  0.91811  1.0000
  H   H7        1.0  0.56241  0.34442  0.75416  1.0000
  H   H8        1.0  0.43760  0.65557  0.24584  1.0000
  H   H9        1.0  0.73881  0.47059  0.84166  1.0000
  H   H10       1.0  0.26120  0.52941  0.15834  1.0000
  H   H11       1.0  0.81855  0.32237  0.78492  1.0000
  H   H12       1.0  0.18146  0.67763  0.21508  1.0000
  H   H13       1.0  0.84845  0.65318  0.73354  1.0000
  H   H14       1.0  0.15156  0.34682  0.26646  1.0000
  H   H15       1.0  0.80440  0.61645  0.35891  1.0000
  H   H16       1.0  0.19561  0.38354  0.64109  1.0000
  H   H17       1.0  0.75967  0.26468  0.32299  1.0000
  H   H18       1.0  0.24033  0.73532  0.67701  1.0000
  H   H19       1.0  0.71217  0.40771  0.24603  1.0000
  H   H20       1.0  0.28783  0.59229  0.75397  1.0000
  H   H21       1.0  0.51680  0.31028  0.30419  1.0000
  H   H22       1.0  0.48320  0.68972  0.69581  1.0000
  C   C1        1.0  0.60759  0.04303  0.83231  1.0000
  C   C2        1.0  0.39241  0.95697  0.16769  1.0000
  C   C3        1.0  0.74529  0.07238  0.93902  1.0000
  C   C4        1.0  0.25470  0.92762  0.06098  1.0000
  C   C5        1.0  0.71963  0.16658  0.02976  1.0000
  C   C6        1.0  0.28036  0.83342  0.97024  1.0000
  C   C7        1.0  0.55174  0.23228  0.01445  1.0000
  C   C8        1.0  0.44825  0.76772  0.98555  1.0000
  C   C9        1.0  0.40966  0.19844  0.91085  1.0000
  C   C10       1.0  0.59034  0.80156  0.08915  1.0000
  C   C11       1.0  0.43155  0.10332  0.81846  1.0000
  C   C12       1.0  0.56844  0.89667  0.18154  1.0000
  C   C13       1.0  0.27777  0.06847  0.70664  1.0000
  C   C14       1.0  0.72223  0.93153  0.29336  1.0000
  C   C15       1.0  0.65773  0.94661  0.73621  1.0000
  C   C16       1.0  0.34227  0.05339  0.26378  1.0000
  C   C17       1.0  0.71566  0.39570  0.76434  1.0000
  C   C18       1.0  0.28434  0.60430  0.23566  1.0000
  C   C19       1.0  0.74765  0.45499  0.64964  1.0000
  C   C20       1.0  0.25235  0.54501  0.35036  1.0000
  C   C21       1.0  0.81539  0.58900  0.64940  1.0000
  C   C22       1.0  0.18461  0.41100  0.35060  1.0000
  C   C23       1.0  0.79010  0.56874  0.44214  1.0000
  C   C24       1.0  0.20990  0.43126  0.55786  1.0000
  C   C25       1.0  0.72554  0.43374  0.43844  1.0000
  C   C26       1.0  0.27446  0.56626  0.56156  1.0000
  C   C27       1.0  0.67649  0.35036  0.32137  1.0000
  C   C28       1.0  0.32351  0.64964  0.67863  1.0000
  N   N1        1.0  0.70768  0.37773  0.54338  1.0000
  N   N2        1.0  0.29231  0.62227  0.45662  1.0000
  N   N3        1.0  0.83781  0.64512  0.54661  1.0000
  N   N4        1.0  0.16219  0.35488  0.45339  1.0000
  N   N5        1.0  0.23338  0.26751  0.89948  1.0000
  N   N6        1.0  0.76662  0.73249  0.10052  1.0000
  O   O1        1.0  0.73834  0.84982  0.77046  1.0000
  O   O2        1.0  0.26166  0.15018  0.22955  1.0000
  O   O3        1.0  0.61716  0.97090  0.62287  1.0000
  O   O4        1.0  0.38284  0.02910  0.37712  1.0000
  O   O5        1.0  0.17846  0.95520  0.69846  1.0000
  O   O6        1.0  0.82154  0.04480  0.30153  1.0000
  O   O7        1.0  0.26871  0.15499  0.63064  1.0000
  O   O8        1.0  0.73130  0.84501  0.36936  1.0000
  O   O9        1.0  0.07770  0.21029  0.83645  1.0000
  O   O10       1.0  0.92230  0.78971  0.16355  1.0000
  O   O11       1.0  0.24770  0.38029  0.95140  1.0000
  O   O12       1.0  0.75230  0.61971  0.04860  1.0000
