data_image0
_chemical_formula_structural       Gd4H48C40N4O32
_chemical_formula_sum              "Gd4 H48 C40 N4 O32"
_cell_length_a       9.26023
_cell_length_b       10.6554
_cell_length_c       13.2486
_cell_angle_alpha    89.9996
_cell_angle_beta     93.9085
_cell_angle_gamma    90.0004

_space_group_name_H-M_alt    "P 1"
_space_group_IT_number       1

loop_
  _space_group_symop_operation_xyz
  'x, y, z'

loop_
  _atom_site_type_symbol
  _atom_site_label
  _atom_site_symmetry_multiplicity
  _atom_site_fract_x
  _atom_site_fract_y
  _atom_site_fract_z
  _atom_site_occupancy
  Gd  Gd1       1.0  0.59618  0.26311  0.63876  1.0000
  Gd  Gd2       1.0  0.90382  0.76311  0.36124  1.0000
  Gd  Gd3       1.0  0.40382  0.73689  0.36124  1.0000
  Gd  Gd4       1.0  0.09618  0.23690  0.63876  1.0000
  H   H1        1.0  0.05292  0.21006  0.98683  1.0000
  H   H2        1.0  0.44708  0.71006  0.01317  1.0000
  H   H3        1.0  0.94708  0.78993  0.01317  1.0000
  H   H4        1.0  0.55293  0.28994  0.98684  1.0000
  H   H5        1.0  0.64085  0.05265  0.88559  1.0000
  H   H6        1.0  0.85915  0.55265  0.11441  1.0000
  H   H7        1.0  0.35915  0.94735  0.11442  1.0000
  H   H8        1.0  0.14085  0.44734  0.88559  1.0000
  H   H9        1.0  0.61824  0.97395  0.06502  1.0000
  H   H10       1.0  0.88176  0.47396  0.93497  1.0000
  H   H11       1.0  0.38176  0.02605  0.93498  1.0000
  H   H12       1.0  0.11824  0.52604  0.06503  1.0000
  H   H13       1.0  0.01086  0.13267  0.16231  1.0000
  H   H14       1.0  0.48914  0.63267  0.83769  1.0000
  H   H15       1.0  0.98914  0.86733  0.83769  1.0000
  H   H16       1.0  0.51086  0.36733  0.16231  1.0000
  H   H17       1.0  0.82903  0.45564  0.68840  1.0000
  H   H18       1.0  0.67097  0.95564  0.31160  1.0000
  H   H19       1.0  0.17097  0.54436  0.31160  1.0000
  H   H20       1.0  0.32902  0.04436  0.68841  1.0000
  H   H21       1.0  0.70686  0.48544  0.76539  1.0000
  H   H22       1.0  0.79313  0.98543  0.23461  1.0000
  H   H23       1.0  0.29314  0.51456  0.23462  1.0000
  H   H24       1.0  0.20686  0.01456  0.76539  1.0000
  H   H25       1.0  0.98285  0.30613  0.39391  1.0000
  H   H26       1.0  0.51715  0.80613  0.60609  1.0000
  H   H27       1.0  0.01714  0.69387  0.60609  1.0000
  H   H28       1.0  0.48285  0.19387  0.39391  1.0000
  H   H29       1.0  0.34651  0.43969  0.58107  1.0000
  H   H30       1.0  0.15349  0.93969  0.41893  1.0000
  H   H31       1.0  0.65349  0.56031  0.41893  1.0000
  H   H32       1.0  0.84651  0.06032  0.58107  1.0000
  H   H33       1.0  0.47540  0.53352  0.58803  1.0000
  H   H34       1.0  0.02460  0.03352  0.41197  1.0000
  H   H35       1.0  0.52460  0.46648  0.41197  1.0000
  H   H36       1.0  0.97540  0.96648  0.58803  1.0000
  H   H37       1.0  0.86413  0.33600  0.22101  1.0000
  H   H38       1.0  0.63586  0.83600  0.77899  1.0000
  H   H39       1.0  0.13586  0.66400  0.77899  1.0000
  H   H40       1.0  0.36413  0.16400  0.22101  1.0000
  H   H41       1.0  0.69378  0.36152  0.27291  1.0000
  H   H42       1.0  0.80622  0.86152  0.72709  1.0000
  H   H43       1.0  0.30622  0.63848  0.72709  1.0000
  H   H44       1.0  0.19378  0.13848  0.27291  1.0000
  H   H45       1.0  0.77712  0.21105  0.28328  1.0000
  H   H46       1.0  0.72288  0.71104  0.71671  1.0000
  H   H47       1.0  0.22288  0.78896  0.71672  1.0000
  H   H48       1.0  0.27712  0.28896  0.28328  1.0000
  C   C1        1.0  0.87026  0.17739  0.81720  1.0000
  C   C2        1.0  0.62975  0.67739  0.18280  1.0000
  C   C3        1.0  0.12975  0.82262  0.18280  1.0000
  C   C4        1.0  0.37025  0.32261  0.81720  1.0000
  C   C5        1.0  0.84914  0.13635  0.92418  1.0000
  C   C6        1.0  0.65086  0.63635  0.07582  1.0000
  C   C7        1.0  0.15086  0.86365  0.07582  1.0000
  C   C8        1.0  0.34914  0.36365  0.92418  1.0000
  C   C9        1.0  0.95435  0.16003  0.00250  1.0000
  C   C10       1.0  0.54565  0.66003  0.99750  1.0000
  C   C11       1.0  0.04565  0.83997  0.99750  1.0000
  C   C12       1.0  0.45435  0.33997  0.00250  1.0000
  C   C13       1.0  0.72427  0.07047  0.94598  1.0000
  C   C14       1.0  0.77573  0.57047  0.05402  1.0000
  C   C15       1.0  0.27573  0.92953  0.05402  1.0000
  C   C16       1.0  0.22427  0.42953  0.94598  1.0000
  C   C17       1.0  0.71193  0.02837  0.04455  1.0000
  C   C18       1.0  0.78807  0.52838  0.95545  1.0000
  C   C19       1.0  0.28807  0.97162  0.95544  1.0000
  C   C20       1.0  0.21193  0.47163  0.04455  1.0000
  C   C21       1.0  0.93130  0.11626  0.09905  1.0000
  C   C22       1.0  0.56870  0.61626  0.90095  1.0000
  C   C23       1.0  0.06871  0.88374  0.90096  1.0000
  C   C24       1.0  0.43130  0.38373  0.09905  1.0000
  C   C25       1.0  0.87647  0.35220  0.38446  1.0000
  C   C26       1.0  0.62353  0.85220  0.61554  1.0000
  C   C27       1.0  0.12353  0.64780  0.61553  1.0000
  C   C28       1.0  0.37647  0.14779  0.38446  1.0000
  C   C29       1.0  0.79155  0.31786  0.47471  1.0000
  C   C30       1.0  0.70845  0.81786  0.52529  1.0000
  C   C31       1.0  0.20845  0.68214  0.52529  1.0000
  C   C32       1.0  0.29155  0.18214  0.47471  1.0000
  C   C33       1.0  0.90533  0.49323  0.38234  1.0000
  C   C34       1.0  0.59467  0.99323  0.61766  1.0000
  C   C35       1.0  0.09467  0.50677  0.61766  1.0000
  C   C36       1.0  0.40533  0.00677  0.38234  1.0000
  C   C37       1.0  0.79782  0.31238  0.28384  1.0000
  C   C38       1.0  0.70218  0.81238  0.71616  1.0000
  C   C39       1.0  0.20218  0.68762  0.71616  1.0000
  C   C40       1.0  0.29782  0.18762  0.28384  1.0000
  N   N1        1.0  0.81314  0.05074  0.11994  1.0000
  N   N2        1.0  0.68686  0.55074  0.88005  1.0000
  N   N3        1.0  0.18686  0.94926  0.88006  1.0000
  N   N4        1.0  0.31314  0.44926  0.11995  1.0000
  O   O1        1.0  0.76102  0.17204  0.75502  1.0000
  O   O2        1.0  0.73898  0.67203  0.24497  1.0000
  O   O3        1.0  0.23898  0.82796  0.24497  1.0000
  O   O4        1.0  0.26103  0.32796  0.75503  1.0000
  O   O5        1.0  0.99617  0.21200  0.79737  1.0000
  O   O6        1.0  0.50383  0.71199  0.20264  1.0000
  O   O7        1.0  0.00383  0.78800  0.20264  1.0000
  O   O8        1.0  0.49618  0.28801  0.79737  1.0000
  O   O9        1.0  0.85946  0.28549  0.55797  1.0000
  O   O10       1.0  0.64053  0.78549  0.44203  1.0000
  O   O11       1.0  0.14053  0.71451  0.44203  1.0000
  O   O12       1.0  0.35946  0.21451  0.55797  1.0000
  O   O13       1.0  0.65372  0.32160  0.46780  1.0000
  O   O14       1.0  0.84627  0.82159  0.53220  1.0000
  O   O15       1.0  0.34627  0.67841  0.53220  1.0000
  O   O16       1.0  0.15373  0.17841  0.46780  1.0000
  O   O17       1.0  0.98706  0.53732  0.31810  1.0000
  O   O18       1.0  0.51294  0.03732  0.68190  1.0000
  O   O19       1.0  0.01294  0.46268  0.68189  1.0000
  O   O20       1.0  0.48706  0.96268  0.31810  1.0000
  O   O21       1.0  0.84061  0.56609  0.44197  1.0000
  O   O22       1.0  0.65939  0.06610  0.55802  1.0000
  O   O23       1.0  0.15939  0.43391  0.55802  1.0000
  O   O24       1.0  0.34061  0.93390  0.44198  1.0000
  O   O25       1.0  0.72427  0.44631  0.69757  1.0000
  O   O26       1.0  0.77572  0.94631  0.30243  1.0000
  O   O27       1.0  0.27572  0.55369  0.30243  1.0000
  O   O28       1.0  0.22428  0.05369  0.69757  1.0000
  O   O29       1.0  0.45054  0.44712  0.60390  1.0000
  O   O30       1.0  0.04946  0.94712  0.39610  1.0000
  O   O31       1.0  0.54946  0.55288  0.39610  1.0000
  O   O32       1.0  0.95054  0.05288  0.60390  1.0000
