data_image0
_chemical_formula_structural       Dy4H48C40N4O32
_chemical_formula_sum              "Dy4 H48 C40 N4 O32"
_cell_length_a       9.14333
_cell_length_b       11.4233
_cell_length_c       12.7188
_cell_angle_alpha    89.9999
_cell_angle_beta     90.0003
_cell_angle_gamma    100.428

_space_group_name_H-M_alt    "P 1"
_space_group_IT_number       1

loop_
  _space_group_symop_operation_xyz
  'x, y, z'

loop_
  _atom_site_type_symbol
  _atom_site_label
  _atom_site_symmetry_multiplicity
  _atom_site_fract_x
  _atom_site_fract_y
  _atom_site_fract_z
  _atom_site_occupancy
  Dy  Dy1       1.0  0.56084  0.58958  0.22040  1.0000
  Dy  Dy2       1.0  0.93916  0.41042  0.72040  1.0000
  Dy  Dy3       1.0  0.43916  0.41042  0.77960  1.0000
  Dy  Dy4       1.0  0.06084  0.58957  0.27960  1.0000
  H   H1        1.0  0.61350  0.87211  0.41677  1.0000
  H   H2        1.0  0.88649  0.12789  0.91677  1.0000
  H   H3        1.0  0.38649  0.12790  0.58322  1.0000
  H   H4        1.0  0.11350  0.87211  0.08323  1.0000
  H   H5        1.0  0.06928  0.98048  0.32162  1.0000
  H   H6        1.0  0.43070  0.01953  0.82162  1.0000
  H   H7        1.0  0.93071  0.01952  0.67838  1.0000
  H   H8        1.0  0.56928  0.98048  0.17838  1.0000
  H   H9        1.0  0.78155  0.66402  0.04878  1.0000
  H   H10       1.0  0.71845  0.33599  0.54878  1.0000
  H   H11       1.0  0.21845  0.33599  0.95122  1.0000
  H   H12       1.0  0.28155  0.66402  0.45122  1.0000
  H   H13       1.0  0.65924  0.74658  0.03298  1.0000
  H   H14       1.0  0.84076  0.25341  0.53298  1.0000
  H   H15       1.0  0.34076  0.25341  0.96701  1.0000
  H   H16       1.0  0.15924  0.74659  0.46702  1.0000
  H   H17       1.0  0.06533  0.18040  0.40724  1.0000
  H   H18       1.0  0.43465  0.81960  0.90725  1.0000
  H   H19       1.0  0.93466  0.81960  0.59275  1.0000
  H   H20       1.0  0.56533  0.18040  0.09276  1.0000
  H   H21       1.0  0.62967  0.07611  0.50156  1.0000
  H   H22       1.0  0.87032  0.92388  0.00156  1.0000
  H   H23       1.0  0.37032  0.92389  0.49843  1.0000
  H   H24       1.0  0.12967  0.07611  0.99844  1.0000
  H   H25       1.0  0.27864  0.51245  0.09911  1.0000
  H   H26       1.0  0.22136  0.48756  0.59911  1.0000
  H   H27       1.0  0.72136  0.48756  0.90089  1.0000
  H   H28       1.0  0.77864  0.51245  0.40089  1.0000
  H   H29       1.0  0.39891  0.55974  0.00974  1.0000
  H   H30       1.0  0.10109  0.44026  0.50974  1.0000
  H   H31       1.0  0.60109  0.44026  0.99026  1.0000
  H   H32       1.0  0.89891  0.55974  0.49026  1.0000
  H   H33       1.0  0.29585  0.29385  0.45388  1.0000
  H   H34       1.0  0.20415  0.70615  0.95387  1.0000
  H   H35       1.0  0.70415  0.70616  0.54613  1.0000
  H   H36       1.0  0.79585  0.29384  0.04611  1.0000
  H   H37       1.0  0.41087  0.17515  0.32378  1.0000
  H   H38       1.0  0.08914  0.82486  0.82378  1.0000
  H   H39       1.0  0.58914  0.82486  0.67623  1.0000
  H   H40       1.0  0.91088  0.17514  0.17621  1.0000
  H   H41       1.0  0.41887  0.29029  0.22809  1.0000
  H   H42       1.0  0.08113  0.70971  0.72808  1.0000
  H   H43       1.0  0.58113  0.70971  0.77193  1.0000
  H   H44       1.0  0.91888  0.29029  0.27191  1.0000
  H   H45       1.0  0.24375  0.20954  0.26978  1.0000
  H   H46       1.0  0.25626  0.79046  0.76977  1.0000
  H   H47       1.0  0.75626  0.79047  0.73023  1.0000
  H   H48       1.0  0.74376  0.20953  0.23022  1.0000
  C   C1        1.0  0.83937  0.78970  0.31997  1.0000
  C   C2        1.0  0.66063  0.21030  0.81997  1.0000
  C   C3        1.0  0.16063  0.21029  0.68003  1.0000
  C   C4        1.0  0.33937  0.78970  0.18003  1.0000
  C   C5        1.0  0.84141  0.91260  0.36404  1.0000
  C   C6        1.0  0.65858  0.08740  0.86404  1.0000
  C   C7        1.0  0.15858  0.08740  0.63595  1.0000
  C   C8        1.0  0.34141  0.91260  0.13596  1.0000
  C   C9        1.0  0.71475  0.93931  0.41380  1.0000
  C   C10       1.0  0.78524  0.06068  0.91380  1.0000
  C   C11       1.0  0.28525  0.06069  0.58620  1.0000
  C   C12       1.0  0.21475  0.93931  0.08620  1.0000
  C   C13       1.0  0.96984  0.99996  0.35990  1.0000
  C   C14       1.0  0.53015  0.00005  0.85991  1.0000
  C   C15       1.0  0.03015  0.00004  0.64010  1.0000
  C   C16       1.0  0.46984  0.99996  0.14010  1.0000
  C   C17       1.0  0.26576  0.43121  0.34823  1.0000
  C   C18       1.0  0.23424  0.56879  0.84823  1.0000
  C   C19       1.0  0.73425  0.56879  0.65177  1.0000
  C   C20       1.0  0.76575  0.43121  0.15177  1.0000
  C   C21       1.0  0.96811  0.10926  0.40785  1.0000
  C   C22       1.0  0.53187  0.89074  0.90786  1.0000
  C   C23       1.0  0.03188  0.89073  0.59215  1.0000
  C   C24       1.0  0.46811  0.10927  0.09215  1.0000
  C   C25       1.0  0.72405  0.05086  0.46018  1.0000
  C   C26       1.0  0.77593  0.94913  0.96018  1.0000
  C   C27       1.0  0.27594  0.94913  0.53981  1.0000
  C   C28       1.0  0.22405  0.05086  0.03982  1.0000
  C   C29       1.0  0.35341  0.33869  0.38525  1.0000
  C   C30       1.0  0.14660  0.66132  0.88524  1.0000
  C   C31       1.0  0.64660  0.66132  0.61477  1.0000
  C   C32       1.0  0.85341  0.33869  0.11475  1.0000
  C   C33       1.0  0.51372  0.38619  0.41965  1.0000
  C   C34       1.0  0.98629  0.61382  0.91964  1.0000
  C   C35       1.0  0.48629  0.61382  0.58036  1.0000
  C   C36       1.0  0.01372  0.38619  0.08035  1.0000
  C   C37       1.0  0.35678  0.24773  0.29592  1.0000
  C   C38       1.0  0.14324  0.75228  0.79591  1.0000
  C   C39       1.0  0.64323  0.75228  0.70410  1.0000
  C   C40       1.0  0.85678  0.24772  0.20407  1.0000
  N   N1        1.0  0.84839  0.13404  0.45814  1.0000
  N   N2        1.0  0.65159  0.86596  0.95814  1.0000
  N   N3        1.0  0.15160  0.86596  0.54185  1.0000
  N   N4        1.0  0.34838  0.13403  0.04186  1.0000
  O   O1        1.0  0.71471  0.71994  0.32117  1.0000
  O   O2        1.0  0.78529  0.28006  0.82118  1.0000
  O   O3        1.0  0.28529  0.28005  0.67883  1.0000
  O   O4        1.0  0.21471  0.71994  0.17883  1.0000
  O   O5        1.0  0.96126  0.76481  0.28788  1.0000
  O   O6        1.0  0.53874  0.23519  0.78788  1.0000
  O   O7        1.0  0.03874  0.23518  0.71212  1.0000
  O   O8        1.0  0.46126  0.76481  0.21212  1.0000
  O   O9        1.0  0.32495  0.52001  0.29231  1.0000
  O   O10       1.0  0.17506  0.47999  0.79231  1.0000
  O   O11       1.0  0.67506  0.47999  0.70769  1.0000
  O   O12       1.0  0.82495  0.52001  0.20769  1.0000
  O   O13       1.0  0.12770  0.41712  0.37111  1.0000
  O   O14       1.0  0.37230  0.58287  0.87111  1.0000
  O   O15       1.0  0.87230  0.58287  0.62889  1.0000
  O   O16       1.0  0.62770  0.41712  0.12889  1.0000
  O   O17       1.0  0.68607  0.68127  0.07916  1.0000
  O   O18       1.0  0.81393  0.31873  0.57916  1.0000
  O   O19       1.0  0.31393  0.31873  0.92084  1.0000
  O   O20       1.0  0.18607  0.68127  0.42084  1.0000
  O   O21       1.0  0.59473  0.46674  0.36342  1.0000
  O   O22       1.0  0.90528  0.53326  0.86341  1.0000
  O   O23       1.0  0.40528  0.53326  0.63659  1.0000
  O   O24       1.0  0.09473  0.46674  0.13658  1.0000
  O   O25       1.0  0.55748  0.33845  0.49954  1.0000
  O   O26       1.0  0.94252  0.66155  0.99953  1.0000
  O   O27       1.0  0.44253  0.66155  0.50047  1.0000
  O   O28       1.0  0.05748  0.33844  0.00046  1.0000
  O   O29       1.0  0.38669  0.54069  0.08512  1.0000
  O   O30       1.0  0.11331  0.45931  0.58512  1.0000
  O   O31       1.0  0.61332  0.45932  0.91488  1.0000
  O   O32       1.0  0.88669  0.54068  0.41488  1.0000
