data_image0
_chemical_formula_structural       Gd4H44C40N4O30
_chemical_formula_sum              "Gd4 H44 C40 N4 O30"
_cell_length_a       9.48813
_cell_length_b       10.9854
_cell_length_c       12.4205
_cell_angle_alpha    89.9997
_cell_angle_beta     111.02
_cell_angle_gamma    90.0002

_space_group_name_H-M_alt    "P 1"
_space_group_IT_number       1

loop_
  _space_group_symop_operation_xyz
  'x, y, z'

loop_
  _atom_site_type_symbol
  _atom_site_label
  _atom_site_symmetry_multiplicity
  _atom_site_fract_x
  _atom_site_fract_y
  _atom_site_fract_z
  _atom_site_occupancy
  Gd  Gd1       1.0  0.70331  0.03811  0.38366  1.0000
  Gd  Gd2       1.0  0.20331  0.96189  0.38366  1.0000
  Gd  Gd3       1.0  0.30668  0.48353  0.61413  1.0000
  Gd  Gd4       1.0  0.80668  0.51647  0.61413  1.0000
  H   H1        1.0  0.92957  0.81957  0.03930  1.0000
  H   H2        1.0  0.42957  0.18043  0.03930  1.0000
  H   H3        1.0  0.53920  0.99013  0.07007  1.0000
  H   H4        1.0  0.03920  0.00986  0.07007  1.0000
  H   H5        1.0  0.75700  0.71909  0.85526  1.0000
  H   H6        1.0  0.25700  0.28091  0.85526  1.0000
  H   H7        1.0  0.38041  0.87967  0.88848  1.0000
  H   H8        1.0  0.88041  0.12033  0.88848  1.0000
  H   H9        1.0  0.52762  0.24683  0.66801  1.0000
  H   H10       1.0  0.02761  0.75317  0.66801  1.0000
  H   H11       1.0  0.64581  0.04493  0.74588  1.0000
  H   H12       1.0  0.14582  0.95507  0.74589  1.0000
  H   H13       1.0  0.46508  0.97512  0.68939  1.0000
  H   H14       1.0  0.96508  0.02488  0.68939  1.0000
  H   H15       1.0  0.50242  0.08815  0.79977  1.0000
  H   H16       1.0  0.00242  0.91184  0.79977  1.0000
  H   H17       1.0  0.55117  0.52159  0.34187  1.0000
  H   H18       1.0  0.05118  0.47842  0.34187  1.0000
  H   H19       1.0  0.02560  0.14765  0.50559  1.0000
  H   H20       1.0  0.52561  0.85235  0.50559  1.0000
  H   H21       1.0  0.89366  0.24924  0.48687  1.0000
  H   H22       1.0  0.39366  0.75076  0.48687  1.0000
  H   H23       1.0  0.55123  0.79124  0.25210  1.0000
  H   H24       1.0  0.05123  0.20876  0.25210  1.0000
  H   H25       1.0  0.70844  0.76020  0.35100  1.0000
  H   H26       1.0  0.20844  0.23980  0.35100  1.0000
  H   H27       1.0  0.43172  0.39917  0.15980  1.0000
  H   H28       1.0  0.93172  0.60083  0.15980  1.0000
  H   H29       1.0  0.29410  0.46286  0.20995  1.0000
  H   H30       1.0  0.79409  0.53714  0.20995  1.0000
  H   H31       1.0  0.34262  0.30494  0.23211  1.0000
  H   H32       1.0  0.84263  0.69506  0.23211  1.0000
  H   H33       1.0  0.28846  0.74676  0.64093  1.0000
  H   H34       1.0  0.78845  0.25324  0.64093  1.0000
  H   H35       1.0  0.43793  0.72239  0.75586  1.0000
  H   H36       1.0  0.93793  0.27761  0.75586  1.0000
  H   H37       1.0  0.46054  0.53257  0.92855  1.0000
  H   H38       1.0  0.96054  0.46743  0.92855  1.0000
  H   H39       1.0  0.05609  0.67536  0.96051  1.0000
  H   H40       1.0  0.55609  0.32464  0.96052  1.0000
  H   H41       1.0  0.21832  0.76895  0.15082  1.0000
  H   H42       1.0  0.71832  0.23105  0.15082  1.0000
  H   H43       1.0  0.60773  0.63944  0.11432  1.0000
  H   H44       1.0  0.10773  0.36056  0.11432  1.0000
  C   C1        1.0  0.84322  0.97390  0.17813  1.0000
  C   C2        1.0  0.34321  0.02609  0.17813  1.0000
  C   C3        1.0  0.74598  0.91407  0.06632  1.0000
  C   C4        1.0  0.24598  0.08593  0.06632  1.0000
  C   C5        1.0  0.80844  0.83653  0.00590  1.0000
  C   C6        1.0  0.30844  0.16347  0.00590  1.0000
  C   C7        1.0  0.58987  0.93202  0.02291  1.0000
  C   C8        1.0  0.08987  0.06798  0.02291  1.0000
  C   C9        1.0  0.71361  0.78027  0.90538  1.0000
  C   C10       1.0  0.21361  0.21973  0.90538  1.0000
  C   C11       1.0  0.50327  0.87049  0.92328  1.0000
  C   C12       1.0  0.00327  0.12951  0.92328  1.0000
  C   C13       1.0  0.52466  0.12927  0.53156  1.0000
  C   C14       1.0  0.02466  0.87073  0.53157  1.0000
  C   C15       1.0  0.30157  0.17996  0.59339  1.0000
  C   C16       1.0  0.80156  0.82004  0.59339  1.0000
  C   C17       1.0  0.47161  0.16152  0.63008  1.0000
  C   C18       1.0  0.97161  0.83848  0.63008  1.0000
  C   C19       1.0  0.64724  0.34406  0.37582  1.0000
  C   C20       1.0  0.14724  0.65595  0.37582  1.0000
  C   C21       1.0  0.52418  0.06074  0.72221  1.0000
  C   C22       1.0  0.02419  0.93926  0.72221  1.0000
  C   C23       1.0  0.50847  0.42856  0.34384  1.0000
  C   C24       1.0  0.00847  0.57144  0.34384  1.0000
  C   C25       1.0  0.45265  0.42695  0.44459  1.0000
  C   C26       1.0  0.95265  0.57305  0.44459  1.0000
  C   C27       1.0  0.38652  0.39667  0.22951  1.0000
  C   C28       1.0  0.88652  0.60333  0.22951  1.0000
  C   C29       1.0  0.15707  0.54084  0.81650  1.0000
  C   C30       1.0  0.65707  0.45916  0.81650  1.0000
  C   C31       1.0  0.24748  0.59661  0.93133  1.0000
  C   C32       1.0  0.74748  0.40339  0.93132  1.0000
  C   C33       1.0  0.40426  0.58428  0.97613  1.0000
  C   C34       1.0  0.90426  0.41572  0.97613  1.0000
  C   C35       1.0  0.17827  0.66404  0.99415  1.0000
  C   C36       1.0  0.67827  0.33596  0.99415  1.0000
  C   C37       1.0  0.26752  0.71647  0.09861  1.0000
  C   C38       1.0  0.76752  0.28353  0.09861  1.0000
  C   C39       1.0  0.48483  0.64275  0.07922  1.0000
  C   C40       1.0  0.98483  0.35725  0.07922  1.0000
  N   N1        1.0  0.56292  0.79590  0.86523  1.0000
  N   N2        1.0  0.06292  0.20410  0.86523  1.0000
  N   N3        1.0  0.41918  0.70777  0.13998  1.0000
  N   N4        1.0  0.91918  0.29223  0.13998  1.0000
  O   O1        1.0  0.77877  0.04384  0.22756  1.0000
  O   O2        1.0  0.27877  0.95616  0.22757  1.0000
  O   O3        1.0  0.98242  0.95042  0.21359  1.0000
  O   O4        1.0  0.48242  0.04958  0.21359  1.0000
  O   O5        1.0  0.44100  0.07351  0.44136  1.0000
  O   O6        1.0  0.94100  0.92649  0.44136  1.0000
  O   O7        1.0  0.66026  0.15610  0.54441  1.0000
  O   O8        1.0  0.16026  0.84390  0.54441  1.0000
  O   O9        1.0  0.21336  0.09465  0.53997  1.0000
  O   O10       1.0  0.71336  0.90536  0.53998  1.0000
  O   O11       1.0  0.25345  0.27891  0.62028  1.0000
  O   O12       1.0  0.75345  0.72109  0.62028  1.0000
  O   O13       1.0  0.76469  0.37713  0.46053  1.0000
  O   O14       1.0  0.26470  0.62287  0.46054  1.0000
  O   O15       1.0  0.53552  0.47709  0.54040  1.0000
  O   O16       1.0  0.03552  0.52290  0.54040  1.0000
  O   O17       1.0  0.63700  0.24761  0.31941  1.0000
  O   O18       1.0  0.13701  0.75239  0.31941  1.0000
  O   O19       1.0  0.22431  0.47028  0.77029  1.0000
  O   O20       1.0  0.72431  0.52972  0.77029  1.0000
  O   O21       1.0  0.32743  0.37899  0.43530  1.0000
  O   O22       1.0  0.82743  0.62100  0.43530  1.0000
  O   O23       1.0  0.01789  0.56880  0.77423  1.0000
  O   O24       1.0  0.51788  0.43121  0.77423  1.0000
  O   O25       1.0  0.91589  0.16151  0.48561  1.0000
  O   O26       1.0  0.41589  0.83849  0.48561  1.0000
  O   O27       1.0  0.64451  0.82848  0.31054  1.0000
  O   O28       1.0  0.14451  0.17152  0.31054  1.0000
  O   O29       1.0  0.35072  0.68152  0.69177  1.0000
  O   O30       1.0  0.85072  0.31848  0.69177  1.0000
