data_image0
_chemical_formula_structural       Cd2P2H20C6N2O14
_chemical_formula_sum              "Cd2 P2 H20 C6 N2 O14"
_cell_length_a       4.90813
_cell_length_b       5.49263
_cell_length_c       16.8906
_cell_angle_alpha    93.1645
_cell_angle_beta     90.0199
_cell_angle_gamma    116.285

_space_group_name_H-M_alt    "P 1"
_space_group_IT_number       1

loop_
  _space_group_symop_operation_xyz
  'x, y, z'

loop_
  _atom_site_type_symbol
  _atom_site_label
  _atom_site_symmetry_multiplicity
  _atom_site_fract_x
  _atom_site_fract_y
  _atom_site_fract_z
  _atom_site_occupancy
  Cd  Cd1       1.0  0.03601  0.92424  0.32405  1.0000
  Cd  Cd2       1.0  0.89248  0.92520  0.82334  1.0000
  P   P1        1.0  0.75165  0.32026  0.41679  1.0000
  P   P2        1.0  0.57281  0.32157  0.91589  1.0000
  H   H1        1.0  0.52831  0.46875  0.28426  1.0000
  H   H2        1.0  0.92992  0.46416  0.78186  1.0000
  H   H3        1.0  0.97637  0.12658  0.18681  1.0000
  H   H4        1.0  0.14304  0.12754  0.68577  1.0000
  H   H5        1.0  0.67996  0.78281  0.48567  1.0000
  H   H6        1.0  0.09865  0.78104  0.98600  1.0000
  H   H7        1.0  0.32607  0.56460  0.45779  1.0000
  H   H8        1.0  0.24299  0.56825  0.95783  1.0000
  H   H9        1.0  0.36139  0.19160  0.51697  1.0000
  H   H10       1.0  0.84015  0.18834  0.01381  1.0000
  H   H11       1.0  0.72799  0.41770  0.55921  1.0000
  H   H12       1.0  0.69264  0.40658  0.05867  1.0000
  H   H13       1.0  0.23227  0.48025  0.60455  1.0000
  H   H14       1.0  0.24800  0.47982  0.10469  1.0000
  H   H15       1.0  0.24679  0.77897  0.56583  1.0000
  H   H16       1.0  0.52951  0.78001  0.06665  1.0000
  H   H17       1.0  0.76212  0.20385  0.24271  1.0000
  H   H18       1.0  0.43457  0.18837  0.73937  1.0000
  H   H19       1.0  0.48469  0.69483  0.23470  1.0000
  H   H20       1.0  0.20469  0.68856  0.73377  1.0000
  C   C1        1.0  0.57397  0.37317  0.50758  1.0000
  C   C2        1.0  0.80367  0.36896  0.00623  1.0000
  C   C3        1.0  0.38243  0.67028  0.57812  1.0000
  C   C4        1.0  0.28591  0.66995  0.07840  1.0000
  C   C5        1.0  0.64315  0.84757  0.63594  1.0000
  C   C6        1.0  0.19779  0.84517  0.13609  1.0000
  N   N1        1.0  0.49465  0.60464  0.50206  1.0000
  N   N2        1.0  0.11067  0.60420  0.00192  1.0000
  O   O1        1.0  0.50812  0.24717  0.35066  1.0000
  O   O2        1.0  0.74129  0.24851  0.84909  1.0000
  O   O3        1.0  0.02922  0.59539  0.40515  1.0000
  O   O4        1.0  0.57213  0.59904  0.90546  1.0000
  O   O5        1.0  0.84410  0.09357  0.43123  1.0000
  O   O6        1.0  0.25479  0.09642  0.93027  1.0000
  O   O7        1.0  0.56522  0.87606  0.70653  1.0000
  O   O8        1.0  0.30608  0.87596  0.20656  1.0000
  O   O9        1.0  0.90911  0.95718  0.60997  1.0000
  O   O10       1.0  0.03656  0.95126  0.11020  1.0000
  O   O11       1.0  0.63059  0.62181  0.24932  1.0000
  O   O12       1.0  0.98517  0.61797  0.74673  1.0000
  O   O13       1.0  0.97127  0.22830  0.23765  1.0000
  O   O14       1.0  0.25647  0.22442  0.73645  1.0000
