data_image0
_chemical_formula_structural       In4H28C32O24
_chemical_formula_sum              "In4 H28 C32 O24"
_cell_length_a       7.09309
_cell_length_b       7.08944
_cell_length_c       21.1218
_cell_angle_alpha    94.9412
_cell_angle_beta     94.9261
_cell_angle_gamma    119.186

_space_group_name_H-M_alt    "P 1"
_space_group_IT_number       1

loop_
  _space_group_symop_operation_xyz
  'x, y, z'

loop_
  _atom_site_type_symbol
  _atom_site_label
  _atom_site_symmetry_multiplicity
  _atom_site_fract_x
  _atom_site_fract_y
  _atom_site_fract_z
  _atom_site_occupancy
  In  In1       1.0  0.40325  0.37468  0.51583  1.0000
  In  In2       1.0  0.85875  0.88766  0.48420  1.0000
  In  In3       1.0  0.13743  0.60809  0.98421  1.0000
  In  In4       1.0  0.62426  0.15300  0.01582  1.0000
  H   H1        1.0  0.01066  0.27877  0.55389  1.0000
  H   H2        1.0  0.72450  0.45679  0.44615  1.0000
  H   H3        1.0  0.70703  0.47429  0.94609  1.0000
  H   H4        1.0  0.52814  0.76022  0.05391  1.0000
  H   H5        1.0  0.33956  0.65193  0.43261  1.0000
  H   H6        1.0  0.21894  0.90699  0.56736  1.0000
  H   H7        1.0  0.15666  0.96850  0.06745  1.0000
  H   H8        1.0  0.90108  0.08893  0.93255  1.0000
  H   H9        1.0  0.09535  0.44309  0.43626  1.0000
  H   H10       1.0  0.00638  0.65908  0.56373  1.0000
  H   H11       1.0  0.90878  0.75611  0.06377  1.0000
  H   H12       1.0  0.69227  0.84466  0.93617  1.0000
  H   H13       1.0  0.73326  0.04407  0.27198  1.0000
  H   H14       1.0  0.77160  0.46162  0.72808  1.0000
  H   H15       1.0  0.71103  0.52224  0.22824  1.0000
  H   H16       1.0  0.29351  0.48225  0.77162  1.0000
  H   H17       1.0  0.48150  0.93086  0.16922  1.0000
  H   H18       1.0  0.76097  0.31243  0.83081  1.0000
  H   H19       1.0  0.56164  0.51212  0.33092  1.0000
  H   H20       1.0  0.18010  0.22978  0.66900  1.0000
  H   H21       1.0  0.09145  0.82849  0.17113  1.0000
  H   H22       1.0  0.65685  0.92030  0.82893  1.0000
  H   H23       1.0  0.16958  0.40764  0.32889  1.0000
  H   H24       1.0  0.07795  0.83955  0.67110  1.0000
  H   H25       1.0  0.96206  0.85204  0.27598  1.0000
  H   H26       1.0  0.57585  0.68600  0.72406  1.0000
  H   H27       1.0  0.93564  0.32590  0.22395  1.0000
  H   H28       1.0  0.10182  0.71099  0.77608  1.0000
  C   C1        1.0  0.27236  0.95926  0.33208  1.0000
  C   C2        1.0  0.62712  0.94045  0.66800  1.0000
  C   C3        1.0  0.19009  0.37677  0.16794  1.0000
  C   C4        1.0  0.20898  0.02169  0.83201  1.0000
  C   C5        1.0  0.49181  0.01632  0.33132  1.0000
  C   C6        1.0  0.68489  0.16077  0.66877  1.0000
  C   C7        1.0  0.41036  0.43478  0.16880  1.0000
  C   C8        1.0  0.26610  0.24125  0.83112  1.0000
  C   C9        1.0  0.56433  0.00424  0.27239  1.0000
  C   C10       1.0  0.73153  0.29227  0.72767  1.0000
  C   C11       1.0  0.54167  0.48194  0.22776  1.0000
  C   C12       1.0  0.25376  0.31336  0.77214  1.0000
  C   C13       1.0  0.42210  0.93821  0.21479  1.0000
  C   C14       1.0  0.72301  0.20751  0.78526  1.0000
  C   C15       1.0  0.45681  0.47371  0.28532  1.0000
  C   C16       1.0  0.18761  0.17069  0.71461  1.0000
  C   C17       1.0  0.20413  0.88135  0.21576  1.0000
  C   C18       1.0  0.66524  0.98845  0.78429  1.0000
  C   C19       1.0  0.23781  0.41576  0.28427  1.0000
  C   C20       1.0  0.13083  0.95262  0.71570  1.0000
  C   C21       1.0  0.13019  0.89188  0.27410  1.0000
  C   C22       1.0  0.61760  0.85612  0.72596  1.0000
  C   C23       1.0  0.10567  0.36762  0.22588  1.0000
  C   C24       1.0  0.14151  0.87909  0.77410  1.0000
  C   C25       1.0  0.19283  0.98268  0.39339  1.0000
  C   C26       1.0  0.58929  0.79964  0.60669  1.0000
  C   C27       1.0  0.04945  0.33864  0.10659  1.0000
  C   C28       1.0  0.23250  0.94251  0.89339  1.0000
  C   C29       1.0  0.65007  0.07342  0.39160  1.0000
  C   C30       1.0  0.68154  0.25866  0.60845  1.0000
  C   C31       1.0  0.50839  0.43138  0.10853  1.0000
  C   C32       1.0  0.32332  0.39984  0.89138  1.0000
  O   O1        1.0  0.33395  0.10105  0.44201  1.0000
  O   O2        1.0  0.65949  0.89231  0.55813  1.0000
  O   O3        1.0  0.14219  0.40828  0.05799  1.0000
  O   O4        1.0  0.35127  0.08395  0.94191  1.0000
  O   O5        1.0  0.98643  0.88276  0.39410  1.0000
  O   O6        1.0  0.48823  0.59238  0.60594  1.0000
  O   O7        1.0  0.84231  0.23802  0.10583  1.0000
  O   O8        1.0  0.13224  0.73601  0.89419  1.0000
  O   O9        1.0  0.61058  0.90928  0.42143  1.0000
  O   O10       1.0  0.48757  0.18921  0.57867  1.0000
  O   O11       1.0  0.43921  0.23730  0.07879  1.0000
  O   O12       1.0  0.15927  0.36038  0.92123  1.0000
  O   O13       1.0  0.81185  0.26330  0.40634  1.0000
  O   O14       1.0  0.85651  0.40569  0.59363  1.0000
  O   O15       1.0  0.65523  0.60648  0.09371  1.0000
  O   O16       1.0  0.51315  0.56157  0.90611  1.0000
  O   O17       1.0  0.07841  0.20041  0.53404  1.0000
  O   O18       1.0  0.66588  0.54442  0.46592  1.0000
  O   O19       1.0  0.79443  0.41564  0.96595  1.0000
  O   O20       1.0  0.44981  0.82808  0.03411  1.0000
  O   O21       1.0  0.25137  0.52920  0.45528  1.0000
  O   O22       1.0  0.07354  0.79617  0.54471  1.0000
  O   O23       1.0  0.04580  0.82318  0.04474  1.0000
  O   O24       1.0  0.77835  0.00082  0.95520  1.0000
