data_image0
_chemical_formula_structural       Cd2H20C32S4N8O8
_chemical_formula_sum              "Cd2 H20 C32 S4 N8 O8"
_cell_length_a       8.43874
_cell_length_b       9.7685
_cell_length_c       10.8627
_cell_angle_alpha    80.1807
_cell_angle_beta     87.1489
_cell_angle_gamma    75.4458

_space_group_name_H-M_alt    "P 1"
_space_group_IT_number       1

loop_
  _space_group_symop_operation_xyz
  'x, y, z'

loop_
  _atom_site_type_symbol
  _atom_site_label
  _atom_site_symmetry_multiplicity
  _atom_site_fract_x
  _atom_site_fract_y
  _atom_site_fract_z
  _atom_site_occupancy
  Cd  Cd1       1.0  0.24809  0.47390  0.50764  1.0000
  Cd  Cd2       1.0  0.75191  0.52610  0.49236  1.0000
  H   H1        1.0  0.22571  0.45558  0.80003  1.0000
  H   H2        1.0  0.77429  0.54441  0.19997  1.0000
  H   H3        1.0  0.33625  0.52959  0.97996  1.0000
  H   H4        1.0  0.66375  0.47041  0.02004  1.0000
  H   H5        1.0  0.76403  0.75853  0.82932  1.0000
  H   H6        1.0  0.23597  0.24147  0.17068  1.0000
  H   H7        1.0  0.13184  0.98038  0.44849  1.0000
  H   H8        1.0  0.86816  0.01962  0.55151  1.0000
  H   H9        1.0  0.15152  0.22093  0.47666  1.0000
  H   H10       1.0  0.84848  0.77908  0.52334  1.0000
  H   H11       1.0  0.51593  0.77826  0.71478  1.0000
  H   H12       1.0  0.48407  0.22175  0.28522  1.0000
  H   H13       1.0  0.65371  0.31861  0.81004  1.0000
  H   H14       1.0  0.34629  0.68140  0.18996  1.0000
  H   H15       1.0  0.50250  0.44853  0.71509  1.0000
  H   H16       1.0  0.49750  0.55148  0.28491  1.0000
  H   H17       1.0  0.10488  0.82666  0.32629  1.0000
  H   H18       1.0  0.89512  0.17334  0.67371  1.0000
  H   H19       1.0  0.92091  0.94330  0.28455  1.0000
  H   H20       1.0  0.07909  0.05670  0.71545  1.0000
  C   C1        1.0  0.92438  0.55358  0.69998  1.0000
  C   C2        1.0  0.07562  0.44642  0.30002  1.0000
  C   C3        1.0  0.99027  0.60431  0.80314  1.0000
  C   C4        1.0  0.00973  0.39568  0.19686  1.0000
  C   C5        1.0  0.15134  0.54131  0.84519  1.0000
  C   C6        1.0  0.84866  0.45869  0.15481  1.0000
  C   C7        1.0  0.21312  0.58218  0.94549  1.0000
  C   C8        1.0  0.78689  0.41781  0.05451  1.0000
  C   C9        1.0  0.11222  0.68781  0.00671  1.0000
  C   C10       1.0  0.88779  0.31218  0.99329  1.0000
  C   C11       1.0  0.95052  0.75325  0.96180  1.0000
  C   C12       1.0  0.04948  0.24674  0.03820  1.0000
  C   C13       1.0  0.88910  0.71250  0.86155  1.0000
  C   C14       1.0  0.11090  0.28749  0.13845  1.0000
  C   C15       1.0  0.02655  0.82667  0.15157  1.0000
  C   C16       1.0  0.97345  0.17333  0.84843  1.0000
  C   C17       1.0  0.32184  0.86563  0.57993  1.0000
  C   C18       1.0  0.67816  0.13437  0.42007  1.0000
  C   C19       1.0  0.21995  0.99073  0.51370  1.0000
  C   C20       1.0  0.78005  0.00928  0.48629  1.0000
  C   C21       1.0  0.23114  0.12591  0.52885  1.0000
  C   C22       1.0  0.76886  0.87409  0.47115  1.0000
  C   C23       1.0  0.34651  0.13806  0.61213  1.0000
  C   C24       1.0  0.65349  0.86195  0.38786  1.0000
  C   C25       1.0  0.44511  0.01196  0.68218  1.0000
  C   C26       1.0  0.55489  0.98804  0.31782  1.0000
  C   C27       1.0  0.43551  0.87589  0.66614  1.0000
  C   C28       1.0  0.56449  0.12411  0.33386  1.0000
  C   C29       1.0  0.49343  0.24245  0.71787  1.0000
  C   C30       1.0  0.50657  0.75755  0.28214  1.0000
  C   C31       1.0  0.31007  0.72419  0.55420  1.0000
  C   C32       1.0  0.68993  0.27582  0.44580  1.0000
  S   S1        1.0  0.57517  0.05976  0.77807  1.0000
  S   S2        1.0  0.42483  0.94025  0.22193  1.0000
  S   S3        1.0  0.84978  0.87400  0.05812  1.0000
  S   S4        1.0  0.15023  0.12599  0.94188  1.0000
  N   N1        1.0  0.37676  0.26464  0.63278  1.0000
  N   N2        1.0  0.62324  0.73537  0.36723  1.0000
  N   N3        1.0  0.54634  0.34436  0.75774  1.0000
  N   N4        1.0  0.45366  0.65564  0.24227  1.0000
  N   N5        1.0  0.15171  0.73260  0.11227  1.0000
  N   N6        1.0  0.84829  0.26739  0.88773  1.0000
  N   N7        1.0  0.02888  0.88557  0.25458  1.0000
  N   N8        1.0  0.97112  0.11443  0.74541  1.0000
  O   O1        1.0  0.01889  0.46872  0.63505  1.0000
  O   O2        1.0  0.98111  0.53128  0.36495  1.0000
  O   O3        1.0  0.40985  0.60862  0.60345  1.0000
  O   O4        1.0  0.59015  0.39138  0.39655  1.0000
  O   O5        1.0  0.19745  0.72054  0.47996  1.0000
  O   O6        1.0  0.80255  0.27946  0.52005  1.0000
  O   O7        1.0  0.77011  0.59781  0.67725  1.0000
  O   O8        1.0  0.22989  0.40218  0.32276  1.0000
