data_image0
_chemical_formula_structural       Cd2H20C32S4N8O8
_chemical_formula_sum              "Cd2 H20 C32 S4 N8 O8"
_cell_length_a       9.84871
_cell_length_b       9.84871
_cell_length_c       12.9321
_cell_angle_alpha    92.6841
_cell_angle_beta     92.684
_cell_angle_gamma    91.2332

_space_group_name_H-M_alt    "P 1"
_space_group_IT_number       1

loop_
  _space_group_symop_operation_xyz
  'x, y, z'

loop_
  _atom_site_type_symbol
  _atom_site_label
  _atom_site_symmetry_multiplicity
  _atom_site_fract_x
  _atom_site_fract_y
  _atom_site_fract_z
  _atom_site_occupancy
  Cd  Cd1       1.0  0.50558  0.49441  0.75000  1.0000
  Cd  Cd2       1.0  0.49441  0.50558  0.25000  1.0000
  H   H1        1.0  0.64865  0.57460  0.95958  1.0000
  H   H2        1.0  0.42540  0.35135  0.54042  1.0000
  H   H3        1.0  0.35135  0.42540  0.04042  1.0000
  H   H4        1.0  0.57460  0.64865  0.45958  1.0000
  H   H5        1.0  0.71925  0.50384  0.07339  1.0000
  H   H6        1.0  0.49616  0.28075  0.42661  1.0000
  H   H7        1.0  0.28075  0.49616  0.92661  1.0000
  H   H8        1.0  0.50384  0.71925  0.57339  1.0000
  H   H9        1.0  0.44424  0.20759  0.69938  1.0000
  H   H10       1.0  0.79241  0.55576  0.80062  1.0000
  H   H11       1.0  0.55576  0.79241  0.30062  1.0000
  H   H12       1.0  0.20759  0.44424  0.19938  1.0000
  H   H13       1.0  0.67210  0.91429  0.95949  1.0000
  H   H14       1.0  0.08571  0.32790  0.54051  1.0000
  H   H15       1.0  0.32790  0.08571  0.04051  1.0000
  H   H16       1.0  0.91429  0.67210  0.45949  1.0000
  H   H17       1.0  0.43935  0.95540  0.67307  1.0000
  H   H18       1.0  0.04460  0.56065  0.82693  1.0000
  H   H19       1.0  0.56065  0.04460  0.32693  1.0000
  H   H20       1.0  0.95540  0.43935  0.17307  1.0000
  C   C1        1.0  0.65181  0.36804  0.95676  1.0000
  C   C2        1.0  0.63196  0.34819  0.54324  1.0000
  C   C3        1.0  0.34819  0.63196  0.04324  1.0000
  C   C4        1.0  0.36804  0.65181  0.45676  1.0000
  C   C5        1.0  0.56625  0.20443  0.84325  1.0000
  C   C6        1.0  0.79557  0.43375  0.65675  1.0000
  C   C7        1.0  0.43375  0.79557  0.15675  1.0000
  C   C8        1.0  0.20443  0.56625  0.34325  1.0000
  C   C9        1.0  0.49612  0.14461  0.75526  1.0000
  C   C10       1.0  0.85539  0.50389  0.74474  1.0000
  C   C11       1.0  0.50388  0.85539  0.24474  1.0000
  C   C12       1.0  0.14461  0.49612  0.25526  1.0000
  C   C13       1.0  0.62959  0.12063  0.91672  1.0000
  C   C14       1.0  0.87937  0.37041  0.58328  1.0000
  C   C15       1.0  0.37041  0.87937  0.08328  1.0000
  C   C16       1.0  0.12063  0.62959  0.41672  1.0000
  C   C17       1.0  0.62488  0.97980  0.90326  1.0000
  C   C18       1.0  0.02019  0.37512  0.59674  1.0000
  C   C19       1.0  0.37512  0.02019  0.09674  1.0000
  C   C20       1.0  0.97980  0.62488  0.40326  1.0000
  C   C21       1.0  0.49295  0.00398  0.74105  1.0000
  C   C22       1.0  0.99602  0.50705  0.75895  1.0000
  C   C23       1.0  0.50705  0.99602  0.25895  1.0000
  C   C24       1.0  0.00398  0.49295  0.24105  1.0000
  C   C25       1.0  0.55096  0.77113  0.79551  1.0000
  C   C26       1.0  0.22887  0.44904  0.70449  1.0000
  C   C27       1.0  0.44904  0.22887  0.20449  1.0000
  C   C28       1.0  0.77113  0.55096  0.29551  1.0000
  C   C29       1.0  0.55697  0.92109  0.81362  1.0000
  C   C30       1.0  0.07891  0.44303  0.68638  1.0000
  C   C31       1.0  0.44303  0.07891  0.18638  1.0000
  C   C32       1.0  0.92109  0.55697  0.31362  1.0000
  S   S1        1.0  0.70711  0.22190  0.01803  1.0000
  S   S2        1.0  0.77810  0.29289  0.48197  1.0000
  S   S3        1.0  0.29289  0.77809  0.98197  1.0000
  S   S4        1.0  0.22190  0.70711  0.51803  1.0000
  N   N1        1.0  0.68361  0.49202  0.99735  1.0000
  N   N2        1.0  0.50798  0.31639  0.50265  1.0000
  N   N3        1.0  0.31639  0.50798  0.00265  1.0000
  N   N4        1.0  0.49202  0.68361  0.49735  1.0000
  N   N5        1.0  0.58023  0.34228  0.86763  1.0000
  N   N6        1.0  0.65772  0.41977  0.63237  1.0000
  N   N7        1.0  0.41976  0.65772  0.13237  1.0000
  N   N8        1.0  0.34228  0.58024  0.36763  1.0000
  O   O1        1.0  0.59830  0.69377  0.86411  1.0000
  O   O2        1.0  0.30623  0.40170  0.63589  1.0000
  O   O3        1.0  0.40170  0.30623  0.13589  1.0000
  O   O4        1.0  0.69377  0.59830  0.36411  1.0000
  O   O5        1.0  0.49546  0.72114  0.70948  1.0000
  O   O6        1.0  0.27886  0.50454  0.79052  1.0000
  O   O7        1.0  0.50454  0.27886  0.29052  1.0000
  O   O8        1.0  0.72114  0.49546  0.20948  1.0000
