data_image0
_chemical_formula_structural       ZnH24PtC24N4O12
_chemical_formula_sum              "Zn1 H24 Pt1 C24 N4 O12"
_cell_length_a       7.77766
_cell_length_b       9.10496
_cell_length_c       9.63749
_cell_angle_alpha    85.0993
_cell_angle_beta     80.4522
_cell_angle_gamma    80.6336

_space_group_name_H-M_alt    "P 1"
_space_group_IT_number       1

loop_
  _space_group_symop_operation_xyz
  'x, y, z'

loop_
  _atom_site_type_symbol
  _atom_site_label
  _atom_site_symmetry_multiplicity
  _atom_site_fract_x
  _atom_site_fract_y
  _atom_site_fract_z
  _atom_site_occupancy
  Zn  Zn1       1.0  0.50000  0.50000  0.50000  1.0000
  H   H1        1.0  0.94372  0.26065  0.79211  1.0000
  H   H2        1.0  0.05628  0.73935  0.20788  1.0000
  H   H3        1.0  0.07270  0.32246  0.53947  1.0000
  H   H4        1.0  0.92730  0.67755  0.46052  1.0000
  H   H5        1.0  0.25807  0.11925  0.39891  1.0000
  H   H6        1.0  0.74192  0.88075  0.60109  1.0000
  H   H7        1.0  0.19262  0.81973  0.76841  1.0000
  H   H8        1.0  0.80739  0.18026  0.23157  1.0000
  H   H9        1.0  0.57048  0.69724  0.31282  1.0000
  H   H10       1.0  0.42951  0.30275  0.68718  1.0000
  H   H11       1.0  0.68462  0.54716  0.23714  1.0000
  H   H12       1.0  0.31538  0.45283  0.76287  1.0000
  H   H13       1.0  0.71346  0.47038  0.71828  1.0000
  H   H14       1.0  0.28654  0.52962  0.28173  1.0000
  H   H15       1.0  0.80336  0.42508  0.56511  1.0000
  H   H16       1.0  0.19663  0.57491  0.43490  1.0000
  H   H17       1.0  0.06678  0.31762  0.96292  1.0000
  H   H18       1.0  0.93322  0.68237  0.03709  1.0000
  H   H19       1.0  0.51982  0.32931  0.16421  1.0000
  H   H20       1.0  0.48017  0.67069  0.83580  1.0000
  H   H21       1.0  0.53564  0.05123  0.21362  1.0000
  H   H22       1.0  0.46436  0.94878  0.78639  1.0000
  H   H23       1.0  0.31677  0.92110  0.13616  1.0000
  H   H24       1.0  0.68324  0.07889  0.86385  1.0000
  Pt  Pt1       1.0  1.00000  0.00000  1.00000  1.0000
  C   C1        1.0  0.16749  0.92937  0.71395  1.0000
  C   C2        1.0  0.83252  0.07063  0.28604  1.0000
  C   C3        1.0  0.23601  0.95409  0.57235  1.0000
  C   C4        1.0  0.76399  0.04592  0.42763  1.0000
  C   C5        1.0  0.20112  0.09698  0.50824  1.0000
  C   C6        1.0  0.79888  0.90302  0.49176  1.0000
  C   C7        1.0  0.09592  0.20926  0.58626  1.0000
  C   C8        1.0  0.90408  0.79075  0.41373  1.0000
  C   C9        1.0  0.03024  0.17787  0.72682  1.0000
  C   C10       1.0  0.96976  0.82213  0.27318  1.0000
  C   C11       1.0  0.35099  0.82698  0.49502  1.0000
  C   C12       1.0  0.64901  0.17303  0.50496  1.0000
  C   C13       1.0  0.43635  0.11558  0.15663  1.0000
  C   C14       1.0  0.56365  0.88441  0.84337  1.0000
  C   C15       1.0  0.17481  0.26275  0.01612  1.0000
  C   C16       1.0  0.82518  0.73725  0.98389  1.0000
  C   C17       1.0  0.31412  0.04061  0.11427  1.0000
  C   C18       1.0  0.68588  0.95940  0.88573  1.0000
  C   C19       1.0  0.42550  0.26918  0.13007  1.0000
  C   C20       1.0  0.57450  0.73082  0.86994  1.0000
  C   C21       1.0  0.29268  0.34431  0.05703  1.0000
  C   C22       1.0  0.70732  0.65569  0.94298  1.0000
  C   C23       1.0  0.27005  0.51106  0.02313  1.0000
  C   C24       1.0  0.72996  0.48894  0.97687  1.0000
  N   N1        1.0  0.18449  0.11406  0.04548  1.0000
  N   N2        1.0  0.81550  0.88594  0.95452  1.0000
  N   N3        1.0  0.07001  0.04055  0.78982  1.0000
  N   N4        1.0  0.93000  0.95946  0.21017  1.0000
  O   O1        1.0  0.42079  0.85249  0.36949  1.0000
  O   O2        1.0  0.57922  0.14752  0.63050  1.0000
  O   O3        1.0  0.36598  0.70257  0.56784  1.0000
  O   O4        1.0  0.63403  0.29744  0.43214  1.0000
  O   O5        1.0  0.64752  0.60016  0.32672  1.0000
  O   O6        1.0  0.35247  0.39984  0.67329  1.0000
  O   O7        1.0  0.72637  0.50573  0.61463  1.0000
  O   O8        1.0  0.27362  0.49426  0.38538  1.0000
  O   O9        1.0  0.23405  0.55744  0.90198  1.0000
  O   O10       1.0  0.76596  0.44256  0.09803  1.0000
  O   O11       1.0  0.28704  0.59293  0.11918  1.0000
  O   O12       1.0  0.71296  0.40707  0.88083  1.0000
