data_image0
_chemical_formula_structural       Cu12H16C24I8N20
_chemical_formula_sum              "Cu12 H16 C24 I8 N20"
_cell_length_a       8.58194
_cell_length_b       10.4132
_cell_length_c       12.5625
_cell_angle_alpha    89.9999
_cell_angle_beta     89.9999
_cell_angle_gamma    100.339

_space_group_name_H-M_alt    "P 1"
_space_group_IT_number       1

loop_
  _space_group_symop_operation_xyz
  'x, y, z'

loop_
  _atom_site_type_symbol
  _atom_site_label
  _atom_site_symmetry_multiplicity
  _atom_site_fract_x
  _atom_site_fract_y
  _atom_site_fract_z
  _atom_site_occupancy
  Cu  Cu1       1.0  0.69521  0.99801  0.43321  1.0000
  Cu  Cu2       1.0  0.80479  0.50199  0.93321  1.0000
  Cu  Cu3       1.0  0.30479  0.00199  0.56679  1.0000
  Cu  Cu4       1.0  0.19521  0.49800  0.06679  1.0000
  Cu  Cu5       1.0  0.00686  0.95850  0.40063  1.0000
  Cu  Cu6       1.0  0.49314  0.54150  0.90063  1.0000
  Cu  Cu7       1.0  0.99314  0.04150  0.59938  1.0000
  Cu  Cu8       1.0  0.50686  0.45850  0.09938  1.0000
  Cu  Cu9       1.0  0.12698  0.43832  0.33036  1.0000
  Cu  Cu10      1.0  0.37302  0.06168  0.83036  1.0000
  Cu  Cu11      1.0  0.87302  0.56168  0.66964  1.0000
  Cu  Cu12      1.0  0.62698  0.93832  0.16964  1.0000
  H   H1        1.0  0.59010  0.91864  0.93836  1.0000
  H   H2        1.0  0.90990  0.58136  0.43836  1.0000
  H   H3        1.0  0.40990  0.08136  0.06164  1.0000
  H   H4        1.0  0.09010  0.41864  0.56164  1.0000
  H   H5        1.0  0.92123  0.12242  0.14701  1.0000
  H   H6        1.0  0.57877  0.37758  0.64701  1.0000
  H   H7        1.0  0.07876  0.87757  0.85299  1.0000
  H   H8        1.0  0.42124  0.62242  0.35299  1.0000
  H   H9        1.0  0.96788  0.20733  0.81114  1.0000
  H   H10       1.0  0.53212  0.29267  0.31115  1.0000
  H   H11       1.0  0.03211  0.79267  0.18886  1.0000
  H   H12       1.0  0.46788  0.70733  0.68885  1.0000
  H   H13       1.0  0.07091  0.24526  0.99801  1.0000
  H   H14       1.0  0.42909  0.25474  0.49801  1.0000
  H   H15       1.0  0.92908  0.75474  0.00200  1.0000
  H   H16       1.0  0.57092  0.74526  0.50199  1.0000
  C   C1        1.0  0.77183  0.05908  0.86046  1.0000
  C   C2        1.0  0.72817  0.44092  0.36046  1.0000
  C   C3        1.0  0.22817  0.94092  0.13954  1.0000
  C   C4        1.0  0.27183  0.55908  0.63954  1.0000
  C   C5        1.0  0.69597  0.99298  0.94855  1.0000
  C   C6        1.0  0.80403  0.50702  0.44855  1.0000
  C   C7        1.0  0.30403  0.00702  0.05145  1.0000
  C   C8        1.0  0.19597  0.49298  0.55145  1.0000
  C   C9        1.0  0.90840  0.15202  0.87752  1.0000
  C   C10       1.0  0.59160  0.34798  0.37752  1.0000
  C   C11       1.0  0.09159  0.84798  0.12248  1.0000
  C   C12       1.0  0.40841  0.65202  0.62248  1.0000
  C   C13       1.0  0.69924  0.03393  0.75568  1.0000
  C   C14       1.0  0.80077  0.46607  0.25568  1.0000
  C   C15       1.0  0.30076  0.96606  0.24432  1.0000
  C   C16       1.0  0.19924  0.53394  0.74432  1.0000
  C   C17       1.0  0.88172  0.10625  0.06474  1.0000
  C   C18       1.0  0.61828  0.39375  0.56474  1.0000
  C   C19       1.0  0.11827  0.89375  0.93526  1.0000
  C   C20       1.0  0.38173  0.60625  0.43526  1.0000
  C   C21       1.0  0.96442  0.17409  0.98118  1.0000
  C   C22       1.0  0.53558  0.32591  0.48118  1.0000
  C   C23       1.0  0.03558  0.82590  0.01882  1.0000
  C   C24       1.0  0.46442  0.67409  0.51882  1.0000
  I   I1        1.0  0.94425  0.19353  0.42492  1.0000
  I   I2        1.0  0.55575  0.30647  0.92492  1.0000
  I   I3        1.0  0.05575  0.80647  0.57508  1.0000
  I   I4        1.0  0.44425  0.69353  0.07508  1.0000
  I   I5        1.0  0.76701  0.81002  0.31093  1.0000
  I   I6        1.0  0.73299  0.68998  0.81093  1.0000
  I   I7        1.0  0.23300  0.18998  0.68908  1.0000
  I   I8        1.0  0.26700  0.31002  0.18907  1.0000
  N   N1        1.0  0.54096  0.01652  0.74088  1.0000
  N   N2        1.0  0.95904  0.48348  0.24088  1.0000
  N   N3        1.0  0.45904  0.98348  0.25912  1.0000
  N   N4        1.0  0.04096  0.51652  0.75912  1.0000
  N   N5        1.0  0.77196  0.02379  0.66168  1.0000
  N   N6        1.0  0.72804  0.47622  0.16168  1.0000
  N   N7        1.0  0.22804  0.97621  0.33832  1.0000
  N   N8        1.0  0.27196  0.52378  0.83832  1.0000
  N   N9        1.0  0.65475  0.99620  0.58923  1.0000
  N   N10       1.0  0.84525  0.50380  0.08923  1.0000
  N   N11       1.0  0.34525  0.00380  0.41077  1.0000
  N   N12       1.0  0.15475  0.49620  0.91077  1.0000
  N   N13       1.0  0.51602  0.99243  0.63655  1.0000
  N   N14       1.0  0.98398  0.50757  0.13655  1.0000
  N   N15       1.0  0.48398  0.00757  0.36345  1.0000
  N   N16       1.0  0.01602  0.49243  0.86345  1.0000
  N   N17       1.0  0.74799  0.01651  0.04900  1.0000
  N   N18       1.0  0.75201  0.48349  0.54900  1.0000
  N   N19       1.0  0.25201  0.98349  0.95100  1.0000
  N   N20       1.0  0.24799  0.51651  0.45100  1.0000
