data_image0
_chemical_formula_structural       Bi4H52C24S8N4Cl4
_chemical_formula_sum              "Bi4 H52 C24 S8 N4 Cl4"
_cell_length_a       7.92343
_cell_length_b       9.91008
_cell_length_c       14.4515
_cell_angle_alpha    104.459
_cell_angle_beta     89.9999
_cell_angle_gamma    90.0001

_space_group_name_H-M_alt    "P 1"
_space_group_IT_number       1

loop_
  _space_group_symop_operation_xyz
  'x, y, z'

loop_
  _atom_site_type_symbol
  _atom_site_label
  _atom_site_symmetry_multiplicity
  _atom_site_fract_x
  _atom_site_fract_y
  _atom_site_fract_z
  _atom_site_occupancy
  Bi  Bi1       1.0  0.94422  0.93355  0.70509  1.0000
  Bi  Bi2       1.0  0.44423  0.06646  0.79491  1.0000
  Bi  Bi3       1.0  0.05578  0.06644  0.29491  1.0000
  Bi  Bi4       1.0  0.55578  0.93356  0.20509  1.0000
  H   H1        1.0  0.18039  0.98080  0.57085  1.0000
  H   H2        1.0  0.68040  0.01920  0.92916  1.0000
  H   H3        1.0  0.81961  0.01920  0.42915  1.0000
  H   H4        1.0  0.31961  0.98080  0.07085  1.0000
  H   H5        1.0  0.15843  0.13442  0.66786  1.0000
  H   H6        1.0  0.65843  0.86558  0.83214  1.0000
  H   H7        1.0  0.84157  0.86557  0.33214  1.0000
  H   H8        1.0  0.34157  0.13443  0.16786  1.0000
  H   H9        1.0  0.00249  0.09671  0.57534  1.0000
  H   H10       1.0  0.50249  0.90330  0.92466  1.0000
  H   H11       1.0  0.99750  0.90329  0.42466  1.0000
  H   H12       1.0  0.49751  0.09671  0.07534  1.0000
  H   H13       1.0  0.51471  0.70389  0.33546  1.0000
  H   H14       1.0  0.01471  0.29611  0.16454  1.0000
  H   H15       1.0  0.48529  0.29611  0.66454  1.0000
  H   H16       1.0  0.98529  0.70389  0.83546  1.0000
  H   H17       1.0  0.51482  0.85090  0.43476  1.0000
  H   H18       1.0  0.01482  0.14910  0.06524  1.0000
  H   H19       1.0  0.48518  0.14910  0.56524  1.0000
  H   H20       1.0  0.98518  0.85089  0.93476  1.0000
  H   H21       1.0  0.34483  0.56911  0.43128  1.0000
  H   H22       1.0  0.84484  0.43089  0.06872  1.0000
  H   H23       1.0  0.65517  0.43089  0.56872  1.0000
  H   H24       1.0  0.15517  0.56911  0.93128  1.0000
  H   H25       1.0  0.24057  0.72286  0.42076  1.0000
  H   H26       1.0  0.74057  0.27715  0.07924  1.0000
  H   H27       1.0  0.75943  0.27714  0.57924  1.0000
  H   H28       1.0  0.25943  0.72286  0.92076  1.0000
  H   H29       1.0  0.34404  0.71991  0.52973  1.0000
  H   H30       1.0  0.84404  0.28009  0.97027  1.0000
  H   H31       1.0  0.65597  0.28009  0.47027  1.0000
  H   H32       1.0  0.15596  0.71991  0.02973  1.0000
  H   H33       1.0  0.61894  0.48505  0.36307  1.0000
  H   H34       1.0  0.11894  0.51495  0.13693  1.0000
  H   H35       1.0  0.38106  0.51494  0.63694  1.0000
  H   H36       1.0  0.88106  0.48505  0.86306  1.0000
  H   H37       1.0  0.79963  0.49825  0.43643  1.0000
  H   H38       1.0  0.29962  0.50175  0.06357  1.0000
  H   H39       1.0  0.20038  0.50175  0.56357  1.0000
  H   H40       1.0  0.70038  0.49824  0.93643  1.0000
  H   H41       1.0  0.77263  0.61899  0.25926  1.0000
  H   H42       1.0  0.27263  0.38101  0.24074  1.0000
  H   H43       1.0  0.22737  0.38100  0.74074  1.0000
  H   H44       1.0  0.72737  0.61900  0.75926  1.0000
  H   H45       1.0  0.87600  0.46288  0.26558  1.0000
  H   H46       1.0  0.37600  0.53712  0.23442  1.0000
  H   H47       1.0  0.12400  0.53712  0.73442  1.0000
  H   H48       1.0  0.62400  0.46288  0.76558  1.0000
  H   H49       1.0  0.95503  0.62628  0.33311  1.0000
  H   H50       1.0  0.45503  0.37372  0.16689  1.0000
  H   H51       1.0  0.04497  0.37372  0.66689  1.0000
  H   H52       1.0  0.54497  0.62628  0.83311  1.0000
  C   C1        1.0  0.09155  0.05138  0.61687  1.0000
  C   C2        1.0  0.59155  0.94862  0.88313  1.0000
  C   C3        1.0  0.90845  0.94862  0.38313  1.0000
  C   C4        1.0  0.40845  0.05138  0.11687  1.0000
  C   C5        1.0  0.74448  0.75431  0.52735  1.0000
  C   C6        1.0  0.24448  0.24569  0.97265  1.0000
  C   C7        1.0  0.25552  0.24568  0.47264  1.0000
  C   C8        1.0  0.75552  0.75432  0.02735  1.0000
  C   C9        1.0  0.51074  0.73650  0.41394  1.0000
  C   C10       1.0  0.01074  0.26350  0.08606  1.0000
  C   C11       1.0  0.48926  0.26350  0.58606  1.0000
  C   C12       1.0  0.98926  0.73650  0.91394  1.0000
  C   C13       1.0  0.35107  0.68351  0.45159  1.0000
  C   C14       1.0  0.85107  0.31649  0.04841  1.0000
  C   C15       1.0  0.64893  0.31649  0.54841  1.0000
  C   C16       1.0  0.14893  0.68351  0.95159  1.0000
  C   C17       1.0  0.72916  0.55035  0.38997  1.0000
  C   C18       1.0  0.22916  0.44965  0.11003  1.0000
  C   C19       1.0  0.27084  0.44965  0.61003  1.0000
  C   C20       1.0  0.77083  0.55035  0.88997  1.0000
  C   C21       1.0  0.83999  0.56722  0.30735  1.0000
  C   C22       1.0  0.33999  0.43278  0.19265  1.0000
  C   C23       1.0  0.16001  0.43278  0.69265  1.0000
  C   C24       1.0  0.66001  0.56723  0.80735  1.0000
  S   S1        1.0  0.66838  0.91405  0.59190  1.0000
  S   S2        1.0  0.16840  0.08595  0.90809  1.0000
  S   S3        1.0  0.33161  0.08595  0.40810  1.0000
  S   S4        1.0  0.83161  0.91405  0.09190  1.0000
  S   S5        1.0  0.92948  0.69327  0.56468  1.0000
  S   S6        1.0  0.42948  0.30673  0.93532  1.0000
  S   S7        1.0  0.07052  0.30673  0.43532  1.0000
  S   S8        1.0  0.57052  0.69327  0.06468  1.0000
  N   N1        1.0  0.66525  0.68370  0.44862  1.0000
  N   N2        1.0  0.16526  0.31630  0.05138  1.0000
  N   N3        1.0  0.33475  0.31629  0.55138  1.0000
  N   N4        1.0  0.83475  0.68370  0.94862  1.0000
  Cl  Cl1       1.0  0.76908  0.19379  0.77386  1.0000
  Cl  Cl2       1.0  0.26908  0.80622  0.72614  1.0000
  Cl  Cl3       1.0  0.23092  0.80622  0.22614  1.0000
  Cl  Cl4       1.0  0.73092  0.19378  0.27386  1.0000
