data_image0
_chemical_formula_structural       Hg4H16C20N12O8
_chemical_formula_sum              "Hg4 H16 C20 N12 O8"
_cell_length_a       7.38352
_cell_length_b       8.70213
_cell_length_c       11.4877
_cell_angle_alpha    90
_cell_angle_beta     90
_cell_angle_gamma    108.542

_space_group_name_H-M_alt    "P 1"
_space_group_IT_number       1

loop_
  _space_group_symop_operation_xyz
  'x, y, z'

loop_
  _atom_site_type_symbol
  _atom_site_label
  _atom_site_symmetry_multiplicity
  _atom_site_fract_x
  _atom_site_fract_y
  _atom_site_fract_z
  _atom_site_occupancy
  Hg  Hg1       1.0  0.13551  0.60286  0.44408  1.0000
  Hg  Hg2       1.0  0.86449  0.89714  0.94408  1.0000
  Hg  Hg3       1.0  0.86449  0.39714  0.55592  1.0000
  Hg  Hg4       1.0  0.13551  0.10286  0.05592  1.0000
  H   H1        1.0  0.86204  0.19444  0.25739  1.0000
  H   H2        1.0  0.13796  0.30556  0.75739  1.0000
  H   H3        1.0  0.13796  0.80556  0.74261  1.0000
  H   H4        1.0  0.86204  0.69444  0.24261  1.0000
  H   H5        1.0  0.61848  0.13160  0.20735  1.0000
  H   H6        1.0  0.38152  0.36840  0.70735  1.0000
  H   H7        1.0  0.38152  0.86840  0.79265  1.0000
  H   H8        1.0  0.61848  0.63160  0.29265  1.0000
  H   H9        1.0  0.87642  0.87172  0.55649  1.0000
  H   H10       1.0  0.12358  0.62828  0.05649  1.0000
  H   H11       1.0  0.12358  0.12828  0.44351  1.0000
  H   H12       1.0  0.87642  0.37172  0.94351  1.0000
  H   H13       1.0  0.53637  0.67688  0.57689  1.0000
  H   H14       1.0  0.46363  0.82313  0.07689  1.0000
  H   H15       1.0  0.46363  0.32313  0.42311  1.0000
  H   H16       1.0  0.53637  0.17688  0.92311  1.0000
  C   C1        1.0  0.31395  0.90062  0.27665  1.0000
  C   C2        1.0  0.68605  0.59938  0.77665  1.0000
  C   C3        1.0  0.68605  0.09938  0.72335  1.0000
  C   C4        1.0  0.31395  0.40062  0.22335  1.0000
  C   C5        1.0  0.47656  0.89951  0.35621  1.0000
  C   C6        1.0  0.52345  0.60049  0.85621  1.0000
  C   C7        1.0  0.52345  0.10049  0.64379  1.0000
  C   C8        1.0  0.47655  0.39951  0.14379  1.0000
  C   C9        1.0  0.66911  0.00782  0.34495  1.0000
  C   C10       1.0  0.33089  0.49218  0.84495  1.0000
  C   C11       1.0  0.33089  0.99218  0.65505  1.0000
  C   C12       1.0  0.66911  0.50782  0.15505  1.0000
  C   C13       1.0  0.76108  0.87859  0.49925  1.0000
  C   C14       1.0  0.23892  0.62141  0.99925  1.0000
  C   C15       1.0  0.23892  0.12141  0.50075  1.0000
  C   C16       1.0  0.76108  0.37859  0.00075  1.0000
  C   C17       1.0  0.57512  0.77282  0.51200  1.0000
  C   C18       1.0  0.42488  0.72717  0.01200  1.0000
  C   C19       1.0  0.42489  0.22718  0.48800  1.0000
  C   C20       1.0  0.57511  0.27283  0.98800  1.0000
  N   N1        1.0  0.43888  0.78850  0.44072  1.0000
  N   N2        1.0  0.56112  0.71150  0.94072  1.0000
  N   N3        1.0  0.56113  0.21150  0.55929  1.0000
  N   N4        1.0  0.43887  0.28850  0.05929  1.0000
  N   N5        1.0  0.80691  0.99430  0.41854  1.0000
  N   N6        1.0  0.19309  0.50570  0.91854  1.0000
  N   N7        1.0  0.19309  0.00570  0.58146  1.0000
  N   N8        1.0  0.80691  0.49430  0.08146  1.0000
  N   N9        1.0  0.72154  0.12604  0.26474  1.0000
  N   N10       1.0  0.27846  0.37396  0.76474  1.0000
  N   N11       1.0  0.27846  0.87396  0.73526  1.0000
  N   N12       1.0  0.72154  0.62604  0.23526  1.0000
  O   O1        1.0  0.14920  0.79820  0.29329  1.0000
  O   O2        1.0  0.85080  0.70180  0.79329  1.0000
  O   O3        1.0  0.85079  0.20180  0.70671  1.0000
  O   O4        1.0  0.14920  0.29820  0.20671  1.0000
  O   O5        1.0  0.35589  0.00530  0.19557  1.0000
  O   O6        1.0  0.64411  0.49470  0.69557  1.0000
  O   O7        1.0  0.64411  0.99470  0.80443  1.0000
  O   O8        1.0  0.35589  0.50530  0.30443  1.0000
