data_image0
_chemical_formula_structural       CuH4C10S4N4Cl2
_chemical_formula_sum              "Cu1 H4 C10 S4 N4 Cl2"
_cell_length_a       3.76733
_cell_length_b       7.86226
_cell_length_c       11.407
_cell_angle_alpha    94.5009
_cell_angle_beta     96.9182
_cell_angle_gamma    94.8728

_space_group_name_H-M_alt    "P 1"
_space_group_IT_number       1

loop_
  _space_group_symop_operation_xyz
  'x, y, z'

loop_
  _atom_site_type_symbol
  _atom_site_label
  _atom_site_symmetry_multiplicity
  _atom_site_fract_x
  _atom_site_fract_y
  _atom_site_fract_z
  _atom_site_occupancy
  Cu  Cu1       1.0  0.00002  1.00000  0.00000  1.0000
  H   H1        1.0  0.90173  0.35761  0.03236  1.0000
  H   H2        1.0  0.09829  0.64239  0.96764  1.0000
  H   H3        1.0  0.90782  0.59834  0.19204  1.0000
  H   H4        1.0  0.09214  0.40166  0.80796  1.0000
  C   C1        1.0  0.16004  0.15827  0.26402  1.0000
  C   C2        1.0  0.83997  0.84173  0.73598  1.0000
  C   C3        1.0  0.18252  0.29887  0.35260  1.0000
  C   C4        1.0  0.81748  0.70113  0.64740  1.0000
  C   C5        1.0  0.41457  0.04823  0.46005  1.0000
  C   C6        1.0  0.58544  0.95177  0.53995  1.0000
  C   C7        1.0  0.98027  0.34086  0.12519  1.0000
  C   C8        1.0  0.01974  0.65913  0.87480  1.0000
  C   C9        1.0  0.98678  0.47291  0.21365  1.0000
  C   C10       1.0  0.01319  0.52708  0.78635  1.0000
  S   S1        1.0  0.33963  0.26077  0.49736  1.0000
  S   S2        1.0  0.66036  0.73924  0.50265  1.0000
  S   S3        1.0  0.25645  0.96240  0.31467  1.0000
  S   S4        1.0  0.74357  0.03760  0.68534  1.0000
  N   N1        1.0  0.06230  0.18178  0.15007  1.0000
  N   N2        1.0  0.93772  0.81822  0.84993  1.0000
  N   N3        1.0  0.08963  0.45221  0.32859  1.0000
  N   N4        1.0  0.91035  0.54779  0.67141  1.0000
  Cl  Cl1       1.0  0.62400  0.82998  0.09069  1.0000
  Cl  Cl2       1.0  0.37600  0.17003  0.90930  1.0000
