data_image0
_chemical_formula_structural       Cd4H20C32O22
_chemical_formula_sum              "Cd4 H20 C32 O22"
_cell_length_a       7.46705
_cell_length_b       10.8975
_cell_length_c       11.1199
_cell_angle_alpha    89.9862
_cell_angle_beta     94.7916
_cell_angle_gamma    108.107

_space_group_name_H-M_alt    "P 1"
_space_group_IT_number       1

loop_
  _space_group_symop_operation_xyz
  'x, y, z'

loop_
  _atom_site_type_symbol
  _atom_site_label
  _atom_site_symmetry_multiplicity
  _atom_site_fract_x
  _atom_site_fract_y
  _atom_site_fract_z
  _atom_site_occupancy
  Cd  Cd1       1.0  0.51412  0.80304  0.29316  1.0000
  Cd  Cd2       1.0  0.48588  0.19696  0.70684  1.0000
  Cd  Cd3       1.0  0.91174  0.94608  0.65070  1.0000
  Cd  Cd4       1.0  0.08826  0.05392  0.34930  1.0000
  H   H1        1.0  0.68667  0.06516  0.20853  1.0000
  H   H2        1.0  0.31333  0.93484  0.79147  1.0000
  H   H3        1.0  0.48330  0.05781  0.24400  1.0000
  H   H4        1.0  0.51670  0.94219  0.75600  1.0000
  H   H5        1.0  0.04769  0.74245  0.76216  1.0000
  H   H6        1.0  0.95231  0.25755  0.23784  1.0000
  H   H7        1.0  0.02135  0.82256  0.87213  1.0000
  H   H8        1.0  0.97866  0.17744  0.12787  1.0000
  H   H9        1.0  0.35249  0.35006  0.18470  1.0000
  H   H10       1.0  0.64751  0.64994  0.81530  1.0000
  H   H11       1.0  0.23521  0.15920  0.04487  1.0000
  H   H12       1.0  0.76479  0.84081  0.95512  1.0000
  H   H13       1.0  0.19962  0.58761  0.91223  1.0000
  H   H14       1.0  0.80038  0.41239  0.08777  1.0000
  H   H15       1.0  0.40111  0.53717  0.70742  1.0000
  H   H16       1.0  0.59889  0.46282  0.29258  1.0000
  H   H17       1.0  0.80563  0.49055  0.65077  1.0000
  H   H18       1.0  0.19437  0.50945  0.34923  1.0000
  H   H19       1.0  0.87666  0.68818  0.52685  1.0000
  H   H20       1.0  0.12334  0.31182  0.47315  1.0000
  C   C1        1.0  0.35635  0.59764  0.13888  1.0000
  C   C2        1.0  0.64365  0.40236  0.86112  1.0000
  C   C3        1.0  0.28276  0.48087  0.05659  1.0000
  C   C4        1.0  0.71724  0.51913  0.94341  1.0000
  C   C5        1.0  0.29215  0.36037  0.09446  1.0000
  C   C6        1.0  0.70786  0.63963  0.90554  1.0000
  C   C7        1.0  0.22436  0.25277  0.01637  1.0000
  C   C8        1.0  0.77564  0.74723  0.98363  1.0000
  C   C9        1.0  0.14784  0.26421  0.89919  1.0000
  C   C10       1.0  0.85216  0.73579  0.10081  1.0000
  C   C11       1.0  0.07285  0.14786  0.81666  1.0000
  C   C12       1.0  0.92714  0.85215  0.18334  1.0000
  C   C13       1.0  0.14096  0.38580  0.86147  1.0000
  C   C14       1.0  0.85904  0.61420  0.13853  1.0000
  C   C15       1.0  0.20632  0.49317  0.93974  1.0000
  C   C16       1.0  0.79368  0.50683  0.06026  1.0000
  C   C17       1.0  0.10090  0.50505  0.68611  1.0000
  C   C18       1.0  0.89910  0.49495  0.31389  1.0000
  C   C19       1.0  0.28843  0.57324  0.66860  1.0000
  C   C20       1.0  0.71157  0.42676  0.33140  1.0000
  C   C21       1.0  0.32825  0.68481  0.59994  1.0000
  C   C22       1.0  0.67175  0.31519  0.40006  1.0000
  C   C23       1.0  0.53285  0.76217  0.59107  1.0000
  C   C24       1.0  0.46716  0.23783  0.40893  1.0000
  C   C25       1.0  0.95106  0.54527  0.63607  1.0000
  C   C26       1.0  0.04895  0.45473  0.36393  1.0000
  C   C27       1.0  0.99165  0.65587  0.56783  1.0000
  C   C28       1.0  0.00834  0.34413  0.43217  1.0000
  C   C29       1.0  0.17915  0.72711  0.54973  1.0000
  C   C30       1.0  0.82085  0.27289  0.45027  1.0000
  C   C31       1.0  0.20861  0.84863  0.48207  1.0000
  C   C32       1.0  0.79138  0.15137  0.51793  1.0000
  O   O1        1.0  0.43388  0.58464  0.24431  1.0000
  O   O2        1.0  0.56612  0.41536  0.75569  1.0000
  O   O3        1.0  0.34240  0.70530  0.10437  1.0000
  O   O4        1.0  0.65760  0.29470  0.89564  1.0000
  O   O5        1.0  0.55866  0.00543  0.21602  1.0000
  O   O6        1.0  0.44134  0.99457  0.78398  1.0000
  O   O7        1.0  0.92467  0.06033  0.83921  1.0000
  O   O8        1.0  0.07533  0.93967  0.16079  1.0000
  O   O9        1.0  0.16155  0.14017  0.72350  1.0000
  O   O10       1.0  0.83846  0.85983  0.27651  1.0000
  O   O11       1.0  0.05431  0.39060  0.74747  1.0000
  O   O12       1.0  0.94569  0.60940  0.25253  1.0000
  O   O13       1.0  0.61364  0.76458  0.49567  1.0000
  O   O14       1.0  0.38636  0.23542  0.50433  1.0000
  O   O15       1.0  0.61929  0.82238  0.68923  1.0000
  O   O16       1.0  0.38072  0.17762  0.31077  1.0000
  O   O17       1.0  0.31947  0.88007  0.39989  1.0000
  O   O18       1.0  0.68053  0.11993  0.60011  1.0000
  O   O19       1.0  0.10897  0.92083  0.50909  1.0000
  O   O20       1.0  0.89103  0.07916  0.49091  1.0000
  O   O21       1.0  0.07465  0.83101  0.79363  1.0000
  O   O22       1.0  0.92535  0.16899  0.20637  1.0000
