data_image0
_chemical_formula_structural       Cd2H12C16Br4N8
_chemical_formula_sum              "Cd2 H12 C16 Br4 N8"
_cell_length_a       7.85896
_cell_length_b       8.34965
_cell_length_c       8.34964
_cell_angle_alpha    90.1963
_cell_angle_beta     90.0001
_cell_angle_gamma    90.0002

_space_group_name_H-M_alt    "P 1"
_space_group_IT_number       1

loop_
  _space_group_symop_operation_xyz
  'x, y, z'

loop_
  _atom_site_type_symbol
  _atom_site_label
  _atom_site_symmetry_multiplicity
  _atom_site_fract_x
  _atom_site_fract_y
  _atom_site_fract_z
  _atom_site_occupancy
  Cd  Cd1       1.0  0.75000  0.01100  0.98900  1.0000
  Cd  Cd2       1.0  0.25000  0.98900  0.01100  1.0000
  H   H1        1.0  0.75000  0.62418  0.97179  1.0000
  H   H2        1.0  0.25000  0.37581  0.02821  1.0000
  H   H3        1.0  0.75001  0.02821  0.37581  1.0000
  H   H4        1.0  0.25000  0.97179  0.62418  1.0000
  H   H5        1.0  0.75000  0.39572  0.78141  1.0000
  H   H6        1.0  0.25000  0.60427  0.21858  1.0000
  H   H7        1.0  0.75000  0.21858  0.60427  1.0000
  H   H8        1.0  0.25000  0.78142  0.39573  1.0000
  H   H9        1.0  0.75000  0.75949  0.41028  1.0000
  H   H10       1.0  0.25000  0.24052  0.58973  1.0000
  H   H11       1.0  0.75000  0.58973  0.24052  1.0000
  H   H12       1.0  0.25000  0.41028  0.75948  1.0000
  C   C1        1.0  0.75000  0.64477  0.84330  1.0000
  C   C2        1.0  0.25000  0.35522  0.15670  1.0000
  C   C3        1.0  0.75000  0.15670  0.35522  1.0000
  C   C4        1.0  0.25000  0.84330  0.64477  1.0000
  C   C5        1.0  0.75000  0.51746  0.73505  1.0000
  C   C6        1.0  0.25000  0.48254  0.26495  1.0000
  C   C7        1.0  0.75000  0.26495  0.48254  1.0000
  C   C8        1.0  0.25000  0.73505  0.51745  1.0000
  C   C9        1.0  0.75000  0.55328  0.57198  1.0000
  C   C10       1.0  0.25000  0.44672  0.42802  1.0000
  C   C11       1.0  0.75000  0.42803  0.44672  1.0000
  C   C12       1.0  0.25000  0.57198  0.55328  1.0000
  C   C13       1.0  0.75000  0.71800  0.53394  1.0000
  C   C14       1.0  0.25000  0.28200  0.46607  1.0000
  C   C15       1.0  0.75000  0.46606  0.28199  1.0000
  C   C16       1.0  0.25000  0.53395  0.71800  1.0000
  Br  Br1       1.0  0.00885  0.16687  0.83313  1.0000
  Br  Br2       1.0  0.50885  0.83312  0.16687  1.0000
  Br  Br3       1.0  0.49114  0.16688  0.83313  1.0000
  Br  Br4       1.0  0.99115  0.83312  0.16687  1.0000
  N   N1        1.0  0.75000  0.79786  0.79704  1.0000
  N   N2        1.0  0.25000  0.20213  0.20297  1.0000
  N   N3        1.0  0.75000  0.20297  0.20214  1.0000
  N   N4        1.0  0.25000  0.79704  0.79786  1.0000
  N   N5        1.0  0.75000  0.83596  0.64207  1.0000
  N   N6        1.0  0.25000  0.16405  0.35794  1.0000
  N   N7        1.0  0.75000  0.35794  0.16405  1.0000
  N   N8        1.0  0.25000  0.64207  0.83595  1.0000
