data_image0
_chemical_formula_structural       Cd2H12C16N8Cl4
_chemical_formula_sum              "Cd2 H12 C16 N8 Cl4"
_cell_length_a       7.48524
_cell_length_b       8.24119
_cell_length_c       8.24119
_cell_angle_alpha    88.7766
_cell_angle_beta     90
_cell_angle_gamma    90

_space_group_name_H-M_alt    "P 1"
_space_group_IT_number       1

loop_
  _space_group_symop_operation_xyz
  'x, y, z'

loop_
  _atom_site_type_symbol
  _atom_site_label
  _atom_site_symmetry_multiplicity
  _atom_site_fract_x
  _atom_site_fract_y
  _atom_site_fract_z
  _atom_site_occupancy
  Cd  Cd1       1.0  0.75000  0.01160  0.98840  1.0000
  Cd  Cd2       1.0  0.25000  0.98840  0.01160  1.0000
  H   H1        1.0  0.75000  0.62142  0.97508  1.0000
  H   H2        1.0  0.25000  0.37858  0.02492  1.0000
  H   H3        1.0  0.75000  0.02492  0.37858  1.0000
  H   H4        1.0  0.25000  0.97508  0.62142  1.0000
  H   H5        1.0  0.75000  0.39212  0.78590  1.0000
  H   H6        1.0  0.25000  0.60788  0.21410  1.0000
  H   H7        1.0  0.75000  0.21410  0.60789  1.0000
  H   H8        1.0  0.25000  0.78590  0.39212  1.0000
  H   H9        1.0  0.75000  0.76430  0.40422  1.0000
  H   H10       1.0  0.25000  0.23570  0.59578  1.0000
  H   H11       1.0  0.75000  0.59578  0.23570  1.0000
  H   H12       1.0  0.25000  0.40422  0.76430  1.0000
  C   C1        1.0  0.75000  0.64374  0.84470  1.0000
  C   C2        1.0  0.25000  0.35626  0.15529  1.0000
  C   C3        1.0  0.75000  0.15530  0.35627  1.0000
  C   C4        1.0  0.25000  0.84470  0.64373  1.0000
  C   C5        1.0  0.75000  0.51582  0.73690  1.0000
  C   C6        1.0  0.25000  0.48418  0.26310  1.0000
  C   C7        1.0  0.75000  0.26310  0.48418  1.0000
  C   C8        1.0  0.25000  0.73690  0.51582  1.0000
  C   C9        1.0  0.75000  0.55399  0.57126  1.0000
  C   C10       1.0  0.25000  0.44601  0.42874  1.0000
  C   C11       1.0  0.75000  0.42874  0.44601  1.0000
  C   C12       1.0  0.25000  0.57125  0.55399  1.0000
  C   C13       1.0  0.75000  0.72127  0.53024  1.0000
  C   C14       1.0  0.25000  0.27873  0.46976  1.0000
  C   C15       1.0  0.75000  0.46976  0.27874  1.0000
  C   C16       1.0  0.25000  0.53024  0.72126  1.0000
  N   N1        1.0  0.75000  0.79937  0.79581  1.0000
  N   N2        1.0  0.25000  0.20063  0.20419  1.0000
  N   N3        1.0  0.75000  0.20418  0.20064  1.0000
  N   N4        1.0  0.25000  0.79581  0.79937  1.0000
  N   N5        1.0  0.75000  0.83954  0.63808  1.0000
  N   N6        1.0  0.25000  0.16046  0.36192  1.0000
  N   N7        1.0  0.75000  0.36192  0.16047  1.0000
  N   N8        1.0  0.25000  0.63808  0.83953  1.0000
  Cl  Cl1       1.0  0.01012  0.16258  0.83742  1.0000
  Cl  Cl2       1.0  0.51012  0.83742  0.16258  1.0000
  Cl  Cl3       1.0  0.48988  0.16258  0.83742  1.0000
  Cl  Cl4       1.0  0.98988  0.83742  0.16258  1.0000
