data_image0
_chemical_formula_structural       Cd4H12C16I8N8
_chemical_formula_sum              "Cd4 H12 C16 I8 N8"
_cell_length_a       7.71418
_cell_length_b       7.95482
_cell_length_c       14.3164
_cell_angle_alpha    90.0004
_cell_angle_beta     89.9999
_cell_angle_gamma    115.956

_space_group_name_H-M_alt    "P 1"
_space_group_IT_number       1

loop_
  _space_group_symop_operation_xyz
  'x, y, z'

loop_
  _atom_site_type_symbol
  _atom_site_label
  _atom_site_symmetry_multiplicity
  _atom_site_fract_x
  _atom_site_fract_y
  _atom_site_fract_z
  _atom_site_occupancy
  Cd  Cd1       1.0  0.08414  0.96759  0.23666  1.0000
  Cd  Cd2       1.0  0.41586  0.03241  0.73665  1.0000
  Cd  Cd3       1.0  0.91586  0.03240  0.76335  1.0000
  Cd  Cd4       1.0  0.58414  0.96760  0.26335  1.0000
  H   H1        1.0  0.84291  0.38131  0.17162  1.0000
  H   H2        1.0  0.65709  0.61869  0.67162  1.0000
  H   H3        1.0  0.15709  0.61870  0.82838  1.0000
  H   H4        1.0  0.34291  0.38130  0.32838  1.0000
  H   H5        1.0  0.83001  0.58225  0.04204  1.0000
  H   H6        1.0  0.66998  0.41775  0.54204  1.0000
  H   H7        1.0  0.16998  0.41776  0.95796  1.0000
  H   H8        1.0  0.33002  0.58224  0.45796  1.0000
  H   H9        1.0  0.20786  0.29318  0.07678  1.0000
  H   H10       1.0  0.29214  0.70682  0.57678  1.0000
  H   H11       1.0  0.79214  0.70682  0.92322  1.0000
  H   H12       1.0  0.70787  0.29318  0.42322  1.0000
  C   C1        1.0  0.70482  0.36817  0.14564  1.0000
  C   C2        1.0  0.79518  0.63183  0.64564  1.0000
  C   C3        1.0  0.29518  0.63184  0.85436  1.0000
  C   C4        1.0  0.20482  0.36817  0.35436  1.0000
  C   C5        1.0  0.69580  0.47968  0.07227  1.0000
  C   C6        1.0  0.80420  0.52032  0.57227  1.0000
  C   C7        1.0  0.30420  0.52032  0.92773  1.0000
  C   C8        1.0  0.19580  0.47967  0.42773  1.0000
  C   C9        1.0  0.51451  0.45107  0.04052  1.0000
  C   C10       1.0  0.98549  0.54892  0.54052  1.0000
  C   C11       1.0  0.48549  0.54893  0.95948  1.0000
  C   C12       1.0  0.01452  0.45108  0.45948  1.0000
  C   C13       1.0  0.35645  0.32050  0.09164  1.0000
  C   C14       1.0  0.14355  0.67950  0.59164  1.0000
  C   C15       1.0  0.64355  0.67950  0.90836  1.0000
  C   C16       1.0  0.85645  0.32050  0.40835  1.0000
  I   I1        1.0  0.32532  0.99886  0.40365  1.0000
  I   I2        1.0  0.17468  0.00114  0.90365  1.0000
  I   I3        1.0  0.67468  0.00114  0.59635  1.0000
  I   I4        1.0  0.82533  0.99886  0.09635  1.0000
  I   I5        1.0  0.22712  0.71132  0.15718  1.0000
  I   I6        1.0  0.27288  0.28868  0.65718  1.0000
  I   I7        1.0  0.77288  0.28868  0.84282  1.0000
  I   I8        1.0  0.72712  0.71132  0.34282  1.0000
  N   N1        1.0  0.54873  0.23649  0.18590  1.0000
  N   N2        1.0  0.95127  0.76351  0.68590  1.0000
  N   N3        1.0  0.45127  0.76351  0.81410  1.0000
  N   N4        1.0  0.04873  0.23649  0.31410  1.0000
  N   N5        1.0  0.37489  0.21775  0.16090  1.0000
  N   N6        1.0  0.12511  0.78225  0.66090  1.0000
  N   N7        1.0  0.62511  0.78225  0.83910  1.0000
  N   N8        1.0  0.87489  0.21775  0.33910  1.0000
