data_image0
_chemical_formula_structural       Cd4H32C60N16O20
_chemical_formula_sum              "Cd4 H32 C60 N16 O20"
_cell_length_a       11.9553
_cell_length_b       12.9604
_cell_length_c       13.0429
_cell_angle_alpha    94.4551
_cell_angle_beta     111.854
_cell_angle_gamma    110.454

_space_group_name_H-M_alt    "P 1"
_space_group_IT_number       1

loop_
  _space_group_symop_operation_xyz
  'x, y, z'

loop_
  _atom_site_type_symbol
  _atom_site_label
  _atom_site_symmetry_multiplicity
  _atom_site_fract_x
  _atom_site_fract_y
  _atom_site_fract_z
  _atom_site_occupancy
  Cd  Cd1       1.0  0.52427  0.32233  0.32511  1.0000
  Cd  Cd2       1.0  0.47573  0.67767  0.67489  1.0000
  Cd  Cd3       1.0  0.85576  0.54650  0.52851  1.0000
  Cd  Cd4       1.0  0.14424  0.45350  0.47149  1.0000
  H   H1        1.0  0.73759  0.69575  0.90957  1.0000
  H   H2        1.0  0.26241  0.30425  0.09043  1.0000
  H   H3        1.0  0.44771  0.57907  0.29358  1.0000
  H   H4        1.0  0.55229  0.42093  0.70642  1.0000
  H   H5        1.0  0.74490  0.65461  0.16558  1.0000
  H   H6        1.0  0.25510  0.34539  0.83442  1.0000
  H   H7        1.0  0.36675  0.65569  0.96331  1.0000
  H   H8        1.0  0.63325  0.34431  0.03669  1.0000
  H   H9        1.0  0.94798  0.27340  0.65367  1.0000
  H   H10       1.0  0.05202  0.72660  0.34633  1.0000
  H   H11       1.0  0.80938  0.97100  0.76936  1.0000
  H   H12       1.0  0.19062  0.02900  0.23063  1.0000
  H   H13       1.0  0.54296  0.12434  0.60712  1.0000
  H   H14       1.0  0.45704  0.87566  0.39288  1.0000
  H   H15       1.0  0.26755  0.92798  0.86019  1.0000
  H   H16       1.0  0.73245  0.07203  0.13981  1.0000
  H   H17       1.0  0.20822  0.08981  0.89692  1.0000
  H   H18       1.0  0.79178  0.91019  0.10308  1.0000
  H   H19       1.0  0.87944  0.95970  0.56561  1.0000
  H   H20       1.0  0.12056  0.04030  0.43439  1.0000
  H   H21       1.0  0.93823  0.80026  0.52778  1.0000
  H   H22       1.0  0.06177  0.19974  0.47221  1.0000
  H   H23       1.0  0.95355  0.49445  0.76462  1.0000
  H   H24       1.0  0.04646  0.50555  0.23538  1.0000
  H   H25       1.0  0.39012  0.89787  0.70610  1.0000
  H   H26       1.0  0.60988  0.10213  0.29390  1.0000
  H   H27       1.0  0.00686  0.78956  0.98727  1.0000
  H   H28       1.0  0.99314  0.21045  0.01273  1.0000
  H   H29       1.0  0.14285  0.47886  0.91703  1.0000
  H   H30       1.0  0.85715  0.52115  0.08297  1.0000
  H   H31       1.0  0.19686  0.77251  0.13970  1.0000
  H   H32       1.0  0.80314  0.22749  0.86030  1.0000
  C   C1        1.0  0.56546  0.95195  0.71359  1.0000
  C   C2        1.0  0.43454  0.04805  0.28641  1.0000
  C   C3        1.0  0.14965  0.76414  0.67169  1.0000
  C   C4        1.0  0.85035  0.23586  0.32831  1.0000
  C   C5        1.0  0.60476  0.61363  0.23909  1.0000
  C   C6        1.0  0.39524  0.38637  0.76091  1.0000
  C   C7        1.0  0.47923  0.60102  0.22684  1.0000
  C   C8        1.0  0.52077  0.39898  0.77316  1.0000
  C   C9        1.0  0.64630  0.64351  0.15450  1.0000
  C   C10       1.0  0.35370  0.35649  0.84550  1.0000
  C   C11       1.0  0.69555  0.59218  0.34088  1.0000
  C   C12       1.0  0.30445  0.40782  0.65912  1.0000
  C   C13       1.0  0.59377  0.67248  0.95775  1.0000
  C   C14       1.0  0.40624  0.32752  0.04225  1.0000
  C   C15       1.0  0.55815  0.65502  0.05467  1.0000
  C   C16       1.0  0.44185  0.34498  0.94533  1.0000
  C   C17       1.0  0.43239  0.64463  0.04161  1.0000
  C   C18       1.0  0.56761  0.35537  0.95839  1.0000
  C   C19       1.0  0.71845  0.29949  0.56743  1.0000
  C   C20       1.0  0.28155  0.70051  0.43257  1.0000
  C   C21       1.0  0.86827  0.20743  0.66303  1.0000
  C   C22       1.0  0.13173  0.79257  0.33697  1.0000
  C   C23       1.0  0.89145  0.12162  0.71363  1.0000
  C   C24       1.0  0.10855  0.87838  0.28637  1.0000
  C   C25       1.0  0.79177  0.03746  0.72833  1.0000
  C   C26       1.0  0.20822  0.96254  0.27167  1.0000
  C   C27       1.0  0.66681  0.03986  0.69136  1.0000
  C   C28       1.0  0.33319  0.96014  0.30864  1.0000
  C   C29       1.0  0.64057  0.12350  0.63727  1.0000
  C   C30       1.0  0.35943  0.87650  0.36273  1.0000
  C   C31       1.0  0.74203  0.20748  0.62389  1.0000
  C   C32       1.0  0.25797  0.79252  0.37611  1.0000
  C   C33       1.0  0.85173  0.65135  0.77910  1.0000
  C   C34       1.0  0.14827  0.34865  0.22090  1.0000
  C   C35       1.0  0.39495  0.62016  0.12930  1.0000
  C   C36       1.0  0.60506  0.37984  0.87070  1.0000
  C   C37       1.0  0.18279  0.93543  0.79580  1.0000
  C   C38       1.0  0.81721  0.06457  0.20420  1.0000
  C   C39       1.0  0.15036  0.02527  0.81708  1.0000
  C   C40       1.0  0.84965  0.97473  0.18292  1.0000
  C   C41       1.0  0.96322  0.95163  0.63058  1.0000
  C   C42       1.0  0.03679  0.04837  0.36942  1.0000
  C   C43       1.0  0.99620  0.86167  0.60992  1.0000
  C   C44       1.0  0.00380  0.13833  0.39008  1.0000
  C   C45       1.0  0.10634  0.85280  0.69217  1.0000
  C   C46       1.0  0.89366  0.14720  0.30783  1.0000
  C   C47       1.0  0.96805  0.64409  0.86490  1.0000
  C   C48       1.0  0.03195  0.35591  0.13511  1.0000
  C   C49       1.0  0.18115  0.62609  0.03655  1.0000
  C   C50       1.0  0.81885  0.37391  0.96346  1.0000
  C   C51       1.0  0.00878  0.55792  0.84536  1.0000
  C   C52       1.0  0.99122  0.44209  0.15464  1.0000
  C   C53       1.0  0.04082  0.03331  0.73395  1.0000
  C   C54       1.0  0.95918  0.96669  0.26605  1.0000
  C   C55       1.0  0.03699  0.72194  0.97134  1.0000
  C   C56       1.0  0.96301  0.27807  0.02866  1.0000
  C   C57       1.0  0.11489  0.54846  0.93095  1.0000
  C   C58       1.0  0.88511  0.45154  0.06905  1.0000
  C   C59       1.0  0.14340  0.71331  0.05665  1.0000
  C   C60       1.0  0.85660  0.28669  0.94335  1.0000
  N   N1        1.0  0.27827  0.78441  0.70818  1.0000
  N   N2        1.0  0.72173  0.21559  0.29182  1.0000
  N   N3        1.0  0.28129  0.68556  0.67532  1.0000
  N   N4        1.0  0.71871  0.31444  0.32468  1.0000
  N   N5        1.0  0.16088  0.60676  0.62078  1.0000
  N   N6        1.0  0.83912  0.39324  0.37922  1.0000
  N   N7        1.0  0.07587  0.65367  0.61688  1.0000
  N   N8        1.0  0.92413  0.34633  0.38312  1.0000
  N   N9        1.0  0.80974  0.62705  0.66475  1.0000
  N   N10       1.0  0.19027  0.37295  0.33525  1.0000
  N   N11       1.0  0.69929  0.64467  0.61921  1.0000
  N   N12       1.0  0.30071  0.35533  0.38079  1.0000
  N   N13       1.0  0.67512  0.67842  0.70287  1.0000
  N   N14       1.0  0.32488  0.32158  0.29713  1.0000
  N   N15       1.0  0.76769  0.68407  0.80380  1.0000
  N   N16       1.0  0.23231  0.31593  0.19620  1.0000
  O   O1        1.0  0.58736  0.87349  0.75456  1.0000
  O   O2        1.0  0.41263  0.12651  0.24544  1.0000
  O   O3        1.0  0.81900  0.64827  0.37990  1.0000
  O   O4        1.0  0.18100  0.35173  0.62009  1.0000
  O   O5        1.0  0.64544  0.51550  0.38784  1.0000
  O   O6        1.0  0.35457  0.48450  0.61216  1.0000
  O   O7        1.0  0.71886  0.69600  0.98217  1.0000
  O   O8        1.0  0.28114  0.30400  0.01783  1.0000
  O   O9        1.0  0.50843  0.66283  0.86221  1.0000
  O   O10       1.0  0.49158  0.33717  0.13779  1.0000
  O   O11       1.0  0.82236  0.38904  0.59283  1.0000
  O   O12       1.0  0.17764  0.61096  0.40717  1.0000
  O   O13       1.0  0.60104  0.28070  0.49999  1.0000
  O   O14       1.0  0.39897  0.71930  0.50001  1.0000
  O   O15       1.0  0.27781  0.61451  0.12940  1.0000
  O   O16       1.0  0.72219  0.38549  0.87060  1.0000
  O   O17       1.0  0.01923  0.12851  0.75703  1.0000
  O   O18       1.0  0.98076  0.87149  0.24297  1.0000
  O   O19       1.0  0.45410  0.96458  0.68912  1.0000
  O   O20       1.0  0.54590  0.03542  0.31087  1.0000
