data_image0
_chemical_formula_structural       Cd2H20C20N2Cl4O6
_chemical_formula_sum              "Cd2 H20 C20 N2 Cl4 O6"
_cell_length_a       8.38494
_cell_length_b       8.51609
_cell_length_c       8.57539
_cell_angle_alpha    93.4722
_cell_angle_beta     100.173
_cell_angle_gamma    92.053

_space_group_name_H-M_alt    "P 1"
_space_group_IT_number       1

loop_
  _space_group_symop_operation_xyz
  'x, y, z'

loop_
  _atom_site_type_symbol
  _atom_site_label
  _atom_site_symmetry_multiplicity
  _atom_site_fract_x
  _atom_site_fract_y
  _atom_site_fract_z
  _atom_site_occupancy
  Cd  Cd1       1.0  0.50000  0.00000  0.00000  1.0000
  Cd  Cd2       1.0  0.00000  0.00000  1.00000  1.0000
  H   H1        1.0  0.35016  0.11827  0.51350  1.0000
  H   H2        1.0  0.64984  0.88173  0.48650  1.0000
  H   H3        1.0  0.37415  0.20235  0.71342  1.0000
  H   H4        1.0  0.62585  0.79765  0.28657  1.0000
  H   H5        1.0  0.11589  0.09991  0.35800  1.0000
  H   H6        1.0  0.88411  0.90009  0.64200  1.0000
  H   H7        1.0  0.70217  0.32116  0.49410  1.0000
  H   H8        1.0  0.29783  0.67884  0.50590  1.0000
  H   H9        1.0  0.52576  0.44276  0.78469  1.0000
  H   H10       1.0  0.47424  0.55724  0.21530  1.0000
  H   H11       1.0  0.18442  0.39051  0.77463  1.0000
  H   H12       1.0  0.81558  0.60950  0.22537  1.0000
  H   H13       1.0  0.33422  0.31634  0.29204  1.0000
  H   H14       1.0  0.66578  0.68366  0.70796  1.0000
  H   H15       1.0  0.89008  0.44395  0.74009  1.0000
  H   H16       1.0  0.10992  0.55605  0.25991  1.0000
  H   H17       1.0  0.30364  0.27351  0.01490  1.0000
  H   H18       1.0  0.69636  0.72649  0.98510  1.0000
  H   H19       1.0  0.49219  0.30173  0.07871  1.0000
  H   H20       1.0  0.50781  0.69827  0.92129  1.0000
  C   C1        1.0  0.78905  0.11608  0.26532  1.0000
  C   C2        1.0  0.21095  0.88392  0.73468  1.0000
  C   C3        1.0  0.33371  0.22347  0.58843  1.0000
  C   C4        1.0  0.66629  0.77653  0.41157  1.0000
  C   C5        1.0  0.89402  0.20224  0.40801  1.0000
  C   C6        1.0  0.10598  0.79776  0.59199  1.0000
  C   C7        1.0  0.05899  0.17645  0.43649  1.0000
  C   C8        1.0  0.94101  0.82354  0.56351  1.0000
  C   C9        1.0  0.42136  0.36623  0.54295  1.0000
  C   C10       1.0  0.57864  0.63377  0.45705  1.0000
  C   C11       1.0  0.83131  0.30115  0.51576  1.0000
  C   C12       1.0  0.16869  0.69884  0.48424  1.0000
  C   C13       1.0  0.51422  0.46952  0.66044  1.0000
  C   C14       1.0  0.48578  0.53049  0.33955  1.0000
  C   C15       1.0  0.09749  0.34189  0.67230  1.0000
  C   C16       1.0  0.90251  0.65811  0.32770  1.0000
  C   C17       1.0  0.40755  0.39701  0.38270  1.0000
  C   C18       1.0  0.59245  0.60299  0.61730  1.0000
  C   C19       1.0  0.93408  0.36964  0.65053  1.0000
  C   C20       1.0  0.06592  0.63037  0.34947  1.0000
  N   N1        1.0  0.15652  0.24742  0.56490  1.0000
  N   N2        1.0  0.84348  0.75258  0.43510  1.0000
  Cl  Cl1       1.0  0.70441  0.05936  0.81150  1.0000
  Cl  Cl2       1.0  0.29560  0.94064  0.18850  1.0000
  Cl  Cl3       1.0  0.93034  0.70817  0.93840  1.0000
  Cl  Cl4       1.0  0.06966  0.29183  0.06159  1.0000
  O   O1        1.0  0.84675  0.99530  0.20571  1.0000
  O   O2        1.0  0.15325  0.00470  0.79429  1.0000
  O   O3        1.0  0.64884  0.16561  0.21909  1.0000
  O   O4        1.0  0.35116  0.83439  0.78091  1.0000
  O   O5        1.0  0.41259  0.27077  0.98279  1.0000
  O   O6        1.0  0.58741  0.72924  0.01721  1.0000
