data_image0
_chemical_formula_structural       Ag4Mo8H24C32N8O26
_chemical_formula_sum              "Ag4 Mo8 H24 C32 N8 O26"
_cell_length_a       8.2202
_cell_length_b       12.2677
_cell_length_c       12.7404
_cell_angle_alpha    112.334
_cell_angle_beta     96.0066
_cell_angle_gamma    102.093

_space_group_name_H-M_alt    "P 1"
_space_group_IT_number       1

loop_
  _space_group_symop_operation_xyz
  'x, y, z'

loop_
  _atom_site_type_symbol
  _atom_site_label
  _atom_site_symmetry_multiplicity
  _atom_site_fract_x
  _atom_site_fract_y
  _atom_site_fract_z
  _atom_site_occupancy
  Ag  Ag1       1.0  0.27991  0.07870  0.53046  1.0000
  Ag  Ag2       1.0  0.72009  0.92130  0.46954  1.0000
  Ag  Ag3       1.0  0.15526  0.48818  0.07089  1.0000
  Ag  Ag4       1.0  0.84474  0.51182  0.92911  1.0000
  Mo  Mo1       1.0  0.42434  0.33065  0.22971  1.0000
  Mo  Mo2       1.0  0.57566  0.66935  0.77029  1.0000
  Mo  Mo3       1.0  0.56178  0.36315  0.48451  1.0000
  Mo  Mo4       1.0  0.43822  0.63685  0.51549  1.0000
  Mo  Mo5       1.0  0.83010  0.33268  0.24031  1.0000
  Mo  Mo6       1.0  0.16990  0.66731  0.75969  1.0000
  Mo  Mo7       1.0  0.16920  0.37268  0.48198  1.0000
  Mo  Mo8       1.0  0.83080  0.62732  0.51802  1.0000
  H   H1        1.0  0.00629  0.24483  0.02148  1.0000
  H   H2        1.0  0.99371  0.75517  0.97852  1.0000
  H   H3        1.0  0.86841  0.02105  0.94410  1.0000
  H   H4        1.0  0.13158  0.97896  0.05590  1.0000
  H   H5        1.0  0.91873  0.87842  0.75913  1.0000
  H   H6        1.0  0.08127  0.12159  0.24087  1.0000
  H   H7        1.0  0.10722  0.95700  0.64832  1.0000
  H   H8        1.0  0.89278  0.04300  0.35168  1.0000
  H   H9        1.0  0.41520  0.34563  0.70333  1.0000
  H   H10       1.0  0.58480  0.65437  0.29667  1.0000
  H   H11       1.0  0.35969  0.48893  0.88541  1.0000
  H   H12       1.0  0.64031  0.51107  0.11459  1.0000
  H   H13       1.0  0.45729  0.08487  0.35226  1.0000
  H   H14       1.0  0.54271  0.91513  0.64774  1.0000
  H   H15       1.0  0.57909  0.05813  0.17574  1.0000
  H   H16       1.0  0.42090  0.94187  0.82426  1.0000
  H   H17       1.0  0.51758  0.85234  0.01400  1.0000
  H   H18       1.0  0.48242  0.14766  0.98600  1.0000
  H   H19       1.0  0.33220  0.67065  0.02647  1.0000
  H   H20       1.0  0.66779  0.32935  0.97353  1.0000
  H   H21       1.0  0.05585  0.60945  0.30600  1.0000
  H   H22       1.0  0.94416  0.39055  0.69400  1.0000
  H   H23       1.0  0.11159  0.81629  0.46689  1.0000
  H   H24       1.0  0.88842  0.18371  0.53311  1.0000
  C   C1        1.0  0.13278  0.22826  0.87776  1.0000
  C   C2        1.0  0.86722  0.77174  0.12224  1.0000
  C   C3        1.0  0.02687  0.18138  0.93994  1.0000
  C   C4        1.0  0.97314  0.81863  0.06006  1.0000
  C   C5        1.0  0.95163  0.05734  0.89713  1.0000
  C   C6        1.0  0.04837  0.94267  0.10287  1.0000
  C   C7        1.0  0.98003  0.97595  0.79152  1.0000
  C   C8        1.0  0.01997  0.02405  0.20848  1.0000
  C   C9        1.0  0.08382  0.01903  0.72951  1.0000
  C   C10       1.0  0.91618  0.98097  0.27049  1.0000
  C   C11       1.0  0.16225  0.14563  0.77058  1.0000
  C   C12       1.0  0.83775  0.85437  0.22942  1.0000
  C   C13       1.0  0.33443  0.30981  0.75187  1.0000
  C   C14       1.0  0.66557  0.69019  0.24813  1.0000
  C   C15       1.0  0.30447  0.39089  0.85619  1.0000
  C   C16       1.0  0.69553  0.60911  0.14381  1.0000
  C   C17       1.0  0.32811  0.89310  0.29019  1.0000
  C   C18       1.0  0.67189  0.10690  0.70981  1.0000
  C   C19       1.0  0.43147  0.99504  0.28077  1.0000
  C   C20       1.0  0.56853  0.00496  0.71923  1.0000
  C   C21       1.0  0.49813  0.97967  0.18271  1.0000
  C   C22       1.0  0.50187  0.02033  0.81728  1.0000
  C   C23       1.0  0.46369  0.86248  0.09062  1.0000
  C   C24       1.0  0.53631  0.13752  0.90938  1.0000
  C   C25       1.0  0.36286  0.76145  0.09763  1.0000
  C   C26       1.0  0.63714  0.23855  0.90237  1.0000
  C   C27       1.0  0.29356  0.77408  0.19701  1.0000
  C   C28       1.0  0.70644  0.22592  0.80299  1.0000
  C   C29       1.0  0.13231  0.68970  0.29938  1.0000
  C   C30       1.0  0.86770  0.31030  0.70062  1.0000
  C   C31       1.0  0.16592  0.80669  0.39069  1.0000
  C   C32       1.0  0.83408  0.19331  0.60931  1.0000
  N   N1        1.0  0.26280  0.19018  0.70875  1.0000
  N   N2        1.0  0.73721  0.80982  0.29125  1.0000
  N   N3        1.0  0.20372  0.35174  0.91689  1.0000
  N   N4        1.0  0.79628  0.64826  0.08311  1.0000
  N   N5        1.0  0.19362  0.67387  0.20416  1.0000
  N   N6        1.0  0.80638  0.32613  0.79584  1.0000
  N   N7        1.0  0.25911  0.90669  0.38637  1.0000
  N   N8        1.0  0.74089  0.09331  0.61363  1.0000
  O   O1        1.0  0.33299  0.31760  0.36117  1.0000
  O   O2        1.0  0.66701  0.68240  0.63883  1.0000
  O   O3        1.0  0.33649  0.43688  0.20466  1.0000
  O   O4        1.0  0.66350  0.56312  0.79534  1.0000
  O   O5        1.0  0.14810  0.23796  0.50080  1.0000
  O   O6        1.0  0.85190  0.76204  0.49920  1.0000
  O   O7        1.0  0.76004  0.46589  0.56412  1.0000
  O   O8        1.0  0.23996  0.53411  0.43588  1.0000
  O   O9        1.0  0.88316  0.52889  0.39372  1.0000
  O   O10       1.0  0.11684  0.47111  0.60628  1.0000
  O   O11       1.0  0.78562  0.18173  0.14651  1.0000
  O   O12       1.0  0.21438  0.81827  0.85349  1.0000
  O   O13       1.0  0.96955  0.40638  0.18060  1.0000
  O   O14       1.0  0.03045  0.59362  0.81940  1.0000
  O   O15       1.0  0.53390  0.24274  0.52607  1.0000
  O   O16       1.0  0.46610  0.75726  0.47393  1.0000
  O   O17       1.0  0.63344  0.37340  0.18245  1.0000
  O   O18       1.0  0.36656  0.62660  0.81755  1.0000
  O   O19       1.0  0.98025  0.32434  0.36465  1.0000
  O   O20       1.0  0.01975  0.67566  0.63535  1.0000
  O   O21       1.0  0.41857  0.45555  0.56895  1.0000
  O   O22       1.0  0.58143  0.54445  0.43105  1.0000
  O   O23       1.0  0.32064  0.19085  0.12010  1.0000
  O   O24       1.0  0.67937  0.80915  0.87990  1.0000
  O   O25       1.0  0.62170  0.30106  0.33729  1.0000
  O   O26       1.0  0.37830  0.69894  0.66271  1.0000
