data_image0
_chemical_formula_structural       Cu4Mo8H36C48N12O26
_chemical_formula_sum              "Cu4 Mo8 H36 C48 N12 O26"
_cell_length_a       8.28984
_cell_length_b       13.4587
_cell_length_c       15.0271
_cell_angle_alpha    70.9548
_cell_angle_beta     84.0997
_cell_angle_gamma    73.9116

_space_group_name_H-M_alt    "P 1"
_space_group_IT_number       1

loop_
  _space_group_symop_operation_xyz
  'x, y, z'

loop_
  _atom_site_type_symbol
  _atom_site_label
  _atom_site_symmetry_multiplicity
  _atom_site_fract_x
  _atom_site_fract_y
  _atom_site_fract_z
  _atom_site_occupancy
  Cu  Cu1       1.0  0.05486  0.75280  0.15012  1.0000
  Cu  Cu2       1.0  0.94514  0.24720  0.84988  1.0000
  Cu  Cu3       1.0  0.77828  0.30495  0.45953  1.0000
  Cu  Cu4       1.0  0.22172  0.69505  0.54047  1.0000
  Mo  Mo1       1.0  0.02375  0.04639  0.59079  1.0000
  Mo  Mo2       1.0  0.97625  0.95361  0.40921  1.0000
  Mo  Mo3       1.0  0.41263  0.06279  0.58571  1.0000
  Mo  Mo4       1.0  0.58737  0.93721  0.41429  1.0000
  Mo  Mo5       1.0  0.44284  0.80596  0.64241  1.0000
  Mo  Mo6       1.0  0.55715  0.19404  0.35759  1.0000
  Mo  Mo7       1.0  0.16618  0.18665  0.37198  1.0000
  Mo  Mo8       1.0  0.83382  0.81334  0.62802  1.0000
  H   H1        1.0  0.55836  0.53504  0.77392  1.0000
  H   H2        1.0  0.44165  0.46496  0.22608  1.0000
  H   H3        1.0  0.47868  0.36702  0.87443  1.0000
  H   H4        1.0  0.52133  0.63298  0.12557  1.0000
  H   H5        1.0  0.50972  0.21071  0.81570  1.0000
  H   H6        1.0  0.49028  0.78930  0.18430  1.0000
  H   H7        1.0  0.60688  0.21965  0.65122  1.0000
  H   H8        1.0  0.39312  0.78035  0.34877  1.0000
  H   H9        1.0  0.74961  0.47797  0.33555  1.0000
  H   H10       1.0  0.25039  0.52203  0.66445  1.0000
  H   H11       1.0  0.88299  0.57739  0.19260  1.0000
  H   H12       1.0  0.11700  0.42261  0.80740  1.0000
  H   H13       1.0  0.00652  0.76592  0.33382  1.0000
  H   H14       1.0  0.99349  0.23408  0.66618  1.0000
  H   H15       1.0  0.88419  0.67195  0.48228  1.0000
  H   H16       1.0  0.11581  0.32805  0.51772  1.0000
  H   H17       1.0  0.13289  0.96075  0.16945  1.0000
  H   H18       1.0  0.86711  0.03925  0.83055  1.0000
  H   H19       1.0  0.22362  0.13217  0.11419  1.0000
  H   H20       1.0  0.77639  0.86784  0.88581  1.0000
  H   H21       1.0  0.33162  0.19830  0.95148  1.0000
  H   H22       1.0  0.66838  0.80170  0.04851  1.0000
  H   H23       1.0  0.36130  0.09023  0.83919  1.0000
  H   H24       1.0  0.63870  0.90977  0.16081  1.0000
  H   H25       1.0  0.12026  0.79249  0.80065  1.0000
  H   H26       1.0  0.87973  0.20751  0.19935  1.0000
  H   H27       1.0  0.10942  0.62370  0.77200  1.0000
  H   H28       1.0  0.89058  0.37630  0.22800  1.0000
  H   H29       1.0  0.23108  0.43852  0.04864  1.0000
  H   H30       1.0  0.76892  0.56148  0.95137  1.0000
  H   H31       1.0  0.25318  0.60010  0.08826  1.0000
  H   H32       1.0  0.74682  0.39991  0.91174  1.0000
  H   H33       1.0  0.69431  0.61974  0.59039  1.0000
  H   H34       1.0  0.30569  0.38026  0.40961  1.0000
  H   H35       1.0  0.32056  0.88070  0.83888  1.0000
  H   H36       1.0  0.67944  0.11930  0.16112  1.0000
  C   C1        1.0  0.63187  0.46864  0.65721  1.0000
  C   C2        1.0  0.36814  0.53136  0.34279  1.0000
  C   C3        1.0  0.57182  0.46625  0.74820  1.0000
  C   C4        1.0  0.42818  0.53374  0.25180  1.0000
  C   C5        1.0  0.52817  0.37188  0.80349  1.0000
  C   C6        1.0  0.47184  0.62812  0.19651  1.0000
  C   C7        1.0  0.54292  0.28348  0.76941  1.0000
  C   C8        1.0  0.45708  0.71652  0.23059  1.0000
  C   C9        1.0  0.59798  0.28689  0.67818  1.0000
  C   C10       1.0  0.40201  0.71311  0.32182  1.0000
  C   C11       1.0  0.64241  0.38143  0.62159  1.0000
  C   C12       1.0  0.35759  0.61857  0.37841  1.0000
  C   C13       1.0  0.73269  0.50689  0.51032  1.0000
  C   C14       1.0  0.26731  0.49311  0.48968  1.0000
  C   C15       1.0  0.80607  0.56446  0.42323  1.0000
  C   C16       1.0  0.19393  0.43554  0.57677  1.0000
  C   C17       1.0  0.80837  0.53943  0.33932  1.0000
  C   C18       1.0  0.19163  0.46057  0.66068  1.0000
  C   C19       1.0  0.88208  0.59548  0.25850  1.0000
  C   C20       1.0  0.11792  0.40452  0.74150  1.0000
  C   C21       1.0  0.94955  0.70105  0.33729  1.0000
  C   C22       1.0  0.05045  0.29895  0.66271  1.0000
  C   C23       1.0  0.87933  0.64772  0.42053  1.0000
  C   C24       1.0  0.12067  0.35228  0.57947  1.0000
  C   C25       1.0  0.20018  0.92841  0.03574  1.0000
  C   C26       1.0  0.79982  0.07160  0.96426  1.0000
  C   C27       1.0  0.18369  0.98804  0.09847  1.0000
  C   C28       1.0  0.81631  0.01196  0.90153  1.0000
  C   C29       1.0  0.23342  0.08456  0.06649  1.0000
  C   C30       1.0  0.76658  0.91544  0.93351  1.0000
  C   C31       1.0  0.29556  0.12165  0.97388  1.0000
  C   C32       1.0  0.70444  0.87835  0.02612  1.0000
  C   C33       1.0  0.31284  0.06306  0.91062  1.0000
  C   C34       1.0  0.68715  0.93694  0.08938  1.0000
  C   C35       1.0  0.26500  0.96536  0.94342  1.0000
  C   C36       1.0  0.73499  0.03464  0.05658  1.0000
  C   C37       1.0  0.20560  0.80721  0.96577  1.0000
  C   C38       1.0  0.79440  0.19279  0.03423  1.0000
  C   C39       1.0  0.19129  0.71021  0.94673  1.0000
  C   C40       1.0  0.80871  0.28980  0.05327  1.0000
  C   C41       1.0  0.15009  0.71540  0.85703  1.0000
  C   C42       1.0  0.84991  0.28460  0.14297  1.0000
  C   C43       1.0  0.14199  0.62016  0.84172  1.0000
  C   C44       1.0  0.85801  0.37984  0.15829  1.0000
  C   C45       1.0  0.20857  0.51828  0.99478  1.0000
  C   C46       1.0  0.79143  0.48173  0.00522  1.0000
  C   C47       1.0  0.21956  0.60871  0.01735  1.0000
  C   C48       1.0  0.78044  0.39129  0.98265  1.0000
  N   N1        1.0  0.69055  0.54512  0.58575  1.0000
  N   N2        1.0  0.30946  0.45488  0.41425  1.0000
  N   N3        1.0  0.70456  0.40811  0.52971  1.0000
  N   N4        1.0  0.29544  0.59189  0.47029  1.0000
  N   N5        1.0  0.95276  0.67585  0.25674  1.0000
  N   N6        1.0  0.04724  0.32415  0.74326  1.0000
  N   N7        1.0  0.16313  0.82997  0.04721  1.0000
  N   N8        1.0  0.83687  0.17002  0.95279  1.0000
  N   N9        1.0  0.26613  0.88709  0.90211  1.0000
  N   N10       1.0  0.73387  0.11291  0.09789  1.0000
  N   N11       1.0  0.17157  0.52235  0.90835  1.0000
  N   N12       1.0  0.82843  0.47765  0.09165  1.0000
  O   O1        1.0  0.51047  0.16513  0.52206  1.0000
  O   O2        1.0  0.48952  0.83487  0.47794  1.0000
  O   O3        1.0  0.28043  0.94113  0.59511  1.0000
  O   O4        1.0  0.71957  0.05887  0.40489  1.0000
  O   O5        1.0  0.98959  0.28984  0.38212  1.0000
  O   O6        1.0  0.01041  0.71016  0.61788  1.0000
  O   O7        1.0  0.02543  0.01599  0.71036  1.0000
  O   O8        1.0  0.97456  0.98401  0.28964  1.0000
  O   O9        1.0  0.34130  0.70923  0.63930  1.0000
  O   O10       1.0  0.65870  0.29077  0.36070  1.0000
  O   O11       1.0  0.43991  0.79875  0.75903  1.0000
  O   O12       1.0  0.56009  0.20125  0.24097  1.0000
  O   O13       1.0  0.40071  0.06385  0.69929  1.0000
  O   O14       1.0  0.59929  0.93615  0.30071  1.0000
  O   O15       1.0  0.85270  0.15980  0.55736  1.0000
  O   O16       1.0  0.14730  0.84020  0.44264  1.0000
  O   O17       1.0  0.18478  0.13958  0.54020  1.0000
  O   O18       1.0  0.81522  0.86042  0.45980  1.0000
  O   O19       1.0  0.93665  0.93700  0.57126  1.0000
  O   O20       1.0  0.06335  0.06299  0.42874  1.0000
  O   O21       1.0  0.17265  0.18795  0.25814  1.0000
  O   O22       1.0  0.82735  0.81205  0.74186  1.0000
  O   O23       1.0  0.58798  0.93405  0.58665  1.0000
  O   O24       1.0  0.41202  0.06595  0.41335  1.0000
  O   O25       1.0  0.67651  0.72875  0.63191  1.0000
  O   O26       1.0  0.32349  0.27125  0.36809  1.0000
