data_image0
_chemical_formula_structural       Cd2H16C12S4N20
_chemical_formula_sum              "Cd2 H16 C12 S4 N20"
_cell_length_a       5.86498
_cell_length_b       9.13183
_cell_length_c       12.7676
_cell_angle_alpha    103.201
_cell_angle_beta     90.0002
_cell_angle_gamma    89.9985

_space_group_name_H-M_alt    "P 1"
_space_group_IT_number       1

loop_
  _space_group_symop_operation_xyz
  'x, y, z'

loop_
  _atom_site_type_symbol
  _atom_site_label
  _atom_site_symmetry_multiplicity
  _atom_site_fract_x
  _atom_site_fract_y
  _atom_site_fract_z
  _atom_site_occupancy
  Cd  Cd1       1.0  0.50003  0.50000  0.49999  1.0000
  Cd  Cd2       1.0  0.00004  0.99999  0.00000  1.0000
  H   H1        1.0  0.46523  0.10691  0.75424  1.0000
  H   H2        1.0  0.96519  0.39313  0.74579  1.0000
  H   H3        1.0  0.53477  0.89312  0.24578  1.0000
  H   H4        1.0  0.03479  0.60687  0.25422  1.0000
  H   H5        1.0  0.84864  0.15135  0.48290  1.0000
  H   H6        1.0  0.34865  0.34865  0.01710  1.0000
  H   H7        1.0  0.15134  0.84864  0.51709  1.0000
  H   H8        1.0  0.65133  0.65135  0.98290  1.0000
  H   H9        1.0  0.92872  0.02397  0.71390  1.0000
  H   H10       1.0  0.42871  0.47602  0.78611  1.0000
  H   H11       1.0  0.07125  0.97604  0.28610  1.0000
  H   H12       1.0  0.57128  0.52397  0.21390  1.0000
  H   H13       1.0  0.77738  0.88504  0.64013  1.0000
  H   H14       1.0  0.27736  0.61498  0.85988  1.0000
  H   H15       1.0  0.22261  0.11498  0.35988  1.0000
  H   H16       1.0  0.72262  0.38503  0.14012  1.0000
  C   C1        1.0  0.52008  0.14849  0.68530  1.0000
  C   C2        1.0  0.02007  0.35153  0.81472  1.0000
  C   C3        1.0  0.47990  0.85150  0.31471  1.0000
  C   C4        1.0  0.97993  0.64848  0.18528  1.0000
  C   C5        1.0  0.71854  0.17199  0.54531  1.0000
  C   C6        1.0  0.21855  0.32801  0.95468  1.0000
  C   C7        1.0  0.28144  0.82800  0.45467  1.0000
  C   C8        1.0  0.78146  0.67199  0.04532  1.0000
  C   C9        1.0  0.00499  0.41187  0.36713  1.0000
  C   C10       1.0  0.50501  0.08811  0.13286  1.0000
  C   C11       1.0  0.99503  0.58812  0.63287  1.0000
  C   C12       1.0  0.49502  0.91189  0.86715  1.0000
  S   S1        1.0  0.25787  0.36061  0.31890  1.0000
  S   S2        1.0  0.75784  0.13940  0.18111  1.0000
  S   S3        1.0  0.74219  0.63940  0.68110  1.0000
  S   S4        1.0  0.24219  0.86060  0.81889  1.0000
  N   N1        1.0  0.86227  0.98323  0.63823  1.0000
  N   N2        1.0  0.36226  0.51679  0.86178  1.0000
  N   N3        1.0  0.13772  0.01679  0.36177  1.0000
  N   N4        1.0  0.63773  0.48322  0.13823  1.0000
  N   N5        1.0  0.81956  0.44860  0.39820  1.0000
  N   N6        1.0  0.31952  0.05138  0.10182  1.0000
  N   N7        1.0  0.18049  0.55140  0.60183  1.0000
  N   N8        1.0  0.68048  0.94860  0.89817  1.0000
  N   N9        1.0  0.42675  0.25868  0.64940  1.0000
  N   N10       1.0  0.92673  0.24135  0.85062  1.0000
  N   N11       1.0  0.57325  0.74133  0.35060  1.0000
  N   N12       1.0  0.07326  0.75865  0.14938  1.0000
  N   N13       1.0  0.55312  0.27323  0.56049  1.0000
  N   N14       1.0  0.05312  0.22677  0.93951  1.0000
  N   N15       1.0  0.44687  0.72676  0.43950  1.0000
  N   N16       1.0  0.94687  0.77322  0.06048  1.0000
  N   N17       1.0  0.70288  0.09082  0.62240  1.0000
  N   N18       1.0  0.20289  0.40919  0.87761  1.0000
  N   N19       1.0  0.29710  0.90918  0.37760  1.0000
  N   N20       1.0  0.79712  0.59081  0.12240  1.0000
