data_image0
_chemical_formula_structural       Cd4H16C8I4N20
_chemical_formula_sum              "Cd4 H16 C8 I4 N20"
_cell_length_a       7.17388
_cell_length_b       9.74579
_cell_length_c       10.9004
_cell_angle_alpha    89.999
_cell_angle_beta     109.866
_cell_angle_gamma    89.9985

_space_group_name_H-M_alt    "P 1"
_space_group_IT_number       1

loop_
  _space_group_symop_operation_xyz
  'x, y, z'

loop_
  _atom_site_type_symbol
  _atom_site_label
  _atom_site_symmetry_multiplicity
  _atom_site_fract_x
  _atom_site_fract_y
  _atom_site_fract_z
  _atom_site_occupancy
  Cd  Cd1       1.0  0.28728  0.07843  0.85895  1.0000
  Cd  Cd2       1.0  0.71274  0.57845  0.64105  1.0000
  Cd  Cd3       1.0  0.71273  0.92156  0.14105  1.0000
  Cd  Cd4       1.0  0.28728  0.42156  0.35896  1.0000
  H   H1        1.0  0.09548  0.31656  0.94406  1.0000
  H   H2        1.0  0.90452  0.81656  0.55593  1.0000
  H   H3        1.0  0.90453  0.68344  0.05594  1.0000
  H   H4        1.0  0.09548  0.18345  0.44406  1.0000
  H   H5        1.0  0.05062  0.35608  0.08153  1.0000
  H   H6        1.0  0.94938  0.85609  0.41846  1.0000
  H   H7        1.0  0.94937  0.64392  0.91846  1.0000
  H   H8        1.0  0.05062  0.14392  0.58154  1.0000
  H   H9        1.0  0.70494  0.03399  0.42106  1.0000
  H   H10       1.0  0.29502  0.53396  0.07893  1.0000
  H   H11       1.0  0.29503  0.96603  0.57894  1.0000
  H   H12       1.0  0.70497  0.46603  0.92107  1.0000
  H   H13       1.0  0.59594  0.16972  0.47184  1.0000
  H   H14       1.0  0.40408  0.66974  0.02816  1.0000
  H   H15       1.0  0.40407  0.83027  0.52816  1.0000
  H   H16       1.0  0.59593  0.33026  0.97185  1.0000
  C   C1        1.0  0.30614  0.25405  0.11127  1.0000
  C   C2        1.0  0.69388  0.75406  0.38874  1.0000
  C   C3        1.0  0.69388  0.74594  0.88872  1.0000
  C   C4        1.0  0.30612  0.24596  0.61126  1.0000
  C   C5        1.0  0.52429  0.15813  0.27540  1.0000
  C   C6        1.0  0.47573  0.65813  0.22461  1.0000
  C   C7        1.0  0.47573  0.84187  0.72462  1.0000
  C   C8        1.0  0.52427  0.34187  0.77541  1.0000
  I   I1        1.0  0.88278  0.07581  0.76484  1.0000
  I   I2        1.0  0.11722  0.57581  0.73516  1.0000
  I   I3        1.0  0.11721  0.92419  0.23516  1.0000
  I   I4        1.0  0.88278  0.42418  0.26484  1.0000
  N   N1        1.0  0.39749  0.16164  0.06145  1.0000
  N   N2        1.0  0.60250  0.66163  0.43854  1.0000
  N   N3        1.0  0.60248  0.83837  0.93853  1.0000
  N   N4        1.0  0.39749  0.33836  0.56145  1.0000
  N   N5        1.0  0.53986  0.09894  0.16840  1.0000
  N   N6        1.0  0.46012  0.59893  0.33160  1.0000
  N   N7        1.0  0.46012  0.90108  0.83161  1.0000
  N   N8        1.0  0.53986  0.40106  0.66839  1.0000
  N   N9        1.0  0.15870  0.34250  0.04022  1.0000
  N   N10       1.0  0.84132  0.84251  0.45977  1.0000
  N   N11       1.0  0.84132  0.65749  0.95977  1.0000
  N   N12       1.0  0.15869  0.15749  0.54023  1.0000
  N   N13       1.0  0.38210  0.25785  0.24341  1.0000
  N   N14       1.0  0.61794  0.75787  0.25662  1.0000
  N   N15       1.0  0.61794  0.74213  0.75661  1.0000
  N   N16       1.0  0.38209  0.24213  0.74339  1.0000
  N   N17       1.0  0.63777  0.12808  0.39986  1.0000
  N   N18       1.0  0.36221  0.62808  0.10013  1.0000
  N   N19       1.0  0.36223  0.87192  0.60014  1.0000
  N   N20       1.0  0.63779  0.37192  0.89987  1.0000
