data_image0
_chemical_formula_structural       Sm2H40C48Cl6O20
_chemical_formula_sum              "Sm2 H40 C48 Cl6 O20"
_cell_length_a       7.87391
_cell_length_b       12.5108
_cell_length_c       13.8553
_cell_angle_alpha    80.2772
_cell_angle_beta     79.2917
_cell_angle_gamma    75.4894

_space_group_name_H-M_alt    "P 1"
_space_group_IT_number       1

loop_
  _space_group_symop_operation_xyz
  'x, y, z'

loop_
  _atom_site_type_symbol
  _atom_site_label
  _atom_site_symmetry_multiplicity
  _atom_site_fract_x
  _atom_site_fract_y
  _atom_site_fract_z
  _atom_site_occupancy
  Sm  Sm1       1.0  0.27898  0.97658  0.46332  1.0000
  Sm  Sm2       1.0  0.72101  0.02342  0.53667  1.0000
  H   H1        1.0  0.03706  0.89447  0.35296  1.0000
  H   H2        1.0  0.96294  0.10553  0.64704  1.0000
  H   H3        1.0  0.22241  0.80711  0.33717  1.0000
  H   H4        1.0  0.77759  0.19289  0.66283  1.0000
  H   H5        1.0  0.22472  0.78609  0.69176  1.0000
  H   H6        1.0  0.77528  0.21391  0.30823  1.0000
  H   H7        1.0  0.09993  0.88353  0.77351  1.0000
  H   H8        1.0  0.90006  0.11647  0.22649  1.0000
  H   H9        1.0  0.86385  0.59013  0.90099  1.0000
  H   H10       1.0  0.13612  0.40988  0.09901  1.0000
  H   H11       1.0  0.84051  0.41519  0.84449  1.0000
  H   H12       1.0  0.15947  0.58483  0.15551  1.0000
  H   H13       1.0  0.14141  0.50328  0.56158  1.0000
  H   H14       1.0  0.85861  0.49671  0.43843  1.0000
  H   H15       1.0  0.16543  0.67515  0.61595  1.0000
  H   H16       1.0  0.83458  0.32484  0.38405  1.0000
  H   H17       1.0  0.79484  0.81959  0.20692  1.0000
  H   H18       1.0  0.20516  0.18041  0.79308  1.0000
  H   H19       1.0  0.69678  0.96095  0.16443  1.0000
  H   H20       1.0  0.30322  0.03905  0.83557  1.0000
  H   H21       1.0  0.92077  0.82311  0.05373  1.0000
  H   H22       1.0  0.07922  0.17690  0.94627  1.0000
  H   H23       1.0  0.16318  0.76849  0.91913  1.0000
  H   H24       1.0  0.83680  0.23151  0.08087  1.0000
  H   H25       1.0  0.50462  0.91504  0.04018  1.0000
  H   H26       1.0  0.49538  0.08494  0.95982  1.0000
  H   H27       1.0  0.25985  0.97061  0.17719  1.0000
  H   H28       1.0  0.74016  0.02939  0.82281  1.0000
  H   H29       1.0  0.79750  0.70560  0.50773  1.0000
  H   H30       1.0  0.20250  0.29439  0.49227  1.0000
  H   H31       1.0  0.73017  0.69978  0.63714  1.0000
  H   H32       1.0  0.26983  0.30022  0.36286  1.0000
  H   H33       1.0  0.58409  0.39976  0.56331  1.0000
  H   H34       1.0  0.41594  0.60023  0.43670  1.0000
  H   H35       1.0  0.43520  0.29123  0.70570  1.0000
  H   H36       1.0  0.56482  0.70876  0.29431  1.0000
  H   H37       1.0  0.37875  0.55236  0.88478  1.0000
  H   H38       1.0  0.62126  0.44764  0.11522  1.0000
  H   H39       1.0  0.52733  0.66005  0.74471  1.0000
  H   H40       1.0  0.47267  0.33995  0.25529  1.0000
  C   C1        1.0  0.96444  0.87358  0.65794  1.0000
  C   C2        1.0  0.03556  0.12642  0.34206  1.0000
  C   C3        1.0  0.09191  0.81864  0.73115  1.0000
  C   C4        1.0  0.90809  0.18136  0.26885  1.0000
  C   C5        1.0  0.01603  0.64308  0.76310  1.0000
  C   C6        1.0  0.98396  0.35692  0.23690  1.0000
  C   C7        1.0  0.92442  0.56998  0.82697  1.0000
  C   C8        1.0  0.07557  0.43003  0.17303  1.0000
  C   C9        1.0  0.91148  0.47276  0.79557  1.0000
  C   C10       1.0  0.08850  0.52725  0.20443  1.0000
  C   C11       1.0  0.99051  0.45004  0.70020  1.0000
  C   C12       1.0  0.00949  0.54996  0.29980  1.0000
  C   C13       1.0  0.07934  0.52289  0.63549  1.0000
  C   C14       1.0  0.92067  0.47710  0.36451  1.0000
  C   C15       1.0  0.09186  0.62041  0.66680  1.0000
  C   C16       1.0  0.90815  0.37959  0.33320  1.0000
  C   C17       1.0  0.69188  0.92343  0.32207  1.0000
  C   C18       1.0  0.30813  0.07657  0.67793  1.0000
  C   C19       1.0  0.78169  0.90710  0.21664  1.0000
  C   C20       1.0  0.21831  0.09290  0.78336  1.0000
  C   C21       1.0  0.07531  0.90071  0.12397  1.0000
  C   C22       1.0  0.92469  0.09929  0.87603  1.0000
  C   C23       1.0  0.04779  0.84368  0.05189  1.0000
  C   C24       1.0  0.95220  0.15632  0.94812  1.0000
  C   C25       1.0  0.18525  0.81328  0.97488  1.0000
  C   C26       1.0  0.81475  0.18671  0.02513  1.0000
  C   C27       1.0  0.34737  0.84113  0.97015  1.0000
  C   C28       1.0  0.65262  0.15886  0.02986  1.0000
  C   C29       1.0  0.37580  0.89645  0.04335  1.0000
  C   C30       1.0  0.62421  0.10354  0.95665  1.0000
  C   C31       1.0  0.23990  0.92679  0.12001  1.0000
  C   C32       1.0  0.76010  0.07321  0.87999  1.0000
  C   C33       1.0  0.53004  0.78912  0.54693  1.0000
  C   C34       1.0  0.46997  0.21088  0.45307  1.0000
  C   C35       1.0  0.68724  0.69428  0.56734  1.0000
  C   C36       1.0  0.31276  0.30572  0.43266  1.0000
  C   C37       1.0  0.56825  0.53627  0.64439  1.0000
  C   C38       1.0  0.43175  0.46372  0.35560  1.0000
  C   C39       1.0  0.54091  0.43248  0.63412  1.0000
  C   C40       1.0  0.45910  0.56752  0.36588  1.0000
  C   C41       1.0  0.45701  0.37168  0.71402  1.0000
  C   C42       1.0  0.54301  0.62831  0.28598  1.0000
  C   C43       1.0  0.39997  0.41494  0.80433  1.0000
  C   C44       1.0  0.60005  0.58506  0.19567  1.0000
  C   C45       1.0  0.42457  0.51861  0.81455  1.0000
  C   C46       1.0  0.57544  0.48138  0.18545  1.0000
  C   C47       1.0  0.50829  0.57981  0.73435  1.0000
  C   C48       1.0  0.49171  0.42019  0.26565  1.0000
  Cl  Cl1       1.0  0.29499  0.33993  0.90481  1.0000
  Cl  Cl2       1.0  0.70502  0.66007  0.09519  1.0000
  Cl  Cl3       1.0  0.51632  0.81142  0.87150  1.0000
  Cl  Cl4       1.0  0.48368  0.18857  0.12850  1.0000
  Cl  Cl5       1.0  0.98118  0.32728  0.66034  1.0000
  Cl  Cl6       1.0  0.01882  0.67272  0.33966  1.0000
  O   O1        1.0  0.79965  0.88364  0.68304  1.0000
  O   O2        1.0  0.20034  0.11637  0.31696  1.0000
  O   O3        1.0  0.16138  0.87473  0.36604  1.0000
  O   O4        1.0  0.83862  0.12527  0.63396  1.0000
  O   O5        1.0  0.78489  0.93927  0.38247  1.0000
  O   O6        1.0  0.21511  0.06073  0.61753  1.0000
  O   O7        1.0  0.02749  0.91476  0.57078  1.0000
  O   O8        1.0  0.97250  0.08524  0.42922  1.0000
  O   O9        1.0  0.02761  0.73533  0.80117  1.0000
  O   O10       1.0  0.97239  0.26468  0.19883  1.0000
  O   O11       1.0  0.53043  0.91839  0.34077  1.0000
  O   O12       1.0  0.46956  0.08161  0.65923  1.0000
  O   O13       1.0  0.95013  0.93454  0.20249  1.0000
  O   O14       1.0  0.04987  0.06546  0.79752  1.0000
  O   O15       1.0  0.39574  0.77327  0.51904  1.0000
  O   O16       1.0  0.60427  0.22673  0.48094  1.0000
  O   O17       1.0  0.54135  0.88830  0.55486  1.0000
  O   O18       1.0  0.45866  0.11169  0.44513  1.0000
  O   O19       1.0  0.65855  0.58780  0.56259  1.0000
  O   O20       1.0  0.34146  0.41219  0.43741  1.0000
