data_image0
_chemical_formula_structural       Cd3H16C8N16Cl6
_chemical_formula_sum              "Cd3 H16 C8 N16 Cl6"
_cell_length_a       9.11563
_cell_length_b       9.41847
_cell_length_c       9.02251
_cell_angle_alpha    71.4809
_cell_angle_beta     72.0014
_cell_angle_gamma    60.9425

_space_group_name_H-M_alt    "P 1"
_space_group_IT_number       1

loop_
  _space_group_symop_operation_xyz
  'x, y, z'

loop_
  _atom_site_type_symbol
  _atom_site_label
  _atom_site_symmetry_multiplicity
  _atom_site_fract_x
  _atom_site_fract_y
  _atom_site_fract_z
  _atom_site_occupancy
  Cd  Cd1       1.0  0.00001  1.00000  0.00000  1.0000
  Cd  Cd2       1.0  0.87886  0.37247  0.64696  1.0000
  Cd  Cd3       1.0  0.12116  0.62753  0.35302  1.0000
  H   H1        1.0  0.84370  0.28796  0.27138  1.0000
  H   H2        1.0  0.15629  0.71205  0.72861  1.0000
  H   H3        1.0  0.59475  0.65423  0.90317  1.0000
  H   H4        1.0  0.40529  0.34577  0.09679  1.0000
  H   H5        1.0  0.27081  0.15144  0.07449  1.0000
  H   H6        1.0  0.72918  0.84858  0.92556  1.0000
  H   H7        1.0  0.29479  0.81478  0.51626  1.0000
  H   H8        1.0  0.70524  0.18516  0.48375  1.0000
  H   H9        1.0  0.37927  0.03437  0.48047  1.0000
  H   H10       1.0  0.62040  0.96578  0.51970  1.0000
  H   H11       1.0  0.29418  0.20640  0.35665  1.0000
  H   H12       1.0  0.70592  0.79361  0.64324  1.0000
  H   H13       1.0  0.72550  0.63151  0.24381  1.0000
  H   H14       1.0  0.27450  0.36850  0.75617  1.0000
  H   H15       1.0  0.55065  0.60136  0.30680  1.0000
  H   H16       1.0  0.44935  0.39864  0.69318  1.0000
  C   C1        1.0  0.79716  0.34539  0.16056  1.0000
  C   C2        1.0  0.20284  0.65461  0.83942  1.0000
  C   C3        1.0  0.67219  0.53549  0.96963  1.0000
  C   C4        1.0  0.32784  0.46452  0.03034  1.0000
  C   C5        1.0  0.25320  0.05474  0.17201  1.0000
  C   C6        1.0  0.74680  0.94527  0.82803  1.0000
  C   C7        1.0  0.26085  0.88331  0.40075  1.0000
  C   C8        1.0  0.73916  0.11665  0.59926  1.0000
  N   N1        1.0  0.83233  0.27308  0.04280  1.0000
  N   N2        1.0  0.16768  0.72692  0.95719  1.0000
  N   N3        1.0  0.75349  0.39280  0.92188  1.0000
  N   N4        1.0  0.24654  0.60720  0.07810  1.0000
  N   N5        1.0  0.19047  0.85053  0.31528  1.0000
  N   N6        1.0  0.80957  0.14944  0.68470  1.0000
  N   N7        1.0  0.18368  0.95946  0.17187  1.0000
  N   N8        1.0  0.81635  0.04053  0.82814  1.0000
  N   N9        1.0  0.69812  0.51118  0.11790  1.0000
  N   N10       1.0  0.30189  0.48882  0.88208  1.0000
  N   N11       1.0  0.30076  0.01128  0.31479  1.0000
  N   N12       1.0  0.69923  0.98871  0.68526  1.0000
  N   N13       1.0  0.37828  0.08279  0.36124  1.0000
  N   N14       1.0  0.62169  0.91717  0.63887  1.0000
  N   N15       1.0  0.62763  0.63569  0.20605  1.0000
  N   N16       1.0  0.37237  0.36431  0.79393  1.0000
  Cl  Cl1       1.0  0.01497  0.40530  0.34239  1.0000
  Cl  Cl2       1.0  0.98505  0.59470  0.65758  1.0000
  Cl  Cl3       1.0  0.58409  0.60103  0.59409  1.0000
  Cl  Cl4       1.0  0.41592  0.39894  0.40589  1.0000
  Cl  Cl5       1.0  0.16191  0.13244  0.74451  1.0000
  Cl  Cl6       1.0  0.83812  0.86755  0.25548  1.0000
