data_image0
_chemical_formula_structural       Cd4H28C28N4O24
_chemical_formula_sum              "Cd4 H28 C28 N4 O24"
_cell_length_a       7.86204
_cell_length_b       8.11038
_cell_length_c       15.9182
_cell_angle_alpha    90
_cell_angle_beta     89.9999
_cell_angle_gamma    114.905

_space_group_name_H-M_alt    "P 1"
_space_group_IT_number       1

loop_
  _space_group_symop_operation_xyz
  'x, y, z'

loop_
  _atom_site_type_symbol
  _atom_site_label
  _atom_site_symmetry_multiplicity
  _atom_site_fract_x
  _atom_site_fract_y
  _atom_site_fract_z
  _atom_site_occupancy
  Cd  Cd1       1.0  0.84367  0.07990  0.44351  1.0000
  Cd  Cd2       1.0  0.15634  0.42010  0.94351  1.0000
  Cd  Cd3       1.0  0.15634  0.92010  0.55649  1.0000
  Cd  Cd4       1.0  0.84366  0.57990  0.05649  1.0000
  H   H1        1.0  0.34396  0.84832  0.30826  1.0000
  H   H2        1.0  0.65605  0.65168  0.80826  1.0000
  H   H3        1.0  0.65604  0.15169  0.69174  1.0000
  H   H4        1.0  0.34396  0.34831  0.19174  1.0000
  H   H5        1.0  0.47673  0.61766  0.31482  1.0000
  H   H6        1.0  0.52327  0.88234  0.81482  1.0000
  H   H7        1.0  0.52327  0.38235  0.68518  1.0000
  H   H8        1.0  0.47673  0.11766  0.18518  1.0000
  H   H9        1.0  0.28064  0.31100  0.37641  1.0000
  H   H10       1.0  0.71936  0.18900  0.87641  1.0000
  H   H11       1.0  0.71936  0.68900  0.62359  1.0000
  H   H12       1.0  0.28064  0.81100  0.12359  1.0000
  H   H13       1.0  0.78592  0.93191  0.29271  1.0000
  H   H14       1.0  0.21408  0.56809  0.79271  1.0000
  H   H15       1.0  0.21408  0.06809  0.70729  1.0000
  H   H16       1.0  0.78592  0.43191  0.20729  1.0000
  H   H17       1.0  0.78983  0.12245  0.27060  1.0000
  H   H18       1.0  0.21017  0.37756  0.77060  1.0000
  H   H19       1.0  0.21017  0.87756  0.72940  1.0000
  H   H20       1.0  0.78983  0.62244  0.22940  1.0000
  H   H21       1.0  0.65315  0.70082  0.46596  1.0000
  H   H22       1.0  0.34684  0.79918  0.96596  1.0000
  H   H23       1.0  0.34684  0.29918  0.53403  1.0000
  H   H24       1.0  0.65315  0.20081  0.03404  1.0000
  H   H25       1.0  0.51145  0.77391  0.50939  1.0000
  H   H26       1.0  0.48855  0.72609  0.00939  1.0000
  H   H27       1.0  0.48855  0.22609  0.49061  1.0000
  H   H28       1.0  0.51145  0.27391  0.99061  1.0000
  C   C1        1.0  0.97535  0.48902  0.39307  1.0000
  C   C2        1.0  0.02465  0.01098  0.89307  1.0000
  C   C3        1.0  0.02465  0.51098  0.60692  1.0000
  C   C4        1.0  0.97535  0.98902  0.10693  1.0000
  C   C5        1.0  0.07575  0.66428  0.36064  1.0000
  C   C6        1.0  0.92426  0.83572  0.86064  1.0000
  C   C7        1.0  0.92425  0.33572  0.63936  1.0000
  C   C8        1.0  0.07575  0.16428  0.13936  1.0000
  C   C9        1.0  0.25891  0.71198  0.33192  1.0000
  C   C10       1.0  0.74109  0.78802  0.83192  1.0000
  C   C11       1.0  0.74109  0.28802  0.66808  1.0000
  C   C12       1.0  0.25891  0.21198  0.16808  1.0000
  C   C13       1.0  0.33430  0.58480  0.33579  1.0000
  C   C14       1.0  0.66571  0.91521  0.83579  1.0000
  C   C15       1.0  0.66571  0.41521  0.66421  1.0000
  C   C16       1.0  0.33430  0.08479  0.16421  1.0000
  C   C17       1.0  0.22609  0.41355  0.36950  1.0000
  C   C18       1.0  0.77391  0.08644  0.86950  1.0000
  C   C19       1.0  0.77391  0.58645  0.63050  1.0000
  C   C20       1.0  0.22609  0.91355  0.13050  1.0000
  C   C21       1.0  0.77675  0.42935  0.42515  1.0000
  C   C22       1.0  0.22324  0.07065  0.92515  1.0000
  C   C23       1.0  0.22325  0.57065  0.57485  1.0000
  C   C24       1.0  0.77675  0.92935  0.07485  1.0000
  C   C25       1.0  0.99329  0.80151  0.35639  1.0000
  C   C26       1.0  0.00671  0.69849  0.85639  1.0000
  C   C27       1.0  0.00671  0.19849  0.64361  1.0000
  C   C28       1.0  0.99329  0.30151  0.14361  1.0000
  N   N1        1.0  0.05167  0.36852  0.39771  1.0000
  N   N2        1.0  0.94833  0.13148  0.89771  1.0000
  N   N3        1.0  0.94833  0.63148  0.60229  1.0000
  N   N4        1.0  0.05167  0.86851  0.10229  1.0000
  O   O1        1.0  0.69702  0.27072  0.45880  1.0000
  O   O2        1.0  0.30298  0.22928  0.95880  1.0000
  O   O3        1.0  0.30298  0.72928  0.54120  1.0000
  O   O4        1.0  0.69702  0.77072  0.04120  1.0000
  O   O5        1.0  0.70205  0.53758  0.41709  1.0000
  O   O6        1.0  0.29796  0.96242  0.91709  1.0000
  O   O7        1.0  0.29795  0.46242  0.58291  1.0000
  O   O8        1.0  0.70205  0.03758  0.08291  1.0000
  O   O9        1.0  0.91094  0.81032  0.28950  1.0000
  O   O10       1.0  0.08906  0.68968  0.78950  1.0000
  O   O11       1.0  0.08905  0.18968  0.71050  1.0000
  O   O12       1.0  0.91094  0.31032  0.21050  1.0000
  O   O13       1.0  0.02546  0.91105  0.41857  1.0000
  O   O14       1.0  0.97454  0.58895  0.91857  1.0000
  O   O15       1.0  0.97454  0.08895  0.58143  1.0000
  O   O16       1.0  0.02546  0.41105  0.08143  1.0000
  O   O17       1.0  0.72172  0.01252  0.30595  1.0000
  O   O18       1.0  0.27828  0.48748  0.80595  1.0000
  O   O19       1.0  0.27827  0.98748  0.69405  1.0000
  O   O20       1.0  0.72172  0.51252  0.19405  1.0000
  O   O21       1.0  0.64570  0.80724  0.49324  1.0000
  O   O22       1.0  0.35430  0.69276  0.99324  1.0000
  O   O23       1.0  0.35430  0.19276  0.50676  1.0000
  O   O24       1.0  0.64570  0.30724  0.00676  1.0000
