data_image0
_chemical_formula_structural       Zn4H24C16N12Cl4
_chemical_formula_sum              "Zn4 H24 C16 N12 Cl4"
_cell_length_a       7.55323
_cell_length_b       9.23095
_cell_length_c       9.85202
_cell_angle_alpha    90.0006
_cell_angle_beta     100.353
_cell_angle_gamma    90.0007

_space_group_name_H-M_alt    "P 1"
_space_group_IT_number       1

loop_
  _space_group_symop_operation_xyz
  'x, y, z'

loop_
  _atom_site_type_symbol
  _atom_site_label
  _atom_site_symmetry_multiplicity
  _atom_site_fract_x
  _atom_site_fract_y
  _atom_site_fract_z
  _atom_site_occupancy
  Zn  Zn1       1.0  0.69308  0.94396  0.63946  1.0000
  Zn  Zn2       1.0  0.30692  0.44395  0.86054  1.0000
  Zn  Zn3       1.0  0.30692  0.05605  0.36054  1.0000
  Zn  Zn4       1.0  0.69307  0.55606  0.13946  1.0000
  H   H1        1.0  0.94725  0.74402  0.05427  1.0000
  H   H2        1.0  0.05274  0.24402  0.44576  1.0000
  H   H3        1.0  0.05275  0.25595  0.94571  1.0000
  H   H4        1.0  0.94726  0.75600  0.55428  1.0000
  H   H5        1.0  0.85074  0.91912  0.02652  1.0000
  H   H6        1.0  0.14926  0.41910  0.47350  1.0000
  H   H7        1.0  0.14930  0.08087  0.97347  1.0000
  H   H8        1.0  0.85073  0.58088  0.52654  1.0000
  H   H9        1.0  0.97161  0.84536  0.90351  1.0000
  H   H10       1.0  0.02841  0.34535  0.59650  1.0000
  H   H11       1.0  0.02840  0.15461  0.09646  1.0000
  H   H12       1.0  0.97163  0.65464  0.40351  1.0000
  H   H13       1.0  0.29734  0.81214  0.58873  1.0000
  H   H14       1.0  0.70267  0.31213  0.91126  1.0000
  H   H15       1.0  0.70263  0.18789  0.41127  1.0000
  H   H16       1.0  0.29734  0.68784  0.08873  1.0000
  H   H17       1.0  0.39165  0.65255  0.53026  1.0000
  H   H18       1.0  0.60836  0.15256  0.96973  1.0000
  H   H19       1.0  0.60833  0.34747  0.46971  1.0000
  H   H20       1.0  0.39168  0.84745  0.03026  1.0000
  H   H21       1.0  0.22363  0.64013  0.63634  1.0000
  H   H22       1.0  0.77636  0.14014  0.86365  1.0000
  H   H23       1.0  0.77634  0.35988  0.36364  1.0000
  H   H24       1.0  0.22361  0.85987  0.13634  1.0000
  C   C1        1.0  0.71481  0.75142  0.89852  1.0000
  C   C2        1.0  0.28518  0.25142  0.60147  1.0000
  C   C3        1.0  0.28517  0.24857  0.10145  1.0000
  C   C4        1.0  0.71479  0.74858  0.39852  1.0000
  C   C5        1.0  0.48093  0.70057  0.74457  1.0000
  C   C6        1.0  0.51909  0.20057  0.75545  1.0000
  C   C7        1.0  0.51907  0.29944  0.25544  1.0000
  C   C8        1.0  0.48095  0.79942  0.24459  1.0000
  C   C9        1.0  0.88062  0.81882  0.97493  1.0000
  C   C10       1.0  0.11936  0.31882  0.52508  1.0000
  C   C11       1.0  0.11937  0.18115  0.02504  1.0000
  C   C12       1.0  0.88060  0.68120  0.47493  1.0000
  C   C13       1.0  0.34128  0.70128  0.61778  1.0000
  C   C14       1.0  0.65873  0.20128  0.88223  1.0000
  C   C15       1.0  0.65872  0.29874  0.38222  1.0000
  C   C16       1.0  0.34133  0.79872  0.11782  1.0000
  N   N1        1.0  0.62567  0.79079  0.77116  1.0000
  N   N2        1.0  0.37434  0.29077  0.72884  1.0000
  N   N3        1.0  0.37433  0.20922  0.22882  1.0000
  N   N4        1.0  0.62568  0.70919  0.27117  1.0000
  N   N5        1.0  0.62904  0.64235  0.94801  1.0000
  N   N6        1.0  0.37095  0.14235  0.55200  1.0000
  N   N7        1.0  0.37095  0.35764  0.05199  1.0000
  N   N8        1.0  0.62902  0.85765  0.44801  1.0000
  N   N9        1.0  0.48035  0.60985  0.85004  1.0000
  N   N10       1.0  0.51966  0.10985  0.64997  1.0000
  N   N11       1.0  0.51964  0.39016  0.14996  1.0000
  N   N12       1.0  0.48035  0.89016  0.35005  1.0000
  Cl  Cl1       1.0  0.97885  0.01338  0.69161  1.0000
  Cl  Cl2       1.0  0.02115  0.51339  0.80839  1.0000
  Cl  Cl3       1.0  0.02115  0.98664  0.30838  1.0000
  Cl  Cl4       1.0  0.97885  0.48663  0.19162  1.0000
