data_image0
_chemical_formula_structural       Zn8H24C24N36Cl4
_chemical_formula_sum              "Zn8 H24 C24 N36 Cl4"
_cell_length_a       7.50756
_cell_length_b       9.93724
_cell_length_c       17.5439
_cell_angle_alpha    90
_cell_angle_beta     90.0001
_cell_angle_gamma    90

_space_group_name_H-M_alt    "P 1"
_space_group_IT_number       1

loop_
  _space_group_symop_operation_xyz
  'x, y, z'

loop_
  _atom_site_type_symbol
  _atom_site_label
  _atom_site_symmetry_multiplicity
  _atom_site_fract_x
  _atom_site_fract_y
  _atom_site_fract_z
  _atom_site_occupancy
  Zn  Zn1       1.0  0.52796  0.25000  0.26631  1.0000
  Zn  Zn2       1.0  0.97204  0.75000  0.76631  1.0000
  Zn  Zn3       1.0  0.47204  0.75000  0.73369  1.0000
  Zn  Zn4       1.0  0.02796  0.25000  0.23369  1.0000
  Zn  Zn5       1.0  0.38937  0.75000  0.07753  1.0000
  Zn  Zn6       1.0  0.11063  0.25000  0.57753  1.0000
  Zn  Zn7       1.0  0.61063  0.25000  0.92247  1.0000
  Zn  Zn8       1.0  0.88937  0.75000  0.42247  1.0000
  H   H1        1.0  0.44775  0.25000  0.08099  1.0000
  H   H2        1.0  0.05225  0.75000  0.58099  1.0000
  H   H3        1.0  0.55225  0.75000  0.91901  1.0000
  H   H4        1.0  0.94775  0.25000  0.41901  1.0000
  H   H5        1.0  0.04346  0.96605  0.11787  1.0000
  H   H6        1.0  0.45654  0.03395  0.61787  1.0000
  H   H7        1.0  0.95654  0.46605  0.88213  1.0000
  H   H8        1.0  0.54346  0.53395  0.38213  1.0000
  H   H9        1.0  0.95654  0.03395  0.88213  1.0000
  H   H10       1.0  0.54346  0.96605  0.38213  1.0000
  H   H11       1.0  0.04346  0.53395  0.11787  1.0000
  H   H12       1.0  0.45654  0.46605  0.61787  1.0000
  H   H13       1.0  0.99612  0.25000  0.03213  1.0000
  H   H14       1.0  0.50388  0.75000  0.53213  1.0000
  H   H15       1.0  0.00388  0.75000  0.96787  1.0000
  H   H16       1.0  0.49612  0.25000  0.46787  1.0000
  H   H17       1.0  0.58029  0.95034  0.18527  1.0000
  H   H18       1.0  0.91971  0.04966  0.68527  1.0000
  H   H19       1.0  0.41971  0.45034  0.81473  1.0000
  H   H20       1.0  0.08029  0.54966  0.31473  1.0000
  H   H21       1.0  0.41971  0.04966  0.81473  1.0000
  H   H22       1.0  0.08029  0.95034  0.31473  1.0000
  H   H23       1.0  0.58029  0.54966  0.18527  1.0000
  H   H24       1.0  0.91971  0.45034  0.68527  1.0000
  C   C1        1.0  0.59132  0.25000  0.08812  1.0000
  C   C2        1.0  0.90868  0.75000  0.58812  1.0000
  C   C3        1.0  0.40868  0.75000  0.91188  1.0000
  C   C4        1.0  0.09132  0.25000  0.41188  1.0000
  C   C5        1.0  0.17071  0.98991  0.14413  1.0000
  C   C6        1.0  0.32928  0.01009  0.64413  1.0000
  C   C7        1.0  0.82929  0.48991  0.85587  1.0000
  C   C8        1.0  0.67071  0.51009  0.35587  1.0000
  C   C9        1.0  0.82929  0.01009  0.85587  1.0000
  C   C10       1.0  0.67071  0.98991  0.35587  1.0000
  C   C11       1.0  0.17071  0.51009  0.14413  1.0000
  C   C12       1.0  0.32928  0.48991  0.64413  1.0000
  C   C13       1.0  0.86950  0.25000  0.06240  1.0000
  C   C14       1.0  0.63050  0.75000  0.56240  1.0000
  C   C15       1.0  0.13050  0.75000  0.93761  1.0000
  C   C16       1.0  0.36950  0.25000  0.43760  1.0000
  C   C17       1.0  0.44248  0.98163  0.17968  1.0000
  C   C18       1.0  0.05752  0.01837  0.67968  1.0000
  C   C19       1.0  0.55752  0.48163  0.82032  1.0000
  C   C20       1.0  0.94248  0.51837  0.32032  1.0000
  C   C21       1.0  0.55752  0.01837  0.82032  1.0000
  C   C22       1.0  0.94248  0.98163  0.32032  1.0000
  C   C23       1.0  0.44248  0.51837  0.17968  1.0000
  C   C24       1.0  0.05752  0.48163  0.67968  1.0000
  N   N1        1.0  0.37256  0.09034  0.21198  1.0000
  N   N2        1.0  0.12744  0.90966  0.71198  1.0000
  N   N3        1.0  0.62744  0.59034  0.78802  1.0000
  N   N4        1.0  0.87256  0.40966  0.28802  1.0000
  N   N5        1.0  0.62744  0.90966  0.78802  1.0000
  N   N6        1.0  0.87256  0.09034  0.28802  1.0000
  N   N7        1.0  0.37256  0.40966  0.21198  1.0000
  N   N8        1.0  0.12743  0.59034  0.71198  1.0000
  N   N9        1.0  0.32113  0.91523  0.13655  1.0000
  N   N10       1.0  0.17887  0.08477  0.63655  1.0000
  N   N11       1.0  0.67887  0.41523  0.86345  1.0000
  N   N12       1.0  0.82113  0.58477  0.36345  1.0000
  N   N13       1.0  0.67887  0.08477  0.86345  1.0000
  N   N14       1.0  0.82113  0.91523  0.36345  1.0000
  N   N15       1.0  0.32113  0.58477  0.13655  1.0000
  N   N16       1.0  0.17887  0.41523  0.63655  1.0000
  N   N17       1.0  0.67581  0.25000  0.15452  1.0000
  N   N18       1.0  0.82419  0.75000  0.65452  1.0000
  N   N19       1.0  0.32419  0.75000  0.84548  1.0000
  N   N20       1.0  0.17581  0.25000  0.34548  1.0000
  N   N21       1.0  0.85407  0.25000  0.13809  1.0000
  N   N22       1.0  0.64593  0.75000  0.63809  1.0000
  N   N23       1.0  0.14593  0.75000  0.86191  1.0000
  N   N24       1.0  0.35407  0.25000  0.36191  1.0000
  N   N25       1.0  0.19844  0.09597  0.18907  1.0000
  N   N26       1.0  0.30156  0.90403  0.68907  1.0000
  N   N27       1.0  0.80156  0.59596  0.81093  1.0000
  N   N28       1.0  0.69844  0.40403  0.31093  1.0000
  N   N29       1.0  0.80156  0.90403  0.81093  1.0000
  N   N30       1.0  0.69844  0.09597  0.31093  1.0000
  N   N31       1.0  0.19844  0.40403  0.18907  1.0000
  N   N32       1.0  0.30156  0.59597  0.68907  1.0000
  N   N33       1.0  0.70656  0.25000  0.02857  1.0000
  N   N34       1.0  0.79344  0.75000  0.52857  1.0000
  N   N35       1.0  0.29344  0.75000  0.97143  1.0000
  N   N36       1.0  0.20656  0.25000  0.47143  1.0000
  Cl  Cl1       1.0  0.69284  0.75000  0.07153  1.0000
  Cl  Cl2       1.0  0.80716  0.25000  0.57153  1.0000
  Cl  Cl3       1.0  0.30716  0.25000  0.92847  1.0000
  Cl  Cl4       1.0  0.19284  0.75000  0.42847  1.0000
