data_image0
_chemical_formula_structural       Zn2H28C32N8O8
_chemical_formula_sum              "Zn2 H28 C32 N8 O8"
_cell_length_a       8.87843
_cell_length_b       9.58611
_cell_length_c       10.8894
_cell_angle_alpha    67.5593
_cell_angle_beta     65.4106
_cell_angle_gamma    77.1159

_space_group_name_H-M_alt    "P 1"
_space_group_IT_number       1

loop_
  _space_group_symop_operation_xyz
  'x, y, z'

loop_
  _atom_site_type_symbol
  _atom_site_label
  _atom_site_symmetry_multiplicity
  _atom_site_fract_x
  _atom_site_fract_y
  _atom_site_fract_z
  _atom_site_occupancy
  Zn  Zn1       1.0  0.36732  0.30603  0.44415  1.0000
  Zn  Zn2       1.0  0.63268  0.69397  0.55585  1.0000
  H   H1        1.0  0.23757  0.34647  0.18922  1.0000
  H   H2        1.0  0.76243  0.65353  0.81078  1.0000
  H   H3        1.0  0.46315  0.66345  0.22735  1.0000
  H   H4        1.0  0.53685  0.33655  0.77265  1.0000
  H   H5        1.0  0.39141  0.79048  0.97811  1.0000
  H   H6        1.0  0.60859  0.20952  0.02189  1.0000
  H   H7        1.0  0.21402  0.47773  0.95360  1.0000
  H   H8        1.0  0.78599  0.52227  0.04640  1.0000
  H   H9        1.0  0.32420  0.63972  0.83971  1.0000
  H   H10       1.0  0.67580  0.36027  0.16029  1.0000
  H   H11       1.0  0.10419  0.74316  0.74212  1.0000
  H   H12       1.0  0.89581  0.25684  0.25788  1.0000
  H   H13       1.0  0.65974  0.95028  0.99199  1.0000
  H   H14       1.0  0.34026  0.04973  0.00801  1.0000
  H   H15       1.0  0.73453  0.81634  0.20674  1.0000
  H   H16       1.0  0.26547  0.18366  0.79326  1.0000
  H   H17       1.0  0.99611  0.65372  0.18841  1.0000
  H   H18       1.0  0.00389  0.34628  0.81159  1.0000
  H   H19       1.0  0.86969  0.87588  0.65109  1.0000
  H   H20       1.0  0.13031  0.12412  0.34891  1.0000
  H   H21       1.0  0.70243  0.97815  0.74894  1.0000
  H   H22       1.0  0.29757  0.02185  0.25106  1.0000
  H   H23       1.0  0.15298  0.01681  0.67736  1.0000
  H   H24       1.0  0.84702  0.98319  0.32264  1.0000
  H   H25       1.0  0.99222  0.42693  0.41831  1.0000
  H   H26       1.0  0.00778  0.57307  0.58169  1.0000
  H   H27       1.0  0.74623  0.22688  0.54811  1.0000
  H   H28       1.0  0.25377  0.77312  0.45189  1.0000
  C   C1        1.0  0.51025  0.00653  0.42289  1.0000
  C   C2        1.0  0.48975  0.99348  0.57711  1.0000
  C   C3        1.0  0.58880  0.48113  0.44895  1.0000
  C   C4        1.0  0.41120  0.51887  0.55105  1.0000
  C   C5        1.0  0.28837  0.44880  0.16988  1.0000
  C   C6        1.0  0.71163  0.55120  0.83012  1.0000
  C   C7        1.0  0.40310  0.61660  0.18469  1.0000
  C   C8        1.0  0.59690  0.38340  0.81531  1.0000
  C   C9        1.0  0.36929  0.68138  0.06146  1.0000
  C   C10       1.0  0.63071  0.31862  0.93854  1.0000
  C   C11       1.0  0.23080  0.59150  0.94572  1.0000
  C   C12       1.0  0.76920  0.40849  0.05428  1.0000
  C   C13       1.0  0.06910  0.68962  0.96283  1.0000
  C   C14       1.0  0.93090  0.31038  0.03717  1.0000
  C   C15       1.0  0.02321  0.76140  0.84340  1.0000
  C   C16       1.0  0.97679  0.23860  0.15660  1.0000
  C   C17       1.0  0.87695  0.85669  0.85280  1.0000
  C   C18       1.0  0.12305  0.14330  0.14720  1.0000
  C   C19       1.0  0.77373  0.87591  0.98436  1.0000
  C   C20       1.0  0.22627  0.12409  0.01564  1.0000
  C   C21       1.0  0.81613  0.80159  0.10459  1.0000
  C   C22       1.0  0.18387  0.19841  0.89541  1.0000
  C   C23       1.0  0.96407  0.70960  0.09355  1.0000
  C   C24       1.0  0.03593  0.29040  0.90644  1.0000
  C   C25       1.0  0.83568  0.94400  0.72147  1.0000
  C   C26       1.0  0.16431  0.05600  0.27853  1.0000
  C   C27       1.0  0.07936  0.10172  0.62203  1.0000
  C   C28       1.0  0.92064  0.89828  0.37797  1.0000
  C   C29       1.0  0.99196  0.31147  0.48972  1.0000
  C   C30       1.0  0.00804  0.68854  0.51028  1.0000
  C   C31       1.0  0.86696  0.21491  0.55496  1.0000
  C   C32       1.0  0.13304  0.78509  0.44504  1.0000
  N   N1        1.0  0.35167  0.47113  0.25171  1.0000
  N   N2        1.0  0.64833  0.52887  0.74829  1.0000
  N   N3        1.0  0.29686  0.57293  0.05368  1.0000
  N   N4        1.0  0.70314  0.42706  0.94632  1.0000
  N   N5        1.0  0.92420  0.08309  0.63851  1.0000
  N   N6        1.0  0.07580  0.91691  0.36149  1.0000
  N   N7        1.0  0.12412  0.23912  0.53174  1.0000
  N   N8        1.0  0.87588  0.76088  0.46826  1.0000
  O   O1        1.0  0.56416  0.88820  0.38763  1.0000
  O   O2        1.0  0.43584  0.11180  0.61237  1.0000
  O   O3        1.0  0.47173  0.13467  0.34404  1.0000
  O   O4        1.0  0.52827  0.86533  0.65596  1.0000
  O   O5        1.0  0.60351  0.38397  0.39110  1.0000
  O   O6        1.0  0.39649  0.61603  0.60890  1.0000
  O   O7        1.0  0.70622  0.54918  0.43225  1.0000
  O   O8        1.0  0.29378  0.45082  0.56776  1.0000
