data_image0
_chemical_formula_structural       CdH20C20N4Cl2O10
_chemical_formula_sum              "Cd1 H20 C20 N4 Cl2 O10"
_cell_length_a       7.6216
_cell_length_b       8.64489
_cell_length_c       10.1093
_cell_angle_alpha    107.721
_cell_angle_beta     92.7781
_cell_angle_gamma    106.516

_space_group_name_H-M_alt    "P 1"
_space_group_IT_number       1

loop_
  _space_group_symop_operation_xyz
  'x, y, z'

loop_
  _atom_site_type_symbol
  _atom_site_label
  _atom_site_symmetry_multiplicity
  _atom_site_fract_x
  _atom_site_fract_y
  _atom_site_fract_z
  _atom_site_occupancy
  Cd  Cd1       1.0  1.00000  1.00000  1.00000  1.0000
  H   H1        1.0  0.90010  0.94983  0.68470  1.0000
  H   H2        1.0  0.09990  0.05017  0.31530  1.0000
  H   H3        1.0  0.68803  0.75527  0.46887  1.0000
  H   H4        1.0  0.31196  0.24472  0.53113  1.0000
  H   H5        1.0  0.48278  0.40995  0.70138  1.0000
  H   H6        1.0  0.51721  0.59005  0.29862  1.0000
  H   H7        1.0  0.69843  0.62160  0.90710  1.0000
  H   H8        1.0  0.30156  0.37840  0.09290  1.0000
  H   H9        1.0  0.28862  0.86444  0.02917  1.0000
  H   H10       1.0  0.71138  0.13556  0.97083  1.0000
  H   H11       1.0  0.13636  0.77793  0.11262  1.0000
  H   H12       1.0  0.86365  0.22208  0.88738  1.0000
  H   H13       1.0  0.87606  0.49658  0.10739  1.0000
  H   H14       1.0  0.12395  0.50342  0.89261  1.0000
  H   H15       1.0  0.80528  0.34682  0.27809  1.0000
  H   H16       1.0  0.19473  0.65318  0.72191  1.0000
  H   H17       1.0  0.24512  0.76568  0.57570  1.0000
  H   H18       1.0  0.75488  0.23432  0.42430  1.0000
  H   H19       1.0  0.30129  0.89259  0.38959  1.0000
  H   H20       1.0  0.69871  0.10741  0.61041  1.0000
  C   C1        1.0  0.80298  0.82918  0.68352  1.0000
  C   C2        1.0  0.19701  0.17081  0.31648  1.0000
  C   C3        1.0  0.68409  0.71792  0.56246  1.0000
  C   C4        1.0  0.31590  0.28208  0.43754  1.0000
  C   C5        1.0  0.56317  0.56198  0.56374  1.0000
  C   C6        1.0  0.43682  0.43802  0.43626  1.0000
  C   C7        1.0  0.56957  0.52820  0.69102  1.0000
  C   C8        1.0  0.43043  0.47180  0.30898  1.0000
  C   C9        1.0  0.69253  0.64626  0.80777  1.0000
  C   C10       1.0  0.30747  0.35373  0.19223  1.0000
  C   C11       1.0  0.95492  0.55303  0.21282  1.0000
  C   C12       1.0  0.04509  0.44697  0.78718  1.0000
  C   C13       1.0  0.91505  0.46919  0.31064  1.0000
  C   C14       1.0  0.08496  0.53081  0.68936  1.0000
  C   C15       1.0  0.01805  0.54219  0.44604  1.0000
  C   C16       1.0  0.98196  0.45782  0.55396  1.0000
  C   C17       1.0  0.15822  0.69905  0.47403  1.0000
  C   C18       1.0  0.84178  0.30095  0.52597  1.0000
  C   C19       1.0  0.18991  0.77301  0.36961  1.0000
  C   C20       1.0  0.81009  0.22700  0.63039  1.0000
  N   N1        1.0  0.80802  0.79484  0.80460  1.0000
  N   N2        1.0  0.19197  0.20516  0.19540  1.0000
  N   N3        1.0  0.09069  0.70208  0.24048  1.0000
  N   N4        1.0  0.90932  0.29793  0.75952  1.0000
  Cl  Cl1       1.0  0.37589  0.11941  0.81392  1.0000
  Cl  Cl2       1.0  0.62411  0.88058  0.18608  1.0000
  O   O1        1.0  0.15537  0.81656  0.02582  1.0000
  O   O2        1.0  0.84463  0.18344  0.97418  1.0000
  O   O3        1.0  0.18734  0.11759  0.84492  1.0000
  O   O4        1.0  0.81266  0.88241  0.15508  1.0000
  O   O5        1.0  0.41924  0.97799  0.84373  1.0000
  O   O6        1.0  0.58076  0.02201  0.15627  1.0000
  O   O7        1.0  0.50753  0.28190  0.90078  1.0000
  O   O8        1.0  0.49247  0.71810  0.09922  1.0000
  O   O9        1.0  0.37803  0.09885  0.66552  1.0000
  O   O10       1.0  0.62197  0.90114  0.33449  1.0000
