data_image0
_chemical_formula_structural       Cd4H36C36S8N12
_chemical_formula_sum              "Cd4 H36 C36 S8 N12"
_cell_length_a       5.76286
_cell_length_b       13.03
_cell_length_c       15.9038
_cell_angle_alpha    92.3795
_cell_angle_beta     89.9991
_cell_angle_gamma    90.0025

_space_group_name_H-M_alt    "P 1"
_space_group_IT_number       1

loop_
  _space_group_symop_operation_xyz
  'x, y, z'

loop_
  _atom_site_type_symbol
  _atom_site_label
  _atom_site_symmetry_multiplicity
  _atom_site_fract_x
  _atom_site_fract_y
  _atom_site_fract_z
  _atom_site_occupancy
  Cd  Cd1       1.0  0.39720  0.45424  0.37872  1.0000
  Cd  Cd2       1.0  0.89724  0.04575  0.12128  1.0000
  Cd  Cd3       1.0  0.60279  0.54576  0.62129  1.0000
  Cd  Cd4       1.0  0.10280  0.95425  0.87872  1.0000
  H   H1        1.0  0.18670  0.61952  0.25952  1.0000
  H   H2        1.0  0.68671  0.88047  0.24048  1.0000
  H   H3        1.0  0.81327  0.38046  0.74047  1.0000
  H   H4        1.0  0.31329  0.11954  0.75951  1.0000
  H   H5        1.0  0.25055  0.70086  0.12195  1.0000
  H   H6        1.0  0.75055  0.79913  0.37805  1.0000
  H   H7        1.0  0.74941  0.29912  0.87805  1.0000
  H   H8        1.0  0.24941  0.20088  0.62194  1.0000
  H   H9        1.0  0.88200  0.52352  0.09694  1.0000
  H   H10       1.0  0.38202  0.97649  0.40306  1.0000
  H   H11       1.0  0.11799  0.47650  0.90307  1.0000
  H   H12       1.0  0.61797  0.02349  0.59694  1.0000
  H   H13       1.0  0.79141  0.44935  0.23376  1.0000
  H   H14       1.0  0.29144  0.05066  0.26624  1.0000
  H   H15       1.0  0.20858  0.55066  0.76625  1.0000
  H   H16       1.0  0.70858  0.94932  0.73376  1.0000
  H   H17       1.0  0.45141  0.65661  0.97493  1.0000
  H   H18       1.0  0.95140  0.84339  0.52508  1.0000
  H   H19       1.0  0.54858  0.34340  0.02507  1.0000
  H   H20       1.0  0.04859  0.15661  0.47493  1.0000
  H   H21       1.0  0.63472  0.74824  0.02246  1.0000
  H   H22       1.0  0.13469  0.75176  0.47753  1.0000
  H   H23       1.0  0.36529  0.25176  0.97754  1.0000
  H   H24       1.0  0.86529  0.24824  0.52247  1.0000
  H   H25       1.0  0.82560  0.65610  0.89971  1.0000
  H   H26       1.0  0.32559  0.84390  0.60029  1.0000
  H   H27       1.0  0.17440  0.34390  0.10029  1.0000
  H   H28       1.0  0.67443  0.15611  0.39971  1.0000
  H   H29       1.0  0.79956  0.53761  0.95041  1.0000
  H   H30       1.0  0.29956  0.96239  0.54959  1.0000
  H   H31       1.0  0.20044  0.46239  0.04960  1.0000
  H   H32       1.0  0.70044  0.03761  0.45040  1.0000
  H   H33       1.0  0.98282  0.63711  0.99313  1.0000
  H   H34       1.0  0.48281  0.86289  0.50687  1.0000
  H   H35       1.0  0.01717  0.36289  0.00688  1.0000
  H   H36       1.0  0.51718  0.13711  0.49312  1.0000
  C   C1        1.0  0.90966  0.33458  0.35258  1.0000
  C   C2        1.0  0.40972  0.16541  0.14741  1.0000
  C   C3        1.0  0.09035  0.66542  0.64741  1.0000
  C   C4        1.0  0.59035  0.83459  0.85260  1.0000
  C   C5        1.0  0.90043  0.58497  0.42669  1.0000
  C   C6        1.0  0.40043  0.91503  0.07331  1.0000
  C   C7        1.0  0.09956  0.41503  0.57331  1.0000
  C   C8        1.0  0.59961  0.08498  0.92669  1.0000
  C   C9        1.0  0.33836  0.60047  0.22082  1.0000
  C   C10       1.0  0.83836  0.89952  0.27918  1.0000
  C   C11       1.0  0.66160  0.39952  0.77918  1.0000
  C   C12       1.0  0.16162  0.10048  0.72081  1.0000
  C   C13       1.0  0.37559  0.64528  0.14431  1.0000
  C   C14       1.0  0.87559  0.85472  0.35569  1.0000
  C   C15       1.0  0.62438  0.35471  0.85568  1.0000
  C   C16       1.0  0.12438  0.14529  0.64431  1.0000
  C   C17       1.0  0.57261  0.61863  0.09598  1.0000
  C   C18       1.0  0.07261  0.88137  0.40402  1.0000
  C   C19       1.0  0.42737  0.38137  0.90402  1.0000
  C   C20       1.0  0.92736  0.11862  0.59599  1.0000
  C   C21       1.0  0.72479  0.54761  0.13003  1.0000
  C   C22       1.0  0.22479  0.95239  0.36997  1.0000
  C   C23       1.0  0.27521  0.45239  0.86997  1.0000
  C   C24       1.0  0.77520  0.04760  0.63003  1.0000
  C   C25       1.0  0.67551  0.50557  0.20706  1.0000
  C   C26       1.0  0.17553  0.99443  0.29294  1.0000
  C   C27       1.0  0.32450  0.49442  0.79294  1.0000
  C   C28       1.0  0.82449  0.00557  0.70706  1.0000
  C   C29       1.0  0.61260  0.66472  0.01198  1.0000
  C   C30       1.0  0.11258  0.83528  0.48802  1.0000
  C   C31       1.0  0.38739  0.33528  0.98802  1.0000
  C   C32       1.0  0.88740  0.16472  0.51199  1.0000
  C   C33       1.0  0.81659  0.62114  0.96115  1.0000
  C   C34       1.0  0.31659  0.87886  0.53885  1.0000
  C   C35       1.0  0.18341  0.37886  0.03885  1.0000
  C   C36       1.0  0.68341  0.12114  0.46115  1.0000
  S   S1        1.0  0.15562  0.29474  0.31240  1.0000
  S   S2        1.0  0.65568  0.20527  0.18759  1.0000
  S   S3        1.0  0.84438  0.70527  0.68760  1.0000
  S   S4        1.0  0.34439  0.79474  0.81242  1.0000
  S   S5        1.0  0.64291  0.62132  0.45956  1.0000
  S   S6        1.0  0.14292  0.87867  0.04044  1.0000
  S   S7        1.0  0.35707  0.37867  0.54043  1.0000
  S   S8        1.0  0.85713  0.12134  0.95957  1.0000
  N   N1        1.0  0.73051  0.36207  0.38197  1.0000
  N   N2        1.0  0.23058  0.13792  0.11802  1.0000
  N   N3        1.0  0.26948  0.63793  0.61802  1.0000
  N   N4        1.0  0.76949  0.86208  0.88199  1.0000
  N   N5        1.0  0.08641  0.56219  0.40101  1.0000
  N   N6        1.0  0.58643  0.93781  0.09899  1.0000
  N   N7        1.0  0.91358  0.43781  0.59900  1.0000
  N   N8        1.0  0.41362  0.06220  0.90101  1.0000
  N   N9        1.0  0.48483  0.53080  0.25195  1.0000
  N   N10       1.0  0.98486  0.96920  0.24805  1.0000
  N   N11       1.0  0.51514  0.46920  0.74806  1.0000
  N   N12       1.0  0.01515  0.03080  0.75194  1.0000
