data_image0
_chemical_formula_structural       Cd2H36C32S4N8
_chemical_formula_sum              "Cd2 H36 C32 S4 N8"
_cell_length_a       5.80314
_cell_length_b       8.72769
_cell_length_c       18.2461
_cell_angle_alpha    90.0007
_cell_angle_beta     90.0038
_cell_angle_gamma    97.5504

_space_group_name_H-M_alt    "P 1"
_space_group_IT_number       1

loop_
  _space_group_symop_operation_xyz
  'x, y, z'

loop_
  _atom_site_type_symbol
  _atom_site_label
  _atom_site_symmetry_multiplicity
  _atom_site_fract_x
  _atom_site_fract_y
  _atom_site_fract_z
  _atom_site_occupancy
  Cd  Cd1       1.0  0.49999  0.49999  1.00000  1.0000
  Cd  Cd2       1.0  0.50003  1.00000  0.50000  1.0000
  H   H1        1.0  0.85968  0.80993  0.97780  1.0000
  H   H2        1.0  0.14036  0.69006  0.47780  1.0000
  H   H3        1.0  0.14030  0.19004  0.02220  1.0000
  H   H4        1.0  0.85966  0.30996  0.52220  1.0000
  H   H5        1.0  0.92799  0.04501  0.89850  1.0000
  H   H6        1.0  0.07204  0.45498  0.39850  1.0000
  H   H7        1.0  0.07201  0.95497  0.10151  1.0000
  H   H8        1.0  0.92794  0.54505  0.60150  1.0000
  H   H9        1.0  0.25364  0.90437  0.80195  1.0000
  H   H10       1.0  0.74639  0.59562  0.30195  1.0000
  H   H11       1.0  0.74639  0.09562  0.19805  1.0000
  H   H12       1.0  0.25361  0.40437  0.69805  1.0000
  H   H13       1.0  0.21140  0.67702  0.88614  1.0000
  H   H14       1.0  0.78863  0.82298  0.38615  1.0000
  H   H15       1.0  0.78859  0.32297  0.11385  1.0000
  H   H16       1.0  0.21141  0.17701  0.61385  1.0000
  H   H17       1.0  0.66923  0.23562  0.82219  1.0000
  H   H18       1.0  0.33077  0.26437  0.32218  1.0000
  H   H19       1.0  0.33080  0.76438  0.17782  1.0000
  H   H20       1.0  0.66922  0.73564  0.67781  1.0000
  H   H21       1.0  0.47551  0.13346  0.75872  1.0000
  H   H22       1.0  0.52449  0.36652  0.25873  1.0000
  H   H23       1.0  0.52450  0.86656  0.24129  1.0000
  H   H24       1.0  0.47548  0.63349  0.74127  1.0000
  H   H25       1.0  0.85926  0.21195  0.69980  1.0000
  H   H26       1.0  0.14072  0.28804  0.19979  1.0000
  H   H27       1.0  0.14074  0.78806  0.30021  1.0000
  H   H28       1.0  0.85924  0.71197  0.80021  1.0000
  H   H29       1.0  0.81035  0.00779  0.70652  1.0000
  H   H30       1.0  0.18965  0.49219  0.20652  1.0000
  H   H31       1.0  0.18964  0.99223  0.29347  1.0000
  H   H32       1.0  0.81029  0.50781  0.79349  1.0000
  H   H33       1.0  0.00269  0.11725  0.76906  1.0000
  H   H34       1.0  0.99730  0.38275  0.26905  1.0000
  H   H35       1.0  0.99731  0.88275  0.23094  1.0000
  H   H36       1.0  0.00266  0.61725  0.73096  1.0000
  C   C1        1.0  0.99077  0.39184  0.91614  1.0000
  C   C2        1.0  0.00923  0.10814  0.41614  1.0000
  C   C3        1.0  0.00921  0.60814  0.08386  1.0000
  C   C4        1.0  0.99084  0.89186  0.58387  1.0000
  C   C5        1.0  0.72958  0.83588  0.93810  1.0000
  C   C6        1.0  0.27044  0.66411  0.43810  1.0000
  C   C7        1.0  0.27040  0.16409  0.06190  1.0000
  C   C8        1.0  0.72957  0.33590  0.56190  1.0000
  C   C9        1.0  0.76600  0.96634  0.89390  1.0000
  C   C10       1.0  0.23402  0.53365  0.39389  1.0000
  C   C11       1.0  0.23401  0.03366  0.10611  1.0000
  C   C12       1.0  0.76598  0.46637  0.60610  1.0000
  C   C13       1.0  0.59578  0.99416  0.84268  1.0000
  C   C14       1.0  0.40424  0.50584  0.34268  1.0000
  C   C15       1.0  0.40422  0.00585  0.15732  1.0000
  C   C16       1.0  0.59575  0.49417  0.65732  1.0000
  C   C17       1.0  0.39174  0.88894  0.84074  1.0000
  C   C18       1.0  0.60827  0.61106  0.34074  1.0000
  C   C19       1.0  0.60827  0.11105  0.15927  1.0000
  C   C20       1.0  0.39172  0.38894  0.65926  1.0000
  C   C21       1.0  0.36743  0.76165  0.88726  1.0000
  C   C22       1.0  0.63258  0.73834  0.38726  1.0000
  C   C23       1.0  0.63257  0.23834  0.11274  1.0000
  C   C24       1.0  0.36745  0.26166  0.61274  1.0000
  C   C25       1.0  0.63497  0.12780  0.79049  1.0000
  C   C26       1.0  0.36504  0.37219  0.29049  1.0000
  C   C27       1.0  0.36505  0.87221  0.20952  1.0000
  C   C28       1.0  0.63494  0.62782  0.70951  1.0000
  C   C29       1.0  0.83914  0.11495  0.73851  1.0000
  C   C30       1.0  0.16085  0.38505  0.23851  1.0000
  C   C31       1.0  0.16086  0.88506  0.26149  1.0000
  C   C32       1.0  0.83910  0.61496  0.76150  1.0000
  S   S1        1.0  0.23797  0.34791  0.88546  1.0000
  S   S2        1.0  0.76201  0.15208  0.38547  1.0000
  S   S3        1.0  0.76201  0.65208  0.11453  1.0000
  S   S4        1.0  0.23805  0.84791  0.61454  1.0000
  N   N1        1.0  0.81200  0.42480  0.93806  1.0000
  N   N2        1.0  0.18798  0.07517  0.43806  1.0000
  N   N3        1.0  0.18798  0.57519  0.06194  1.0000
  N   N4        1.0  0.81207  0.92483  0.56195  1.0000
  N   N5        1.0  0.53450  0.73385  0.93459  1.0000
  N   N6        1.0  0.46552  0.76614  0.43459  1.0000
  N   N7        1.0  0.46547  0.26613  0.06540  1.0000
  N   N8        1.0  0.53450  0.23387  0.56540  1.0000
