data_image0
_chemical_formula_structural       Tb2H20C16S2O20
_chemical_formula_sum              "Tb2 H20 C16 S2 O20"
_cell_length_a       7.71977
_cell_length_b       8.39789
_cell_length_c       10.6137
_cell_angle_alpha    71.8774
_cell_angle_beta     89.7013
_cell_angle_gamma    69.2478

_space_group_name_H-M_alt    "P 1"
_space_group_IT_number       1

loop_
  _space_group_symop_operation_xyz
  'x, y, z'

loop_
  _atom_site_type_symbol
  _atom_site_label
  _atom_site_symmetry_multiplicity
  _atom_site_fract_x
  _atom_site_fract_y
  _atom_site_fract_z
  _atom_site_occupancy
  Tb  Tb1       1.0  0.32054  0.29585  0.37493  1.0000
  Tb  Tb2       1.0  0.67946  0.70416  0.62506  1.0000
  H   H1        1.0  0.90885  0.38603  0.37676  1.0000
  H   H2        1.0  0.09115  0.61397  0.62324  1.0000
  H   H3        1.0  0.91878  0.57344  0.37646  1.0000
  H   H4        1.0  0.08122  0.42656  0.62354  1.0000
  H   H5        1.0  0.03041  0.43694  0.14206  1.0000
  H   H6        1.0  0.96959  0.56305  0.85794  1.0000
  H   H7        1.0  0.20413  0.45544  0.06406  1.0000
  H   H8        1.0  0.79588  0.54456  0.93594  1.0000
  H   H9        1.0  0.05938  0.10534  0.35921  1.0000
  H   H10       1.0  0.94061  0.89467  0.64078  1.0000
  H   H11       1.0  0.26389  0.94687  0.41861  1.0000
  H   H12       1.0  0.73611  0.05314  0.58139  1.0000
  H   H13       1.0  0.76035  0.32966  0.92372  1.0000
  H   H14       1.0  0.23965  0.67033  0.07628  1.0000
  H   H15       1.0  0.77953  0.12150  0.80102  1.0000
  H   H16       1.0  0.22046  0.87849  0.19899  1.0000
  H   H17       1.0  0.75904  0.82266  0.91848  1.0000
  H   H18       1.0  0.24098  0.17732  0.08153  1.0000
  H   H19       1.0  0.72072  0.73602  0.15988  1.0000
  H   H20       1.0  0.27930  0.26397  0.84013  1.0000
  C   C1        1.0  0.67561  0.92967  0.32134  1.0000
  C   C2        1.0  0.32439  0.07034  0.67866  1.0000
  C   C3        1.0  0.71391  0.98557  0.17939  1.0000
  C   C4        1.0  0.28610  0.01443  0.82062  1.0000
  C   C5        1.0  0.72352  0.15536  0.11091  1.0000
  C   C6        1.0  0.27649  0.84464  0.88909  1.0000
  C   C7        1.0  0.74963  0.20099  0.97605  1.0000
  C   C8        1.0  0.25037  0.79900  0.02396  1.0000
  C   C9        1.0  0.76151  0.08194  0.90668  1.0000
  C   C10       1.0  0.23849  0.91805  0.09332  1.0000
  C   C11       1.0  0.75112  0.91486  0.97291  1.0000
  C   C12       1.0  0.24889  0.08513  0.02710  1.0000
  C   C13       1.0  0.72997  0.86647  0.10848  1.0000
  C   C14       1.0  0.27004  0.13352  0.89153  1.0000
  C   C15       1.0  0.58388  0.41128  0.53580  1.0000
  C   C16       1.0  0.41610  0.58873  0.46418  1.0000
  S   S1        1.0  0.71138  0.31616  0.19191  1.0000
  S   S2        1.0  0.28861  0.68384  0.80809  1.0000
  O   O1        1.0  0.55575  0.04407  0.36312  1.0000
  O   O2        1.0  0.44426  0.95593  0.63688  1.0000
  O   O3        1.0  0.75940  0.76641  0.39647  1.0000
  O   O4        1.0  0.24060  0.23359  0.60354  1.0000
  O   O5        1.0  0.51482  0.40279  0.21123  1.0000
  O   O6        1.0  0.48518  0.59722  0.78876  1.0000
  O   O7        1.0  0.83086  0.21759  0.32042  1.0000
  O   O8        1.0  0.16913  0.78242  0.67958  1.0000
  O   O9        1.0  0.78010  0.44902  0.10262  1.0000
  O   O10       1.0  0.21991  0.55098  0.89737  1.0000
  O   O11       1.0  0.57748  0.27010  0.51934  1.0000
  O   O12       1.0  0.42251  0.72993  0.48065  1.0000
  O   O13       1.0  0.71201  0.42135  0.60282  1.0000
  O   O14       1.0  0.28799  0.57868  0.39717  1.0000
  O   O15       1.0  0.99186  0.45290  0.36932  1.0000
  O   O16       1.0  0.00813  0.54710  0.63068  1.0000
  O   O17       1.0  0.16469  0.41337  0.15332  1.0000
  O   O18       1.0  0.83531  0.58663  0.84668  1.0000
  O   O19       1.0  0.19365  0.07915  0.37882  1.0000
  O   O20       1.0  0.80635  0.92086  0.62118  1.0000
