data_image0
_chemical_formula_structural       La2H20C16S2O20
_chemical_formula_sum              "La2 H20 C16 S2 O20"
_cell_length_a       7.78776
_cell_length_b       8.56406
_cell_length_c       10.8541
_cell_angle_alpha    70.0324
_cell_angle_beta     88.4069
_cell_angle_gamma    70.5711

_space_group_name_H-M_alt    "P 1"
_space_group_IT_number       1

loop_
  _space_group_symop_operation_xyz
  'x, y, z'

loop_
  _atom_site_type_symbol
  _atom_site_label
  _atom_site_symmetry_multiplicity
  _atom_site_fract_x
  _atom_site_fract_y
  _atom_site_fract_z
  _atom_site_occupancy
  La  La1       1.0  0.67506  0.22444  0.11761  1.0000
  La  La2       1.0  0.32494  0.77556  0.88239  1.0000
  H   H1        1.0  0.08715  0.94533  0.12830  1.0000
  H   H2        1.0  0.91286  0.05467  0.87170  1.0000
  H   H3        1.0  0.10039  0.12745  0.13079  1.0000
  H   H4        1.0  0.89961  0.87255  0.86921  1.0000
  H   H5        1.0  0.79792  0.05119  0.43724  1.0000
  H   H6        1.0  0.20208  0.94881  0.56276  1.0000
  H   H7        1.0  0.96762  0.08163  0.36035  1.0000
  H   H8        1.0  0.03238  0.91838  0.63965  1.0000
  H   H9        1.0  0.74866  0.57554  0.08031  1.0000
  H   H10       1.0  0.25134  0.42446  0.91969  1.0000
  H   H11       1.0  0.94564  0.41749  0.14203  1.0000
  H   H12       1.0  0.05436  0.58251  0.85796  1.0000
  H   H13       1.0  0.24266  0.16432  0.57882  1.0000
  H   H14       1.0  0.75732  0.83569  0.42118  1.0000
  H   H15       1.0  0.22864  0.35931  0.70307  1.0000
  H   H16       1.0  0.77135  0.64070  0.29693  1.0000
  H   H17       1.0  0.24445  0.66066  0.58720  1.0000
  H   H18       1.0  0.75555  0.33934  0.41280  1.0000
  H   H19       1.0  0.27727  0.75999  0.34745  1.0000
  H   H20       1.0  0.72274  0.24000  0.65255  1.0000
  C   C1        1.0  0.31318  0.58734  0.18381  1.0000
  C   C2        1.0  0.68682  0.41265  0.81619  1.0000
  C   C3        1.0  0.28419  0.51718  0.32626  1.0000
  C   C4        1.0  0.71581  0.48281  0.67374  1.0000
  C   C5        1.0  0.27423  0.34757  0.39342  1.0000
  C   C6        1.0  0.72576  0.65243  0.60658  1.0000
  C   C7        1.0  0.25256  0.29373  0.52788  1.0000
  C   C8        1.0  0.74743  0.70628  0.47213  1.0000
  C   C9        1.0  0.24334  0.40532  0.59786  1.0000
  C   C10       1.0  0.75666  0.59469  0.40214  1.0000
  C   C11       1.0  0.25209  0.57311  0.53283  1.0000
  C   C12       1.0  0.74790  0.42690  0.46717  1.0000
  C   C13       1.0  0.27002  0.62878  0.39812  1.0000
  C   C14       1.0  0.72998  0.37122  0.60188  1.0000
  C   C15       1.0  0.58340  0.91564  0.03629  1.0000
  C   C16       1.0  0.41660  0.08435  0.96371  1.0000
  S   S1        1.0  0.28322  0.19501  0.31272  1.0000
  S   S2        1.0  0.71678  0.80499  0.68728  1.0000
  O   O1        1.0  0.42397  0.48819  0.12962  1.0000
  O   O2        1.0  0.57603  0.51181  0.87038  1.0000
  O   O3        1.0  0.22998  0.75017  0.11767  1.0000
  O   O4        1.0  0.77002  0.24982  0.88233  1.0000
  O   O5        1.0  0.47716  0.11326  0.29527  1.0000
  O   O6        1.0  0.52284  0.88674  0.70474  1.0000
  O   O7        1.0  0.17033  0.29476  0.18585  1.0000
  O   O8        1.0  0.82968  0.70524  0.81415  1.0000
  O   O9        1.0  0.21031  0.06179  0.39952  1.0000
  O   O10       1.0  0.78969  0.93821  0.60048  1.0000
  O   O11       1.0  0.70124  0.92982  0.10509  1.0000
  O   O12       1.0  0.29876  0.07018  0.89491  1.0000
  O   O13       1.0  0.58675  0.77540  0.01885  1.0000
  O   O14       1.0  0.41325  0.22459  0.98115  1.0000
  O   O15       1.0  0.01558  0.06640  0.12643  1.0000
  O   O16       1.0  0.98442  0.93359  0.87357  1.0000
  O   O17       1.0  0.83578  0.10241  0.34905  1.0000
  O   O18       1.0  0.16422  0.89759  0.65095  1.0000
  O   O19       1.0  0.81465  0.44510  0.11829  1.0000
  O   O20       1.0  0.18536  0.55489  0.88171  1.0000
