data_image0
_chemical_formula_structural       Nd2H20C16S2O20
_chemical_formula_sum              "Nd2 H20 C16 S2 O20"
_cell_length_a       7.78335
_cell_length_b       8.5075
_cell_length_c       10.7137
_cell_angle_alpha    70.5233
_cell_angle_beta     88.8839
_cell_angle_gamma    70.1423

_space_group_name_H-M_alt    "P 1"
_space_group_IT_number       1

loop_
  _space_group_symop_operation_xyz
  'x, y, z'

loop_
  _atom_site_type_symbol
  _atom_site_label
  _atom_site_symmetry_multiplicity
  _atom_site_fract_x
  _atom_site_fract_y
  _atom_site_fract_z
  _atom_site_occupancy
  Nd  Nd1       1.0  0.32636  0.77825  0.38237  1.0000
  Nd  Nd2       1.0  0.67364  0.22175  0.61763  1.0000
  H   H1        1.0  0.90640  0.87323  0.37410  1.0000
  H   H2        1.0  0.09360  0.12677  0.62591  1.0000
  H   H3        1.0  0.91909  0.05792  0.37262  1.0000
  H   H4        1.0  0.08091  0.94208  0.62738  1.0000
  H   H5        1.0  0.03532  0.92550  0.14233  1.0000
  H   H6        1.0  0.96467  0.07451  0.85767  1.0000
  H   H7        1.0  0.20505  0.94984  0.06266  1.0000
  H   H8        1.0  0.79495  0.05016  0.93734  1.0000
  H   H9        1.0  0.05647  0.59070  0.35782  1.0000
  H   H10       1.0  0.94353  0.40930  0.64218  1.0000
  H   H11       1.0  0.25522  0.43155  0.41826  1.0000
  H   H12       1.0  0.74478  0.56845  0.58174  1.0000
  H   H13       1.0  0.75819  0.83615  0.92188  1.0000
  H   H14       1.0  0.24182  0.16385  0.07812  1.0000
  H   H15       1.0  0.77491  0.63921  0.79571  1.0000
  H   H16       1.0  0.22510  0.36078  0.20429  1.0000
  H   H17       1.0  0.75764  0.33763  0.91080  1.0000
  H   H18       1.0  0.24236  0.66237  0.08920  1.0000
  H   H19       1.0  0.72232  0.23939  0.15247  1.0000
  H   H20       1.0  0.27768  0.76061  0.84753  1.0000
  C   C1        1.0  0.68488  0.41478  0.31833  1.0000
  C   C2        1.0  0.31512  0.58521  0.68167  1.0000
  C   C3        1.0  0.71499  0.48357  0.17502  1.0000
  C   C4        1.0  0.28501  0.51643  0.82498  1.0000
  C   C5        1.0  0.72472  0.65374  0.10816  1.0000
  C   C6        1.0  0.27528  0.34626  0.89184  1.0000
  C   C7        1.0  0.74803  0.70667  0.97283  1.0000
  C   C8        1.0  0.25198  0.29334  0.02717  1.0000
  C   C9        1.0  0.75866  0.59387  0.90161  1.0000
  C   C10       1.0  0.24135  0.40613  0.09839  1.0000
  C   C11       1.0  0.74945  0.42578  0.96631  1.0000
  C   C12       1.0  0.25056  0.57422  0.03369  1.0000
  C   C13       1.0  0.72997  0.37079  0.10201  1.0000
  C   C14       1.0  0.27004  0.62921  0.89799  1.0000
  C   C15       1.0  0.41594  0.08539  0.46376  1.0000
  C   C16       1.0  0.58407  0.91461  0.53625  1.0000
  S   S1        1.0  0.71536  0.80721  0.19078  1.0000
  S   S2        1.0  0.28464  0.19279  0.80922  1.0000
  O   O1        1.0  0.57237  0.51552  0.37196  1.0000
  O   O2        1.0  0.42762  0.48449  0.62804  1.0000
  O   O3        1.0  0.76939  0.25094  0.38615  1.0000
  O   O4        1.0  0.23061  0.74907  0.61385  1.0000
  O   O5        1.0  0.52119  0.88923  0.21008  1.0000
  O   O6        1.0  0.47880  0.11077  0.78992  1.0000
  O   O7        1.0  0.83110  0.70596  0.31867  1.0000
  O   O8        1.0  0.16890  0.29405  0.68134  1.0000
  O   O9        1.0  0.78566  0.94155  0.10309  1.0000
  O   O10       1.0  0.21434  0.05846  0.89691  1.0000
  O   O11       1.0  0.29398  0.07125  0.39694  1.0000
  O   O12       1.0  0.70601  0.92874  0.60305  1.0000
  O   O13       1.0  0.41586  0.22719  0.47910  1.0000
  O   O14       1.0  0.58413  0.77278  0.52089  1.0000
  O   O15       1.0  0.99076  0.93732  0.37073  1.0000
  O   O16       1.0  0.00924  0.06269  0.62927  1.0000
  O   O17       1.0  0.16805  0.90199  0.15232  1.0000
  O   O18       1.0  0.83194  0.09801  0.84768  1.0000
  O   O19       1.0  0.18885  0.56290  0.37916  1.0000
  O   O20       1.0  0.81114  0.43710  0.62084  1.0000
