data_image0
_chemical_formula_structural       Zn4H24C24S24N16
_chemical_formula_sum              "Zn4 H24 C24 S24 N16"
_cell_length_a       8.66519
_cell_length_b       13.3315
_cell_length_c       13.3231
_cell_angle_alpha    83.9474
_cell_angle_beta     71.0464
_cell_angle_gamma    71.0311

_space_group_name_H-M_alt    "P 1"
_space_group_IT_number       1

loop_
  _space_group_symop_operation_xyz
  'x, y, z'

loop_
  _atom_site_type_symbol
  _atom_site_label
  _atom_site_symmetry_multiplicity
  _atom_site_fract_x
  _atom_site_fract_y
  _atom_site_fract_z
  _atom_site_occupancy
  Zn  Zn1       1.0  0.99995  0.99997  0.99994  1.0000
  Zn  Zn2       1.0  0.49994  0.00002  0.99994  1.0000
  Zn  Zn3       1.0  0.25009  0.49997  0.50000  1.0000
  Zn  Zn4       1.0  0.75001  0.50009  0.50009  1.0000
  H   H1        1.0  0.91259  0.39109  0.11084  1.0000
  H   H2        1.0  0.69612  0.88929  0.39087  1.0000
  H   H3        1.0  0.41462  0.60888  0.88922  1.0000
  H   H4        1.0  0.97637  0.11100  0.60884  1.0000
  H   H5        1.0  0.80408  0.33094  0.22788  1.0000
  H   H6        1.0  0.86505  0.77236  0.33075  1.0000
  H   H7        1.0  0.36232  0.66896  0.77230  1.0000
  H   H8        1.0  0.96816  0.22798  0.66895  1.0000
  H   H9        1.0  0.76593  0.47123  0.22376  1.0000
  H   H10       1.0  0.76257  0.77643  0.47109  1.0000
  H   H11       1.0  0.46060  0.52867  0.77639  1.0000
  H   H12       1.0  0.01032  0.22379  0.52857  1.0000
  H   H13       1.0  0.16834  0.81364  0.70115  1.0000
  H   H14       1.0  0.01788  0.29907  0.81390  1.0000
  H   H15       1.0  0.68281  0.18633  0.29887  1.0000
  H   H16       1.0  0.13118  0.70088  0.18585  1.0000
  H   H17       1.0  0.05319  0.95307  0.70857  1.0000
  H   H18       1.0  0.99395  0.29141  0.95334  1.0000
  H   H19       1.0  0.71458  0.04692  0.29132  1.0000
  H   H20       1.0  0.23924  0.70854  0.04644  1.0000
  H   H21       1.0  0.08627  0.87643  0.59522  1.0000
  H   H22       1.0  0.03753  0.40474  0.87681  1.0000
  H   H23       1.0  0.55764  0.12348  0.40468  1.0000
  H   H24       1.0  0.31944  0.59517  0.12302  1.0000
  C   C1        1.0  0.69550  0.16336  0.95450  1.0000
  C   C2        1.0  0.14103  0.04543  0.16340  1.0000
  C   C3        1.0  0.81337  0.83663  0.04553  1.0000
  C   C4        1.0  0.34986  0.95448  0.83648  1.0000
  C   C5        1.0  0.67114  0.30621  0.06276  1.0000
  C   C6        1.0  0.02252  0.93731  0.30636  1.0000
  C   C7        1.0  0.04004  0.69361  0.93751  1.0000
  C   C8        1.0  0.26608  0.06273  0.69358  1.0000
  C   C9        1.0  0.79359  0.40110  0.17679  1.0000
  C   C10       1.0  0.80512  0.82339  0.40099  1.0000
  C   C11       1.0  0.37126  0.59879  0.82340  1.0000
  C   C12       1.0  0.02959  0.17687  0.59875  1.0000
  C   C13       1.0  0.89322  0.56165  0.65957  1.0000
  C   C14       1.0  0.54535  0.34060  0.56179  1.0000
  C   C15       1.0  0.11410  0.43836  0.34051  1.0000
  C   C16       1.0  0.44740  0.65950  0.43851  1.0000
  C   C17       1.0  0.89716  0.73332  0.70213  1.0000
  C   C18       1.0  0.36964  0.29787  0.73338  1.0000
  C   C19       1.0  0.33235  0.26674  0.29778  1.0000
  C   C20       1.0  0.40088  0.70210  0.26677  1.0000
  C   C21       1.0  0.06406  0.87586  0.68097  1.0000
  C   C22       1.0  0.06017  0.31906  0.87612  1.0000
  C   C23       1.0  0.62061  0.12410  0.31896  1.0000
  C   C24       1.0  0.25576  0.68085  0.12371  1.0000
  S   S1        1.0  0.68266  0.07935  0.87082  1.0000
  S   S2        1.0  0.23781  0.12907  0.07940  1.0000
  S   S3        1.0  0.63292  0.92067  0.12913  1.0000
  S   S4        1.0  0.44643  0.87089  0.92049  1.0000
  S   S5        1.0  0.56040  0.29341  0.97936  1.0000
  S   S6        1.0  0.14612  0.02061  0.29352  1.0000
  S   S7        1.0  0.83316  0.70653  0.02087  1.0000
  S   S8        1.0  0.46011  0.97936  0.70639  1.0000
  S   S9        1.0  0.61439  0.42509  0.12724  1.0000
  S   S10       1.0  0.95999  0.87302  0.42531  1.0000
  S   S11       1.0  0.16668  0.57465  0.87329  1.0000
  S   S12       1.0  0.25831  0.12720  0.57469  1.0000
  S   S13       1.0  0.85105  0.44753  0.64682  1.0000
  S   S14       1.0  0.70163  0.35333  0.44762  1.0000
  S   S15       1.0  0.94511  0.55251  0.35325  1.0000
  S   S16       1.0  0.50242  0.64680  0.55272  1.0000
  S   S17       1.0  0.75144  0.66205  0.74947  1.0000
  S   S18       1.0  0.58670  0.25067  0.66216  1.0000
  S   S19       1.0  0.16253  0.33802  0.25055  1.0000
  S   S20       1.0  0.49906  0.74947  0.33821  1.0000
  S   S21       1.0  0.86067  0.85605  0.75259  1.0000
  S   S22       1.0  0.28341  0.24729  0.85606  1.0000
  S   S23       1.0  0.46905  0.14404  0.24722  1.0000
  S   S24       1.0  0.38707  0.75258  0.14397  1.0000
  N   N1        1.0  0.80914  0.14014  0.00754  1.0000
  N   N2        1.0  0.05067  0.99237  0.14017  1.0000
  N   N3        1.0  0.95683  0.85979  0.99243  1.0000
  N   N4        1.0  0.18319  0.00752  0.85971  1.0000
  N   N5        1.0  0.79626  0.22009  0.06934  1.0000
  N   N6        1.0  0.98358  0.93068  0.22016  1.0000
  N   N7        1.0  0.08563  0.77976  0.93078  1.0000
  N   N8        1.0  0.13435  0.06931  0.77975  1.0000
  N   N9        1.0  0.03642  0.68397  0.62708  1.0000
  N   N10       1.0  0.27971  0.37291  0.68401  1.0000
  N   N11       1.0  0.34736  0.31604  0.37282  1.0000
  N   N12       1.0  0.33682  0.62700  0.31603  1.0000
  N   N13       1.0  0.03324  0.58737  0.60429  1.0000
  N   N14       1.0  0.37956  0.39580  0.58746  1.0000
  N   N15       1.0  0.22473  0.41262  0.39573  1.0000
  N   N16       1.0  0.36279  0.60417  0.41271  1.0000
