data_image0
_chemical_formula_structural       Hg4H28C32N12Cl8O4
_chemical_formula_sum              "Hg4 H28 C32 N12 Cl8 O4"
_cell_length_a       6.14596
_cell_length_b       7.94984
_cell_length_c       23.1899
_cell_angle_alpha    89.9996
_cell_angle_beta     90.0002
_cell_angle_gamma    109.043

_space_group_name_H-M_alt    "P 1"
_space_group_IT_number       1

loop_
  _space_group_symop_operation_xyz
  'x, y, z'

loop_
  _atom_site_type_symbol
  _atom_site_label
  _atom_site_symmetry_multiplicity
  _atom_site_fract_x
  _atom_site_fract_y
  _atom_site_fract_z
  _atom_site_occupancy
  Hg  Hg1       1.0  0.66825  0.98955  0.71427  1.0000
  Hg  Hg2       1.0  0.33174  0.51045  0.21427  1.0000
  Hg  Hg3       1.0  0.33176  0.01046  0.28573  1.0000
  Hg  Hg4       1.0  0.66826  0.48955  0.78573  1.0000
  H   H1        1.0  0.07513  0.11350  0.53750  1.0000
  H   H2        1.0  0.92486  0.38650  0.03749  1.0000
  H   H3        1.0  0.92486  0.88650  0.46251  1.0000
  H   H4        1.0  0.07515  0.61351  0.96251  1.0000
  H   H5        1.0  0.56667  0.35266  0.48788  1.0000
  H   H6        1.0  0.43331  0.14734  0.98787  1.0000
  H   H7        1.0  0.43336  0.64737  0.51212  1.0000
  H   H8        1.0  0.56666  0.85264  0.01212  1.0000
  H   H9        1.0  0.66388  0.54710  0.57517  1.0000
  H   H10       1.0  0.33614  0.95292  0.07517  1.0000
  H   H11       1.0  0.33615  0.45293  0.42483  1.0000
  H   H12       1.0  0.66385  0.04707  0.92483  1.0000
  H   H13       1.0  0.94889  0.51716  0.64563  1.0000
  H   H14       1.0  0.05112  0.98286  0.14563  1.0000
  H   H15       1.0  0.05112  0.48285  0.35437  1.0000
  H   H16       1.0  0.94888  0.01713  0.85436  1.0000
  H   H17       1.0  0.32836  0.55479  0.67460  1.0000
  H   H18       1.0  0.67165  0.94521  0.17460  1.0000
  H   H19       1.0  0.67164  0.44521  0.32540  1.0000
  H   H20       1.0  0.32837  0.05480  0.82540  1.0000
  H   H21       1.0  0.16432  0.01440  0.62602  1.0000
  H   H22       1.0  0.83567  0.48559  0.12601  1.0000
  H   H23       1.0  0.83566  0.98559  0.37398  1.0000
  H   H24       1.0  0.16433  0.51441  0.87398  1.0000
  H   H25       1.0  0.64410  0.12717  0.43730  1.0000
  H   H26       1.0  0.35588  0.37282  0.93729  1.0000
  H   H27       1.0  0.35589  0.87283  0.56270  1.0000
  H   H28       1.0  0.64411  0.62717  0.06271  1.0000
  C   C1        1.0  0.02937  0.31400  0.59519  1.0000
  C   C2        1.0  0.97063  0.18600  0.09518  1.0000
  C   C3        1.0  0.97065  0.68601  0.40482  1.0000
  C   C4        1.0  0.02936  0.81399  0.90482  1.0000
  C   C5        1.0  0.98363  0.20737  0.54608  1.0000
  C   C6        1.0  0.01637  0.29263  0.04607  1.0000
  C   C7        1.0  0.01638  0.79264  0.45393  1.0000
  C   C8        1.0  0.98363  0.70736  0.95393  1.0000
  C   C9        1.0  0.81379  0.22024  0.50779  1.0000
  C   C10       1.0  0.18619  0.27975  0.00779  1.0000
  C   C11       1.0  0.18623  0.77978  0.49221  1.0000
  C   C12       1.0  0.81377  0.72022  0.99221  1.0000
  C   C13       1.0  0.69782  0.34278  0.51812  1.0000
  C   C14       1.0  0.30217  0.15723  0.01812  1.0000
  C   C15       1.0  0.30220  0.65725  0.48188  1.0000
  C   C16       1.0  0.69779  0.84275  0.98188  1.0000
  C   C17       1.0  0.75151  0.45037  0.56698  1.0000
  C   C18       1.0  0.24850  0.04965  0.06698  1.0000
  C   C19       1.0  0.24851  0.54965  0.43301  1.0000
  C   C20       1.0  0.75149  0.95034  0.93301  1.0000
  C   C21       1.0  0.91575  0.43664  0.60660  1.0000
  C   C22       1.0  0.08426  0.06336  0.10660  1.0000
  C   C23       1.0  0.08426  0.56338  0.39340  1.0000
  C   C24       1.0  0.91573  0.93661  0.89340  1.0000
  C   C25       1.0  0.32385  0.41741  0.67321  1.0000
  C   C26       1.0  0.67615  0.08258  0.17321  1.0000
  C   C27       1.0  0.67615  0.58260  0.32679  1.0000
  C   C28       1.0  0.32384  0.91741  0.82679  1.0000
  C   C29       1.0  0.24328  0.14008  0.64795  1.0000
  C   C30       1.0  0.75671  0.35992  0.14795  1.0000
  C   C31       1.0  0.75673  0.85993  0.35205  1.0000
  C   C32       1.0  0.24327  0.64007  0.85205  1.0000
  N   N1        1.0  0.39594  0.17066  0.69000  1.0000
  N   N2        1.0  0.60406  0.32934  0.19000  1.0000
  N   N3        1.0  0.60405  0.82934  0.31000  1.0000
  N   N4        1.0  0.39595  0.67066  0.81000  1.0000
  N   N5        1.0  0.44681  0.34557  0.70547  1.0000
  N   N6        1.0  0.55319  0.15443  0.20547  1.0000
  N   N7        1.0  0.55319  0.65443  0.29454  1.0000
  N   N8        1.0  0.44682  0.84558  0.79454  1.0000
  N   N9        1.0  0.19367  0.29253  0.63584  1.0000
  N   N10       1.0  0.80633  0.20745  0.13583  1.0000
  N   N11       1.0  0.80632  0.70746  0.36417  1.0000
  N   N12       1.0  0.19369  0.79255  0.86417  1.0000
  Cl  Cl1       1.0  0.59880  0.84326  0.62040  1.0000
  Cl  Cl2       1.0  0.40119  0.65674  0.12040  1.0000
  Cl  Cl3       1.0  0.40121  0.15674  0.37960  1.0000
  Cl  Cl4       1.0  0.59880  0.34326  0.87960  1.0000
  Cl  Cl5       1.0  0.93375  0.23845  0.76778  1.0000
  Cl  Cl6       1.0  0.06625  0.26156  0.26778  1.0000
  Cl  Cl7       1.0  0.06625  0.76155  0.23223  1.0000
  Cl  Cl8       1.0  0.93375  0.73845  0.73222  1.0000
  O   O1        1.0  0.76876  0.10963  0.46133  1.0000
  O   O2        1.0  0.23121  0.39036  0.96132  1.0000
  O   O3        1.0  0.23124  0.89037  0.53868  1.0000
  O   O4        1.0  0.76877  0.60963  0.03868  1.0000
