data_image0
_chemical_formula_structural       Hg4H28C40N20O4
_chemical_formula_sum              "Hg4 H28 C40 N20 O4"
_cell_length_a       6.32473
_cell_length_b       8.25802
_cell_length_c       22.1602
_cell_angle_alpha    90.0006
_cell_angle_beta     89.9994
_cell_angle_gamma    104.09

_space_group_name_H-M_alt    "P 1"
_space_group_IT_number       1

loop_
  _space_group_symop_operation_xyz
  'x, y, z'

loop_
  _atom_site_type_symbol
  _atom_site_label
  _atom_site_symmetry_multiplicity
  _atom_site_fract_x
  _atom_site_fract_y
  _atom_site_fract_z
  _atom_site_occupancy
  Hg  Hg1       1.0  0.76388  0.07436  0.78794  1.0000
  Hg  Hg2       1.0  0.23610  0.42562  0.28794  1.0000
  Hg  Hg3       1.0  0.23610  0.92563  0.21206  1.0000
  Hg  Hg4       1.0  0.76388  0.57436  0.71206  1.0000
  H   H1        1.0  0.08952  0.12481  0.95047  1.0000
  H   H2        1.0  0.91047  0.37519  0.45047  1.0000
  H   H3        1.0  0.91046  0.87517  0.04953  1.0000
  H   H4        1.0  0.08955  0.62482  0.54953  1.0000
  H   H5        1.0  0.58519  0.36172  0.00507  1.0000
  H   H6        1.0  0.41483  0.13830  0.50506  1.0000
  H   H7        1.0  0.41483  0.63828  0.99494  1.0000
  H   H8        1.0  0.58522  0.86173  0.49493  1.0000
  H   H9        1.0  0.71680  0.58840  0.92941  1.0000
  H   H10       1.0  0.28320  0.91161  0.42940  1.0000
  H   H11       1.0  0.28321  0.41161  0.07060  1.0000
  H   H12       1.0  0.71683  0.08840  0.57059  1.0000
  H   H13       1.0  0.02346  0.57958  0.86191  1.0000
  H   H14       1.0  0.97653  0.92043  0.36191  1.0000
  H   H15       1.0  0.97654  0.42042  0.13810  1.0000
  H   H16       1.0  0.02348  0.07959  0.63808  1.0000
  H   H17       1.0  0.36169  0.60244  0.83139  1.0000
  H   H18       1.0  0.63829  0.89756  0.33139  1.0000
  H   H19       1.0  0.63829  0.39755  0.16861  1.0000
  H   H20       1.0  0.36171  0.10245  0.66861  1.0000
  H   H21       1.0  0.25494  0.08206  0.86197  1.0000
  H   H22       1.0  0.74504  0.41793  0.36197  1.0000
  H   H23       1.0  0.74506  0.91793  0.13804  1.0000
  H   H24       1.0  0.25495  0.58207  0.63803  1.0000
  H   H25       1.0  0.64691  0.13006  0.04808  1.0000
  H   H26       1.0  0.35310  0.36995  0.54807  1.0000
  H   H27       1.0  0.35309  0.86993  0.95193  1.0000
  H   H28       1.0  0.64691  0.63006  0.45192  1.0000
  C   C1        1.0  0.07297  0.35085  0.90124  1.0000
  C   C2        1.0  0.92702  0.14915  0.40124  1.0000
  C   C3        1.0  0.92702  0.64914  0.09877  1.0000
  C   C4        1.0  0.07299  0.85086  0.59876  1.0000
  C   C5        1.0  0.00633  0.22478  0.94410  1.0000
  C   C6        1.0  0.99367  0.27523  0.44410  1.0000
  C   C7        1.0  0.99366  0.77521  0.05590  1.0000
  C   C8        1.0  0.00634  0.72478  0.55590  1.0000
  C   C9        1.0  0.82863  0.22947  0.98135  1.0000
  C   C10       1.0  0.17138  0.27054  0.48134  1.0000
  C   C11       1.0  0.17137  0.77053  0.01866  1.0000
  C   C12       1.0  0.82864  0.72947  0.51865  1.0000
  C   C13       1.0  0.72216  0.35965  0.97553  1.0000
  C   C14       1.0  0.27786  0.14036  0.47552  1.0000
  C   C15       1.0  0.27785  0.64035  0.02448  1.0000
  C   C16       1.0  0.72217  0.85965  0.52447  1.0000
  C   C17       1.0  0.79571  0.48523  0.93328  1.0000
  C   C18       1.0  0.20429  0.01478  0.43327  1.0000
  C   C19       1.0  0.20430  0.51477  0.06673  1.0000
  C   C20       1.0  0.79573  0.98524  0.56672  1.0000
  C   C21       1.0  0.97047  0.48190  0.89529  1.0000
  C   C22       1.0  0.02953  0.01811  0.39529  1.0000
  C   C23       1.0  0.02952  0.51811  0.10472  1.0000
  C   C24       1.0  0.97049  0.98190  0.60471  1.0000
  C   C25       1.0  0.37612  0.47454  0.82925  1.0000
  C   C26       1.0  0.62386  0.02545  0.32925  1.0000
  C   C27       1.0  0.62386  0.52545  0.17076  1.0000
  C   C28       1.0  0.37614  0.97455  0.67075  1.0000
  C   C29       1.0  0.32391  0.20815  0.84614  1.0000
  C   C30       1.0  0.67607  0.29185  0.34614  1.0000
  C   C31       1.0  0.67608  0.79185  0.15387  1.0000
  C   C32       1.0  0.32392  0.70816  0.65386  1.0000
  C   C33       1.0  0.98005  0.23808  0.73399  1.0000
  C   C34       1.0  0.01993  0.26192  0.23399  1.0000
  C   C35       1.0  0.01991  0.76192  0.26601  1.0000
  C   C36       1.0  0.98007  0.73807  0.76601  1.0000
  C   C37       1.0  0.63281  0.92073  0.85875  1.0000
  C   C38       1.0  0.36717  0.57926  0.35876  1.0000
  C   C39       1.0  0.36719  0.07926  0.14124  1.0000
  C   C40       1.0  0.63282  0.42074  0.64124  1.0000
  N   N1        1.0  0.48420  0.25131  0.80674  1.0000
  N   N2        1.0  0.51577  0.24869  0.30675  1.0000
  N   N3        1.0  0.51579  0.74869  0.19326  1.0000
  N   N4        1.0  0.48422  0.75131  0.69325  1.0000
  N   N5        1.0  0.51772  0.41958  0.79632  1.0000
  N   N6        1.0  0.48226  0.08041  0.29632  1.0000
  N   N7        1.0  0.48226  0.58041  0.20368  1.0000
  N   N8        1.0  0.51774  0.91959  0.70368  1.0000
  N   N9        1.0  0.25056  0.34540  0.86181  1.0000
  N   N10       1.0  0.74943  0.15460  0.36181  1.0000
  N   N11       1.0  0.74943  0.65460  0.13819  1.0000
  N   N12       1.0  0.25057  0.84540  0.63818  1.0000
  N   N13       1.0  0.10088  0.33243  0.70317  1.0000
  N   N14       1.0  0.89912  0.16757  0.20317  1.0000
  N   N15       1.0  0.89910  0.66758  0.29682  1.0000
  N   N16       1.0  0.10088  0.83241  0.79682  1.0000
  N   N17       1.0  0.55048  0.84090  0.89973  1.0000
  N   N18       1.0  0.44950  0.65910  0.39972  1.0000
  N   N19       1.0  0.44952  0.15910  0.10028  1.0000
  N   N20       1.0  0.55049  0.34090  0.60027  1.0000
  O   O1        1.0  0.76686  0.10666  0.02296  1.0000
  O   O2        1.0  0.23315  0.39335  0.52295  1.0000
  O   O3        1.0  0.23313  0.89333  0.97705  1.0000
  O   O4        1.0  0.76687  0.60666  0.47704  1.0000
