data_image0
_chemical_formula_structural       Ag4H36C20N8O6
_chemical_formula_sum              "Ag4 H36 C20 N8 O6"
_cell_length_a       8.00459
_cell_length_b       10.1933
_cell_length_c       9.48685
_cell_angle_alpha    100.37
_cell_angle_beta     104.008
_cell_angle_gamma    97.5653

_space_group_name_H-M_alt    "P 1"
_space_group_IT_number       1

loop_
  _space_group_symop_operation_xyz
  'x, y, z'

loop_
  _atom_site_type_symbol
  _atom_site_label
  _atom_site_symmetry_multiplicity
  _atom_site_fract_x
  _atom_site_fract_y
  _atom_site_fract_z
  _atom_site_occupancy
  Ag  Ag1       1.0  0.21758  0.85347  0.71581  1.0000
  Ag  Ag2       1.0  0.78485  0.15252  0.29667  1.0000
  Ag  Ag3       1.0  0.49790  0.50554  0.50925  1.0000
  Ag  Ag4       1.0  0.00003  0.00392  0.50818  1.0000
  H   H1        1.0  0.17516  0.41178  0.28923  1.0000
  H   H2        1.0  0.00105  0.41162  0.37507  1.0000
  H   H3        1.0  0.15151  0.56336  0.39972  1.0000
  H   H4        1.0  0.04454  0.55609  0.12470  1.0000
  H   H5        1.0  0.88293  0.41134  0.10371  1.0000
  H   H6        1.0  0.81135  0.66461  0.01574  1.0000
  H   H7        1.0  0.64654  0.52782  0.00752  1.0000
  H   H8        1.0  0.51614  0.73216  0.99121  1.0000
  H   H9        1.0  0.67028  0.82735  0.15986  1.0000
  H   H10       1.0  0.50990  0.69165  0.16409  1.0000
  H   H11       1.0  0.81716  0.59395  0.73278  1.0000
  H   H12       1.0  0.83876  0.44253  0.62057  1.0000
  H   H13       1.0  0.98879  0.59423  0.64418  1.0000
  H   H14       1.0  0.95046  0.44720  0.89382  1.0000
  H   H15       1.0  0.10971  0.59358  0.91577  1.0000
  H   H16       1.0  0.34908  0.47926  0.00906  1.0000
  H   H17       1.0  0.18643  0.34082  0.00041  1.0000
  H   H18       1.0  0.48303  0.27643  0.02317  1.0000
  H   H19       1.0  0.48744  0.31866  0.85067  1.0000
  H   H20       1.0  0.32946  0.18108  0.85423  1.0000
  H   H21       1.0  0.60231  0.93425  0.40715  1.0000
  H   H22       1.0  0.40370  0.99231  0.34094  1.0000
  H   H23       1.0  0.59478  0.01672  0.66925  1.0000
  H   H24       1.0  0.39511  0.07334  0.60242  1.0000
  H   H25       1.0  0.71103  0.17836  0.54976  1.0000
  H   H26       1.0  0.53615  0.21362  0.43599  1.0000
  H   H27       1.0  0.46483  0.79502  0.57472  1.0000
  H   H28       1.0  0.28794  0.82884  0.46146  1.0000
  H   H29       1.0  0.05021  0.07980  0.89357  1.0000
  H   H30       1.0  0.20233  0.02570  0.03190  1.0000
  H   H31       1.0  0.80290  0.97826  0.98274  1.0000
  H   H32       1.0  0.95527  0.92518  0.12188  1.0000
  H   H33       1.0  0.92064  0.85067  0.77657  1.0000
  H   H34       1.0  0.04422  0.79323  0.91102  1.0000
  H   H35       1.0  0.96091  0.21124  0.10241  1.0000
  H   H36       1.0  0.08287  0.15482  0.23848  1.0000
  C   C1        1.0  0.76339  0.73392  0.48244  1.0000
  C   C2        1.0  0.71539  0.52875  0.29874  1.0000
  C   C3        1.0  0.83714  0.59734  0.22118  1.0000
  C   C4        1.0  0.94318  0.73382  0.31357  1.0000
  C   C5        1.0  0.07801  0.47052  0.31824  1.0000
  C   C6        1.0  0.96238  0.50401  0.18215  1.0000
  C   C7        1.0  0.72121  0.62624  0.07638  1.0000
  C   C8        1.0  0.59795  0.72535  0.09961  1.0000
  C   C9        1.0  0.23511  0.27568  0.53530  1.0000
  C   C10       1.0  0.27801  0.48045  0.71850  1.0000
  C   C11       1.0  0.15772  0.40980  0.79576  1.0000
  C   C12       1.0  0.05355  0.27307  0.70258  1.0000
  C   C13       1.0  0.91339  0.53512  0.70183  1.0000
  C   C14       1.0  0.03110  0.50107  0.83652  1.0000
  C   C15       1.0  0.27548  0.38071  0.93968  1.0000
  C   C16       1.0  0.40035  0.28331  0.91513  1.0000
  C   C17       1.0  0.52318  0.01046  0.43335  1.0000
  C   C18       1.0  0.47518  0.99771  0.57682  1.0000
  C   C19       1.0  0.06718  0.00207  0.95985  1.0000
  C   C20       1.0  0.93793  0.00251  0.05508  1.0000
  N   N1        1.0  0.67565  0.60412  0.41578  1.0000
  N   N2        1.0  0.89212  0.79749  0.42985  1.0000
  N   N3        1.0  0.32028  0.40616  0.60227  1.0000
  N   N4        1.0  0.10640  0.21062  0.58673  1.0000
  N   N5        1.0  0.62293  0.14739  0.44558  1.0000
  N   N6        1.0  0.37697  0.86044  0.56515  1.0000
  N   N7        1.0  0.04163  0.87002  0.85475  1.0000
  N   N8        1.0  0.96257  0.13494  0.15937  1.0000
  O   O1        1.0  0.72993  0.79647  0.59670  1.0000
  O   O2        1.0  0.65059  0.40567  0.25257  1.0000
  O   O3        1.0  0.07153  0.78898  0.27758  1.0000
  O   O4        1.0  0.27092  0.21405  0.42182  1.0000
  O   O5        1.0  0.33990  0.60405  0.76469  1.0000
  O   O6        1.0  0.92530  0.21646  0.73755  1.0000
