data_image0
_chemical_formula_structural       Zn2H36C44N24O12
_chemical_formula_sum              "Zn2 H36 C44 N24 O12"
_cell_length_a       8.49244
_cell_length_b       10.9611
_cell_length_c       14.2978
_cell_angle_alpha    82.3274
_cell_angle_beta     79.4227
_cell_angle_gamma    88.5933

_space_group_name_H-M_alt    "P 1"
_space_group_IT_number       1

loop_
  _space_group_symop_operation_xyz
  'x, y, z'

loop_
  _atom_site_type_symbol
  _atom_site_label
  _atom_site_symmetry_multiplicity
  _atom_site_fract_x
  _atom_site_fract_y
  _atom_site_fract_z
  _atom_site_occupancy
  Zn  Zn1       1.0  0.67196  0.99042  0.73440  1.0000
  Zn  Zn2       1.0  0.32804  0.00957  0.26560  1.0000
  H   H1        1.0  0.79628  0.01761  0.54112  1.0000
  H   H2        1.0  0.20372  0.98238  0.45888  1.0000
  H   H3        1.0  0.85828  0.88299  0.58116  1.0000
  H   H4        1.0  0.14173  0.11701  0.41884  1.0000
  H   H5        1.0  0.50166  0.96118  0.91786  1.0000
  H   H6        1.0  0.49835  0.03882  0.08215  1.0000
  H   H7        1.0  0.49943  0.10703  0.88316  1.0000
  H   H8        1.0  0.50057  0.89296  0.11684  1.0000
  H   H9        1.0  0.08611  0.57956  0.47270  1.0000
  H   H10       1.0  0.91390  0.42045  0.52729  1.0000
  H   H11       1.0  0.21619  0.37299  0.48999  1.0000
  H   H12       1.0  0.78381  0.62702  0.51001  1.0000
  H   H13       1.0  0.47732  0.49775  0.69197  1.0000
  H   H14       1.0  0.52267  0.50225  0.30804  1.0000
  H   H15       1.0  0.44946  0.02772  0.56292  1.0000
  H   H16       1.0  0.55053  0.97228  0.43708  1.0000
  H   H17       1.0  0.54199  0.30015  0.72503  1.0000
  H   H18       1.0  0.45802  0.69985  0.27497  1.0000
  H   H19       1.0  0.60742  0.75292  0.62818  1.0000
  H   H20       1.0  0.39258  0.24707  0.37182  1.0000
  H   H21       1.0  0.26952  0.93027  0.81928  1.0000
  H   H22       1.0  0.73048  0.06972  0.18072  1.0000
  H   H23       1.0  0.33375  0.42517  0.93938  1.0000
  H   H24       1.0  0.66625  0.57482  0.06063  1.0000
  H   H25       1.0  0.18191  0.62513  0.93584  1.0000
  H   H26       1.0  0.81809  0.37487  0.06416  1.0000
  H   H27       1.0  0.86626  0.47875  0.77460  1.0000
  H   H28       1.0  0.13374  0.52126  0.22539  1.0000
  H   H29       1.0  0.83886  0.69420  0.72115  1.0000
  H   H30       1.0  0.16115  0.30579  0.27885  1.0000
  H   H31       1.0  0.85004  0.93496  0.92544  1.0000
  H   H32       1.0  0.14996  0.06504  0.07456  1.0000
  H   H33       1.0  0.75518  0.22705  0.84776  1.0000
  H   H34       1.0  0.24482  0.77294  0.15224  1.0000
  H   H35       1.0  0.04722  0.06538  0.62612  1.0000
  H   H36       1.0  0.95277  0.93462  0.37387  1.0000
  C   C1        1.0  0.20424  0.65312  0.57251  1.0000
  C   C2        1.0  0.79577  0.34688  0.42748  1.0000
  C   C3        1.0  0.17308  0.56039  0.52004  1.0000
  C   C4        1.0  0.82693  0.43961  0.47995  1.0000
  C   C5        1.0  0.24759  0.44615  0.52787  1.0000
  C   C6        1.0  0.75242  0.55385  0.47212  1.0000
  C   C7        1.0  0.35781  0.42315  0.58983  1.0000
  C   C8        1.0  0.64219  0.57685  0.41017  1.0000
  C   C9        1.0  0.39407  0.51447  0.64210  1.0000
  C   C10       1.0  0.60593  0.48553  0.35790  1.0000
  C   C11       1.0  0.31753  0.62836  0.63251  1.0000
  C   C12       1.0  0.68247  0.37164  0.36748  1.0000
  C   C13       1.0  0.45823  0.11657  0.58680  1.0000
  C   C14       1.0  0.54177  0.88343  0.41321  1.0000
  C   C15       1.0  0.50894  0.25317  0.66957  1.0000
  C   C16       1.0  0.49106  0.74683  0.33043  1.0000
  C   C17       1.0  0.50090  0.77473  0.67769  1.0000
  C   C18       1.0  0.49911  0.22527  0.32231  1.0000
  C   C19       1.0  0.32445  0.86463  0.77206  1.0000
  C   C20       1.0  0.67555  0.13537  0.22794  1.0000
  C   C21       1.0  0.11562  0.77399  0.56140  1.0000
  C   C22       1.0  0.88439  0.22602  0.43859  1.0000
  C   C23       1.0  0.18413  0.33917  0.86256  1.0000
  C   C24       1.0  0.81586  0.66083  0.13744  1.0000
  C   C25       1.0  0.23031  0.43844  0.90396  1.0000
  C   C26       1.0  0.76968  0.56155  0.09605  1.0000
  C   C27       1.0  0.14710  0.54900  0.90242  1.0000
  C   C28       1.0  0.85290  0.45099  0.09759  1.0000
  C   C29       1.0  0.01502  0.56386  0.85622  1.0000
  C   C30       1.0  0.98499  0.43614  0.14378  1.0000
  C   C31       1.0  0.96721  0.46827  0.81238  1.0000
  C   C32       1.0  0.03279  0.53173  0.18762  1.0000
  C   C33       1.0  0.05151  0.35723  0.81656  1.0000
  C   C34       1.0  0.94848  0.64277  0.18344  1.0000
  C   C35       1.0  0.85229  0.73271  0.78528  1.0000
  C   C36       1.0  0.14772  0.26729  0.21472  1.0000
  C   C37       1.0  0.86704  0.85501  0.88751  1.0000
  C   C38       1.0  0.13297  0.14500  0.11249  1.0000
  C   C39       1.0  0.85335  0.20561  0.79225  1.0000
  C   C40       1.0  0.14664  0.79439  0.20775  1.0000
  C   C41       1.0  0.00547  0.12514  0.68036  1.0000
  C   C42       1.0  0.99453  0.87487  0.31965  1.0000
  C   C43       1.0  0.27191  0.21726  0.87625  1.0000
  C   C44       1.0  0.72806  0.78272  0.12375  1.0000
  N   N1        1.0  0.42688  0.30463  0.60143  1.0000
  N   N2        1.0  0.57312  0.69537  0.39858  1.0000
  N   N3        1.0  0.39426  0.21738  0.54779  1.0000
  N   N4        1.0  0.60574  0.78262  0.45222  1.0000
  N   N5        1.0  0.53100  0.13415  0.66188  1.0000
  N   N6        1.0  0.46900  0.86585  0.33812  1.0000
  N   N7        1.0  0.35696  0.72140  0.68522  1.0000
  N   N8        1.0  0.64305  0.27860  0.31477  1.0000
  N   N9        1.0  0.24266  0.77851  0.74463  1.0000
  N   N10       1.0  0.75734  0.22149  0.25537  1.0000
  N   N11       1.0  0.48428  0.86500  0.73256  1.0000
  N   N12       1.0  0.51572  0.13500  0.26744  1.0000
  N   N13       1.0  0.93343  0.67783  0.85265  1.0000
  N   N14       1.0  0.06657  0.32217  0.14735  1.0000
  N   N15       1.0  0.94531  0.75606  0.91773  1.0000
  N   N16       1.0  0.05469  0.24394  0.08227  1.0000
  N   N17       1.0  0.80756  0.84471  0.80591  1.0000
  N   N18       1.0  0.19245  0.15529  0.19409  1.0000
  N   N19       1.0  0.99741  0.26171  0.77172  1.0000
  N   N20       1.0  0.00258  0.73829  0.22828  1.0000
  N   N21       1.0  0.09595  0.21122  0.70062  1.0000
  N   N22       1.0  0.90404  0.78878  0.29938  1.0000
  N   N23       1.0  0.85476  0.11876  0.73517  1.0000
  N   N24       1.0  0.14524  0.88123  0.26483  1.0000
  O   O1        1.0  0.96544  0.76350  0.56516  1.0000
  O   O2        1.0  0.03456  0.23651  0.43483  1.0000
  O   O3        1.0  0.77767  0.95022  0.59641  1.0000
  O   O4        1.0  0.22234  0.04978  0.40359  1.0000
  O   O5        1.0  0.19618  0.87208  0.54798  1.0000
  O   O6        1.0  0.80382  0.12792  0.45202  1.0000
  O   O7        1.0  0.56903  0.02691  0.87957  1.0000
  O   O8        1.0  0.43097  0.97310  0.12043  1.0000
  O   O9        1.0  0.42046  0.22905  0.88284  1.0000
  O   O10       1.0  0.57953  0.77095  0.11716  1.0000
  O   O11       1.0  0.19771  0.11858  0.88285  1.0000
  O   O12       1.0  0.80228  0.88142  0.11716  1.0000
