data_image0
_chemical_formula_structural       Cu2H28C22I4Br2N8
_chemical_formula_sum              "Cu2 H28 C22 I4 Br2 N8"
_cell_length_a       4.16792
_cell_length_b       13.9834
_cell_length_c       15.4376
_cell_angle_alpha    90
_cell_angle_beta     90.0002
_cell_angle_gamma    90.0002

_space_group_name_H-M_alt    "P 1"
_space_group_IT_number       1

loop_
  _space_group_symop_operation_xyz
  'x, y, z'

loop_
  _atom_site_type_symbol
  _atom_site_label
  _atom_site_symmetry_multiplicity
  _atom_site_fract_x
  _atom_site_fract_y
  _atom_site_fract_z
  _atom_site_occupancy
  Cu  Cu1       1.0  0.42161  0.89114  1.00000  1.0000
  Cu  Cu2       1.0  0.57839  0.39114  0.50000  1.0000
  H   H1        1.0  0.18269  0.92532  0.19215  1.0000
  H   H2        1.0  0.81732  0.42532  0.30784  1.0000
  H   H3        1.0  0.18268  0.92532  0.80784  1.0000
  H   H4        1.0  0.81733  0.42532  0.69216  1.0000
  H   H5        1.0  0.15781  0.85356  0.28877  1.0000
  H   H6        1.0  0.84220  0.35356  0.21123  1.0000
  H   H7        1.0  0.15780  0.85356  0.71123  1.0000
  H   H8        1.0  0.84220  0.35356  0.78877  1.0000
  H   H9        1.0  0.85500  0.84727  0.20860  1.0000
  H   H10       1.0  0.14501  0.34726  0.29139  1.0000
  H   H11       1.0  0.85499  0.84727  0.79139  1.0000
  H   H12       1.0  0.14501  0.34726  0.70861  1.0000
  H   H13       1.0  0.57979  0.49908  0.18840  1.0000
  H   H14       1.0  0.42021  0.99908  0.31160  1.0000
  H   H15       1.0  0.57979  0.49908  0.81160  1.0000
  H   H16       1.0  0.42020  0.99908  0.68840  1.0000
  H   H17       1.0  0.91448  0.53608  0.12619  1.0000
  H   H18       1.0  0.08552  0.03608  0.37381  1.0000
  H   H19       1.0  0.91448  0.53608  0.87381  1.0000
  H   H20       1.0  0.08551  0.03608  0.62619  1.0000
  H   H21       1.0  0.55150  0.50194  0.07357  1.0000
  H   H22       1.0  0.44851  0.00194  0.42643  1.0000
  H   H23       1.0  0.55150  0.50194  0.92643  1.0000
  H   H24       1.0  0.44848  0.00194  0.57357  1.0000
  H   H25       1.0  0.93870  0.76694  1.00000  1.0000
  H   H26       1.0  0.06130  0.26694  0.50000  1.0000
  H   H27       1.0  0.92062  0.63865  1.00000  1.0000
  H   H28       1.0  0.07939  0.13865  0.50000  1.0000
  C   C1        1.0  0.11425  0.85553  0.21867  1.0000
  C   C2        1.0  0.88576  0.35552  0.28132  1.0000
  C   C3        1.0  0.11424  0.85552  0.78132  1.0000
  C   C4        1.0  0.88576  0.35552  0.71868  1.0000
  C   C5        1.0  0.29547  0.77802  0.17503  1.0000
  C   C6        1.0  0.70454  0.27802  0.32497  1.0000
  C   C7        1.0  0.29546  0.77802  0.82496  1.0000
  C   C8        1.0  0.70453  0.27802  0.67503  1.0000
  C   C9        1.0  0.34755  0.68241  0.20253  1.0000
  C   C10       1.0  0.65244  0.18241  0.29746  1.0000
  C   C11       1.0  0.34755  0.68241  0.79746  1.0000
  C   C12       1.0  0.65244  0.18241  0.70254  1.0000
  C   C13       1.0  0.53123  0.63851  0.13830  1.0000
  C   C14       1.0  0.46877  0.13851  0.36170  1.0000
  C   C15       1.0  0.53122  0.63851  0.86170  1.0000
  C   C16       1.0  0.46876  0.13851  0.63830  1.0000
  C   C17       1.0  0.65126  0.53895  0.13049  1.0000
  C   C18       1.0  0.34875  0.03895  0.36951  1.0000
  C   C19       1.0  0.65125  0.53895  0.86951  1.0000
  C   C20       1.0  0.34873  0.03895  0.63049  1.0000
  C   C21       1.0  0.77830  0.70433  1.00000  1.0000
  C   C22       1.0  0.22171  0.20433  0.50000  1.0000
  I   I1        1.0  0.20840  0.61926  0.31947  1.0000
  I   I2        1.0  0.79159  0.11926  0.18052  1.0000
  I   I3        1.0  0.20840  0.61926  0.68052  1.0000
  I   I4        1.0  0.79158  0.11926  0.81948  1.0000
  Br  Br1       1.0  0.93478  0.98726  1.00000  1.0000
  Br  Br2       1.0  0.06523  0.48726  0.50000  1.0000
  N   N1        1.0  0.44401  0.79274  0.09864  1.0000
  N   N2        1.0  0.55600  0.29274  0.40136  1.0000
  N   N3        1.0  0.44401  0.79274  0.90136  1.0000
  N   N4        1.0  0.55600  0.29274  0.59864  1.0000
  N   N5        1.0  0.58604  0.70776  0.07764  1.0000
  N   N6        1.0  0.41397  0.20776  0.42235  1.0000
  N   N7        1.0  0.58604  0.70776  0.92235  1.0000
  N   N8        1.0  0.41397  0.20776  0.57765  1.0000
