data_image0
_chemical_formula_structural       UZnH10C12O18
_chemical_formula_sum              "U1 Zn1 H10 C12 O18"
_cell_length_a       6.44287
_cell_length_b       8.39308
_cell_length_c       8.6022
_cell_angle_alpha    95.3617
_cell_angle_beta     93.3558
_cell_angle_gamma    104.03

_space_group_name_H-M_alt    "P 1"
_space_group_IT_number       1

loop_
  _space_group_symop_operation_xyz
  'x, y, z'

loop_
  _atom_site_type_symbol
  _atom_site_label
  _atom_site_symmetry_multiplicity
  _atom_site_fract_x
  _atom_site_fract_y
  _atom_site_fract_z
  _atom_site_occupancy
  U   U1        1.0  0.49998  0.49999  0.99998  1.0000
  Zn  Zn1       1.0  0.00002  0.50003  0.49996  1.0000
  H   H1        1.0  0.39621  0.54718  0.42744  1.0000
  H   H2        1.0  0.60419  0.45276  0.57289  1.0000
  H   H3        1.0  0.41692  0.68886  0.56774  1.0000
  H   H4        1.0  0.58307  0.31122  0.43239  1.0000
  H   H5        1.0  0.08952  0.65195  0.24507  1.0000
  H   H6        1.0  0.91049  0.34808  0.75490  1.0000
  H   H7        1.0  0.87512  0.67999  0.29693  1.0000
  H   H8        1.0  0.12485  0.32003  0.70297  1.0000
  H   H9        1.0  0.42083  0.05296  0.68851  1.0000
  H   H10       1.0  0.57913  0.94700  0.31149  1.0000
  C   C1        1.0  0.87376  0.71121  0.77027  1.0000
  C   C2        1.0  0.12624  0.28879  0.22970  1.0000
  C   C3        1.0  0.94227  0.86468  0.88585  1.0000
  C   C4        1.0  0.05770  0.13530  0.11415  1.0000
  C   C5        1.0  0.23754  0.74176  0.98614  1.0000
  C   C6        1.0  0.76244  0.25822  0.01383  1.0000
  C   C7        1.0  0.65699  0.97156  0.75505  1.0000
  C   C8        1.0  0.34300  0.02843  0.24495  1.0000
  C   C9        1.0  0.82643  0.98733  0.88696  1.0000
  C   C10       1.0  0.17354  0.01265  0.11303  1.0000
  C   C11       1.0  0.11818  0.87744  0.99531  1.0000
  C   C12       1.0  0.88180  0.12254  0.00468  1.0000
  O   O1        1.0  0.64536  0.88147  0.63182  1.0000
  O   O2        1.0  0.35463  0.11852  0.36816  1.0000
  O   O3        1.0  0.33920  0.57533  0.52691  1.0000
  O   O4        1.0  0.66074  0.42478  0.47318  1.0000
  O   O5        1.0  0.99981  0.69555  0.66773  1.0000
  O   O6        1.0  0.00019  0.30448  0.33224  1.0000
  O   O7        1.0  0.52320  0.06897  0.78120  1.0000
  O   O8        1.0  0.47677  0.93100  0.21879  1.0000
  O   O9        1.0  0.69991  0.60424  0.78952  1.0000
  O   O10       1.0  0.30009  0.39573  0.21042  1.0000
  O   O11       1.0  0.38260  0.74061  0.89349  1.0000
  O   O12       1.0  0.61738  0.25938  0.10649  1.0000
  O   O13       1.0  0.18878  0.62406  0.07186  1.0000
  O   O14       1.0  0.81119  0.37590  0.92811  1.0000
  O   O15       1.0  0.01875  0.67779  0.34105  1.0000
  O   O16       1.0  0.98121  0.32225  0.65889  1.0000
  O   O17       1.0  0.32781  0.34533  0.85568  1.0000
  O   O18       1.0  0.67214  0.65464  0.14426  1.0000
