data_image0
_chemical_formula_structural       Cu2H28C32N4O8
_chemical_formula_sum              "Cu2 H28 C32 N4 O8"
_cell_length_a       8.608
_cell_length_b       9.7278
_cell_length_c       10.1979
_cell_angle_alpha    92.2169
_cell_angle_beta     113.325
_cell_angle_gamma    111.689

_space_group_name_H-M_alt    "P 1"
_space_group_IT_number       1

loop_
  _space_group_symop_operation_xyz
  'x, y, z'

loop_
  _atom_site_type_symbol
  _atom_site_label
  _atom_site_symmetry_multiplicity
  _atom_site_fract_x
  _atom_site_fract_y
  _atom_site_fract_z
  _atom_site_occupancy
  Cu  Cu1       1.0  0.55299  0.62095  0.90148  1.0000
  Cu  Cu2       1.0  0.44702  0.37906  0.09852  1.0000
  H   H1        1.0  0.49331  0.90235  0.92905  1.0000
  H   H2        1.0  0.50669  0.09766  0.07094  1.0000
  H   H3        1.0  0.28590  0.01060  0.75809  1.0000
  H   H4        1.0  0.71410  0.98940  0.24191  1.0000
  H   H5        1.0  0.10253  0.87894  0.49124  1.0000
  H   H6        1.0  0.89747  0.12106  0.50876  1.0000
  H   H7        1.0  0.11779  0.64096  0.41063  1.0000
  H   H8        1.0  0.88220  0.35904  0.58937  1.0000
  H   H9        1.0  0.14030  0.43623  0.36409  1.0000
  H   H10       1.0  0.85969  0.56376  0.63591  1.0000
  H   H11       1.0  0.17786  0.19426  0.33765  1.0000
  H   H12       1.0  0.82213  0.80574  0.66235  1.0000
  H   H13       1.0  0.39184  0.13819  0.55667  1.0000
  H   H14       1.0  0.60815  0.86181  0.44334  1.0000
  H   H15       1.0  0.54736  0.32046  0.80017  1.0000
  H   H16       1.0  0.45263  0.67953  0.19983  1.0000
  H   H17       1.0  0.23637  0.90372  0.26616  1.0000
  H   H18       1.0  0.76364  0.09628  0.73384  1.0000
  H   H19       1.0  0.22419  0.71900  0.22366  1.0000
  H   H20       1.0  0.77582  0.28100  0.77634  1.0000
  H   H21       1.0  0.23018  0.94877  0.02601  1.0000
  H   H22       1.0  0.76982  0.05123  0.97400  1.0000
  H   H23       1.0  0.23664  0.76999  0.99105  1.0000
  H   H24       1.0  0.76337  0.23002  0.00895  1.0000
  H   H25       1.0  0.89777  0.64529  0.87693  1.0000
  H   H26       1.0  0.10224  0.35471  0.12307  1.0000
  H   H27       1.0  0.88984  0.82562  0.90010  1.0000
  H   H28       1.0  0.11016  0.17437  0.09990  1.0000
  C   C1        1.0  0.40766  0.85043  0.81317  1.0000
  C   C2        1.0  0.59234  0.14957  0.18682  1.0000
  C   C3        1.0  0.29563  0.91034  0.71730  1.0000
  C   C4        1.0  0.70437  0.08966  0.28269  1.0000
  C   C5        1.0  0.19120  0.83536  0.57046  1.0000
  C   C6        1.0  0.80880  0.16464  0.42953  1.0000
  C   C7        1.0  0.20013  0.70265  0.52453  1.0000
  C   C8        1.0  0.79985  0.29735  0.47547  1.0000
  C   C9        1.0  0.31301  0.64777  0.62739  1.0000
  C   C10       1.0  0.68698  0.35222  0.37261  1.0000
  C   C11       1.0  0.32703  0.50512  0.59553  1.0000
  C   C12       1.0  0.67297  0.49488  0.40447  1.0000
  C   C13       1.0  0.23258  0.40852  0.45743  1.0000
  C   C14       1.0  0.76741  0.59148  0.54257  1.0000
  C   C15       1.0  0.25482  0.27476  0.44251  1.0000
  C   C16       1.0  0.74516  0.72524  0.55749  1.0000
  C   C17       1.0  0.37163  0.24165  0.56464  1.0000
  C   C18       1.0  0.62837  0.75835  0.43536  1.0000
  C   C19       1.0  0.45962  0.34172  0.69948  1.0000
  C   C20       1.0  0.54037  0.65828  0.30053  1.0000
  C   C21       1.0  0.85531  0.56968  0.11015  1.0000
  C   C22       1.0  0.14469  0.43032  0.88985  1.0000
  C   C23       1.0  0.87055  0.82788  0.15347  1.0000
  C   C24       1.0  0.12946  0.17212  0.84653  1.0000
  C   C25       1.0  0.95667  0.73447  0.10604  1.0000
  C   C26       1.0  0.04333  0.26553  0.89396  1.0000
  C   C27       1.0  0.17156  0.80217  0.17956  1.0000
  C   C28       1.0  0.82845  0.19783  0.82045  1.0000
  C   C29       1.0  0.17236  0.82927  0.03100  1.0000
  C   C30       1.0  0.82765  0.17073  0.96901  1.0000
  C   C31       1.0  0.95679  0.75333  0.95365  1.0000
  C   C32       1.0  0.04322  0.24667  0.04635  1.0000
  N   N1        1.0  0.41645  0.72338  0.76909  1.0000
  N   N2        1.0  0.58355  0.27662  0.23090  1.0000
  N   N3        1.0  0.43734  0.46981  0.71388  1.0000
  N   N4        1.0  0.56265  0.53019  0.28612  1.0000
  O   O1        1.0  0.67809  0.50330  0.01791  1.0000
  O   O2        1.0  0.32191  0.49671  0.98209  1.0000
  O   O3        1.0  0.93620  0.50336  0.19469  1.0000
  O   O4        1.0  0.06380  0.49664  0.80531  1.0000
  O   O5        1.0  0.69645  0.79548  0.06796  1.0000
  O   O6        1.0  0.30356  0.20453  0.93204  1.0000
  O   O7        1.0  0.96470  0.92916  0.26722  1.0000
  O   O8        1.0  0.03531  0.07084  0.73278  1.0000
