data_image0
_chemical_formula_structural       Fe2H20C28S4N8
_chemical_formula_sum              "Fe2 H20 C28 S4 N8"
_cell_length_a       9.10037
_cell_length_b       9.43472
_cell_length_c       10.1064
_cell_angle_alpha    115.118
_cell_angle_beta     109.499
_cell_angle_gamma    93.4467

_space_group_name_H-M_alt    "P 1"
_space_group_IT_number       1

loop_
  _space_group_symop_operation_xyz
  'x, y, z'

loop_
  _atom_site_type_symbol
  _atom_site_label
  _atom_site_symmetry_multiplicity
  _atom_site_fract_x
  _atom_site_fract_y
  _atom_site_fract_z
  _atom_site_occupancy
  Fe  Fe1       1.0  0.99065  0.49213  0.00324  1.0000
  Fe  Fe2       1.0  0.49200  0.99237  0.50214  1.0000
  H   H1        1.0  0.34197  0.51172  0.15460  1.0000
  H   H2        1.0  0.64637  0.48674  0.84594  1.0000
  H   H3        1.0  0.52273  0.32693  0.14519  1.0000
  H   H4        1.0  0.47533  0.67943  0.85099  1.0000
  H   H5        1.0  0.11024  0.93593  0.78569  1.0000
  H   H6        1.0  0.89593  0.06041  0.21112  1.0000
  H   H7        1.0  0.94530  0.13785  0.80977  1.0000
  H   H8        1.0  0.05111  0.85099  0.19037  1.0000
  H   H9        1.0  0.35769  0.86793  0.85965  1.0000
  H   H10       1.0  0.64968  0.13688  0.13672  1.0000
  H   H11       1.0  0.64846  0.87266  0.72927  1.0000
  H   H12       1.0  0.35034  0.12084  0.27573  1.0000
  H   H13       1.0  0.83733  0.69800  0.75584  1.0000
  H   H14       1.0  0.16844  0.30157  0.24854  1.0000
  H   H15       1.0  0.85812  0.63892  0.31409  1.0000
  H   H16       1.0  0.14049  0.36588  0.68925  1.0000
  H   H17       1.0  0.67245  0.81784  0.30783  1.0000
  H   H18       1.0  0.31903  0.18134  0.69597  1.0000
  H   H19       1.0  0.99744  0.53352  0.66195  1.0000
  H   H20       1.0  0.00448  0.46747  0.33910  1.0000
  C   C1        1.0  0.29506  0.38303  0.07459  1.0000
  C   C2        1.0  0.69712  0.61508  0.92531  1.0000
  C   C3        1.0  0.39547  0.27785  0.06859  1.0000
  C   C4        1.0  0.60247  0.72492  0.92836  1.0000
  C   C5        1.0  0.33232  0.11124  0.96481  1.0000
  C   C6        1.0  0.67047  0.89097  0.03184  1.0000
  C   C7        1.0  0.16668  0.06266  0.86944  1.0000
  C   C8        1.0  0.83565  0.93441  0.12782  1.0000
  C   C9        1.0  0.07343  0.17459  0.88243  1.0000
  C   C10       1.0  0.92328  0.81790  0.11751  1.0000
  C   C11       1.0  0.42509  0.98999  0.95162  1.0000
  C   C12       1.0  0.58141  0.01522  0.04398  1.0000
  C   C13       1.0  0.69794  0.81864  0.64017  1.0000
  C   C14       1.0  0.30060  0.17719  0.36415  1.0000
  C   C15       1.0  0.80302  0.72072  0.65386  1.0000
  C   C16       1.0  0.19954  0.27872  0.35033  1.0000
  C   C17       1.0  0.86412  0.64918  0.53630  1.0000
  C   C18       1.0  0.13744  0.35255  0.46670  1.0000
  C   C19       1.0  0.81539  0.68674  0.40943  1.0000
  C   C20       1.0  0.18308  0.31571  0.59403  1.0000
  C   C21       1.0  0.71086  0.78687  0.40427  1.0000
  C   C22       1.0  0.28354  0.21201  0.59925  1.0000
  C   C23       1.0  0.97037  0.54414  0.55356  1.0000
  C   C24       1.0  0.03266  0.45865  0.44844  1.0000
  C   C25       1.0  0.19605  0.70329  0.35509  1.0000
  C   C26       1.0  0.80868  0.30142  0.64197  1.0000
  C   C27       1.0  0.68280  0.21219  0.85483  1.0000
  C   C28       1.0  0.32252  0.79125  0.14105  1.0000
  S   S1        1.0  0.31600  0.83585  0.53699  1.0000
  S   S2        1.0  0.70588  0.18461  0.45296  1.0000
  S   S3        1.0  0.81268  0.33712  0.03598  1.0000
  S   S4        1.0  0.20730  0.67984  0.95376  1.0000
  N   N1        1.0  0.13461  0.33406  0.98481  1.0000
  N   N2        1.0  0.85659  0.65859  0.01790  1.0000
  N   N3        1.0  0.64989  0.85225  0.51672  1.0000
  N   N4        1.0  0.34321  0.14199  0.48664  1.0000
  N   N5        1.0  0.11137  0.61082  0.22137  1.0000
  N   N6        1.0  0.88325  0.38520  0.78030  1.0000
  N   N7        1.0  0.59563  0.12484  0.72063  1.0000
  N   N8        1.0  0.40095  0.87034  0.27918  1.0000
