data_image0
_chemical_formula_structural       Zn2H28C52N8O8
_chemical_formula_sum              "Zn2 H28 C52 N8 O8"
_cell_length_a       5.71727
_cell_length_b       10.8004
_cell_length_c       16.7917
_cell_angle_alpha    90.9976
_cell_angle_beta     81.1175
_cell_angle_gamma    73.9082

_space_group_name_H-M_alt    "P 1"
_space_group_IT_number       1

loop_
  _space_group_symop_operation_xyz
  'x, y, z'

loop_
  _atom_site_type_symbol
  _atom_site_label
  _atom_site_symmetry_multiplicity
  _atom_site_fract_x
  _atom_site_fract_y
  _atom_site_fract_z
  _atom_site_occupancy
  Zn  Zn1       1.0  0.74218  0.49357  0.38250  1.0000
  Zn  Zn2       1.0  0.25782  0.50643  0.61750  1.0000
  H   H1        1.0  0.33242  0.59801  0.27509  1.0000
  H   H2        1.0  0.66758  0.40199  0.72491  1.0000
  H   H3        1.0  0.30729  0.59049  0.12806  1.0000
  H   H4        1.0  0.69271  0.40952  0.87195  1.0000
  H   H5        1.0  0.67471  0.44976  0.03102  1.0000
  H   H6        1.0  0.32529  0.55025  0.96898  1.0000
  H   H7        1.0  0.27486  0.33872  0.42198  1.0000
  H   H8        1.0  0.72514  0.66128  0.57802  1.0000
  H   H9        1.0  0.65897  0.18592  0.34587  1.0000
  H   H10       1.0  0.34104  0.81408  0.65414  1.0000
  H   H11       1.0  0.68522  0.13850  0.19527  1.0000
  H   H12       1.0  0.31480  0.86150  0.80473  1.0000
  H   H13       1.0  0.14248  0.24294  0.83859  1.0000
  H   H14       1.0  0.85752  0.75705  0.16141  1.0000
  H   H15       1.0  0.52174  0.11360  0.75092  1.0000
  H   H16       1.0  0.47825  0.88638  0.24908  1.0000
  H   H17       1.0  0.90061  0.01289  0.80827  1.0000
  H   H18       1.0  0.09938  0.98709  0.19174  1.0000
  H   H19       1.0  0.90658  0.04334  0.95496  1.0000
  H   H20       1.0  0.09343  0.95666  0.04504  1.0000
  H   H21       1.0  0.54674  0.14325  0.50669  1.0000
  H   H22       1.0  0.45326  0.85676  0.49331  1.0000
  H   H23       1.0  0.64440  0.93136  0.56924  1.0000
  H   H24       1.0  0.35559  0.06865  0.43076  1.0000
  H   H25       1.0  0.95289  0.88352  0.66106  1.0000
  H   H26       1.0  0.04711  0.11648  0.33894  1.0000
  H   H27       1.0  0.16364  0.05093  0.69162  1.0000
  H   H28       1.0  0.83635  0.94907  0.30838  1.0000
  C   C1        1.0  0.48865  0.54207  0.23136  1.0000
  C   C2        1.0  0.51135  0.45793  0.76864  1.0000
  C   C3        1.0  0.47565  0.53599  0.14866  1.0000
  C   C4        1.0  0.52435  0.46401  0.85134  1.0000
  C   C5        1.0  0.67588  0.45995  0.09555  1.0000
  C   C6        1.0  0.32413  0.54005  0.90445  1.0000
  C   C7        1.0  0.88946  0.39279  0.12539  1.0000
  C   C8        1.0  0.11054  0.60721  0.87461  1.0000
  C   C9        1.0  0.88989  0.40817  0.20880  1.0000
  C   C10       1.0  0.11010  0.59184  0.79120  1.0000
  C   C11       1.0  0.10924  0.34577  0.24284  1.0000
  C   C12       1.0  0.89074  0.65423  0.75716  1.0000
  C   C13       1.0  0.29239  0.31477  0.35756  1.0000
  C   C14       1.0  0.70759  0.68524  0.64245  1.0000
  C   C15       1.0  0.50703  0.22895  0.31405  1.0000
  C   C16       1.0  0.49295  0.77105  0.68595  1.0000
  C   C17       1.0  0.52170  0.20343  0.23194  1.0000
  C   C18       1.0  0.47832  0.79657  0.76806  1.0000
  C   C19       1.0  0.32020  0.26356  0.19405  1.0000
  C   C20       1.0  0.67979  0.73644  0.80596  1.0000
  C   C21       1.0  0.32287  0.24597  0.10761  1.0000
  C   C22       1.0  0.67712  0.75403  0.89239  1.0000
  C   C23       1.0  0.10686  0.30910  0.07365  1.0000
  C   C24       1.0  0.89314  0.69090  0.92635  1.0000
  C   C25       1.0  0.30491  0.21696  0.94825  1.0000
  C   C26       1.0  0.69510  0.78305  0.05175  1.0000
  C   C27       1.0  0.30645  0.19735  0.86444  1.0000
  C   C28       1.0  0.69356  0.80264  0.13556  1.0000
  C   C29       1.0  0.51854  0.12515  0.81572  1.0000
  C   C30       1.0  0.48146  0.87483  0.18429  1.0000
  C   C31       1.0  0.73536  0.06882  0.84851  1.0000
  C   C32       1.0  0.26464  0.93118  0.15150  1.0000
  C   C33       1.0  0.74002  0.08511  0.92961  1.0000
  C   C34       1.0  0.25999  0.91490  0.07039  1.0000
  C   C35       1.0  0.52500  0.15887  0.98176  1.0000
  C   C36       1.0  0.47500  0.84113  0.01825  1.0000
  C   C37       1.0  0.73114  0.34148  0.52663  1.0000
  C   C38       1.0  0.26887  0.65852  0.47335  1.0000
  C   C39       1.0  0.80155  0.21344  0.56298  1.0000
  C   C40       1.0  0.19844  0.78657  0.43701  1.0000
  C   C41       1.0  0.68424  0.12053  0.54641  1.0000
  C   C42       1.0  0.31575  0.87947  0.45358  1.0000
  C   C43       1.0  0.73702  0.00302  0.58221  1.0000
  C   C44       1.0  0.26298  0.99698  0.41779  1.0000
  C   C45       1.0  0.91078  0.97666  0.63424  1.0000
  C   C46       1.0  0.08923  0.02334  0.36575  1.0000
  C   C47       1.0  0.02818  0.06894  0.65092  1.0000
  C   C48       1.0  0.97183  0.93106  0.34908  1.0000
  C   C49       1.0  0.97470  0.18811  0.61576  1.0000
  C   C50       1.0  0.02530  0.81190  0.38423  1.0000
  C   C51       1.0  0.09462  0.28872  0.63775  1.0000
  C   C52       1.0  0.90539  0.71127  0.36225  1.0000
  N   N1        1.0  0.69014  0.47935  0.26045  1.0000
  N   N2        1.0  0.30985  0.52065  0.73955  1.0000
  N   N3        1.0  0.09970  0.37124  0.32227  1.0000
  N   N4        1.0  0.90028  0.62877  0.67773  1.0000
  N   N5        1.0  0.09984  0.29322  0.99533  1.0000
  N   N6        1.0  0.90014  0.70678  0.00467  1.0000
  N   N7        1.0  0.52855  0.17410  0.06168  1.0000
  N   N8        1.0  0.47146  0.82590  0.93833  1.0000
  O   O1        1.0  0.77009  0.33758  0.44974  1.0000
  O   O2        1.0  0.22989  0.66242  0.55025  1.0000
  O   O3        1.0  0.63601  0.44225  0.57352  1.0000
  O   O4        1.0  0.36397  0.55775  0.42647  1.0000
  O   O5        1.0  0.16863  0.35281  0.57904  1.0000
  O   O6        1.0  0.83135  0.64720  0.42095  1.0000
  O   O7        1.0  0.11140  0.30605  0.71027  1.0000
  O   O8        1.0  0.88865  0.69395  0.28972  1.0000
