data_image0
_chemical_formula_structural       Na4H48C28N20O24
_chemical_formula_sum              "Na4 H48 C28 N20 O24"
_cell_length_a       7.36724
_cell_length_b       9.59437
_cell_length_c       17.4879
_cell_angle_alpha    90.0009
_cell_angle_beta     99.5215
_cell_angle_gamma    90

_space_group_name_H-M_alt    "P 1"
_space_group_IT_number       1

loop_
  _space_group_symop_operation_xyz
  'x, y, z'

loop_
  _atom_site_type_symbol
  _atom_site_label
  _atom_site_symmetry_multiplicity
  _atom_site_fract_x
  _atom_site_fract_y
  _atom_site_fract_z
  _atom_site_occupancy
  Na  Na1       1.0  0.33334  0.14199  0.47445  1.0000
  Na  Na2       1.0  0.16666  0.64199  0.52555  1.0000
  Na  Na3       1.0  0.66666  0.85801  0.52555  1.0000
  Na  Na4       1.0  0.83334  0.35801  0.47445  1.0000
  H   H1        1.0  0.26021  0.10995  0.01595  1.0000
  H   H2        1.0  0.23979  0.60995  0.98405  1.0000
  H   H3        1.0  0.73979  0.89004  0.98405  1.0000
  H   H4        1.0  0.76021  0.39005  0.01595  1.0000
  H   H5        1.0  0.32436  0.80592  0.90574  1.0000
  H   H6        1.0  0.17564  0.30592  0.09425  1.0000
  H   H7        1.0  0.67564  0.19408  0.09426  1.0000
  H   H8        1.0  0.82436  0.69408  0.90574  1.0000
  H   H9        1.0  0.35298  0.99010  0.91146  1.0000
  H   H10       1.0  0.14702  0.49010  0.08854  1.0000
  H   H11       1.0  0.64703  0.00990  0.08854  1.0000
  H   H12       1.0  0.85298  0.50989  0.91145  1.0000
  H   H13       1.0  0.86318  0.89403  0.27873  1.0000
  H   H14       1.0  0.63681  0.39403  0.72127  1.0000
  H   H15       1.0  0.13682  0.10596  0.72127  1.0000
  H   H16       1.0  0.36318  0.60597  0.27873  1.0000
  H   H17       1.0  0.96415  0.03889  0.23792  1.0000
  H   H18       1.0  0.53585  0.53888  0.76208  1.0000
  H   H19       1.0  0.03586  0.96110  0.76207  1.0000
  H   H20       1.0  0.46415  0.46112  0.23792  1.0000
  H   H21       1.0  0.97239  0.64463  0.23941  1.0000
  H   H22       1.0  0.52760  0.14463  0.76058  1.0000
  H   H23       1.0  0.02760  0.35536  0.76058  1.0000
  H   H24       1.0  0.47241  0.85538  0.23942  1.0000
  H   H25       1.0  0.29334  0.27444  0.31133  1.0000
  H   H26       1.0  0.20666  0.77445  0.68867  1.0000
  H   H27       1.0  0.70665  0.72556  0.68868  1.0000
  H   H28       1.0  0.79334  0.22556  0.31134  1.0000
  H   H29       1.0  0.52796  0.37672  0.55936  1.0000
  H   H30       1.0  0.97204  0.87672  0.44065  1.0000
  H   H31       1.0  0.47204  0.62328  0.44065  1.0000
  H   H32       1.0  0.02796  0.12328  0.55935  1.0000
  H   H33       1.0  0.51770  0.03114  0.61803  1.0000
  H   H34       1.0  0.98230  0.53114  0.38197  1.0000
  H   H35       1.0  0.48230  0.96885  0.38197  1.0000
  H   H36       1.0  0.01769  0.46886  0.61803  1.0000
  H   H37       1.0  0.35227  0.92066  0.60686  1.0000
  H   H38       1.0  0.14773  0.42066  0.39314  1.0000
  H   H39       1.0  0.64773  0.07934  0.39314  1.0000
  H   H40       1.0  0.85227  0.57934  0.60686  1.0000
  H   H41       1.0  0.62913  0.23576  0.58473  1.0000
  H   H42       1.0  0.87087  0.73576  0.41527  1.0000
  H   H43       1.0  0.37087  0.76425  0.41527  1.0000
  H   H44       1.0  0.12913  0.26425  0.58474  1.0000
  H   H45       1.0  0.42470  0.37211  0.36998  1.0000
  H   H46       1.0  0.07530  0.87210  0.63002  1.0000
  H   H47       1.0  0.57529  0.62790  0.63002  1.0000
  H   H48       1.0  0.92470  0.12790  0.36999  1.0000
  C   C1        1.0  0.24499  0.89184  0.00081  1.0000
  C   C2        1.0  0.25501  0.39184  0.99918  1.0000
  C   C3        1.0  0.75501  0.10815  0.99918  1.0000
  C   C4        1.0  0.74499  0.60816  0.00081  1.0000
  C   C5        1.0  0.13572  0.77013  0.09454  1.0000
  C   C6        1.0  0.36429  0.27013  0.90546  1.0000
  C   C7        1.0  0.86428  0.22986  0.90546  1.0000
  C   C8        1.0  0.63572  0.72987  0.09454  1.0000
  C   C9        1.0  0.99050  0.93323  0.26135  1.0000
  C   C10       1.0  0.50950  0.43323  0.73865  1.0000
  C   C11       1.0  0.00949  0.06677  0.73865  1.0000
  C   C12       1.0  0.49051  0.56678  0.26135  1.0000
  C   C13       1.0  0.13939  0.94043  0.33344  1.0000
  C   C14       1.0  0.36061  0.44043  0.66656  1.0000
  C   C15       1.0  0.86061  0.05956  0.66656  1.0000
  C   C16       1.0  0.63939  0.55957  0.33344  1.0000
  C   C17       1.0  0.10914  0.89119  0.13590  1.0000
  C   C18       1.0  0.39087  0.39119  0.86409  1.0000
  C   C19       1.0  0.89086  0.10880  0.86409  1.0000
  C   C20       1.0  0.60914  0.60882  0.13590  1.0000
  C   C21       1.0  0.02867  0.70507  0.19626  1.0000
  C   C22       1.0  0.47133  0.20506  0.80373  1.0000
  C   C23       1.0  0.97133  0.29493  0.80373  1.0000
  C   C24       1.0  0.52868  0.79494  0.19627  1.0000
  C   C25       1.0  0.16237  0.02395  0.11113  1.0000
  C   C26       1.0  0.33763  0.52394  0.88887  1.0000
  C   C27       1.0  0.83763  0.97605  0.88887  1.0000
  C   C28       1.0  0.66237  0.47606  0.11113  1.0000
  N   N1        1.0  0.22497  0.01412  0.04022  1.0000
  N   N2        1.0  0.27503  0.51413  0.95977  1.0000
  N   N3        1.0  0.77503  0.98587  0.95977  1.0000
  N   N4        1.0  0.72497  0.48587  0.04022  1.0000
  N   N5        1.0  0.08692  0.65475  0.13351  1.0000
  N   N6        1.0  0.41308  0.15475  0.86649  1.0000
  N   N7        1.0  0.91308  0.34524  0.86649  1.0000
  N   N8        1.0  0.58693  0.84525  0.13351  1.0000
  N   N9        1.0  0.20167  0.76706  0.02720  1.0000
  N   N10       1.0  0.29833  0.26706  0.97279  1.0000
  N   N11       1.0  0.79833  0.23294  0.97280  1.0000
  N   N12       1.0  0.70167  0.73294  0.02720  1.0000
  N   N13       1.0  0.03848  0.84657  0.20045  1.0000
  N   N14       1.0  0.46151  0.34657  0.79955  1.0000
  N   N15       1.0  0.96152  0.15342  0.79955  1.0000
  N   N16       1.0  0.53849  0.65343  0.20045  1.0000
  N   N17       1.0  0.31078  0.89847  0.93415  1.0000
  N   N18       1.0  0.18922  0.39847  0.06585  1.0000
  N   N19       1.0  0.68923  0.10153  0.06585  1.0000
  N   N20       1.0  0.81078  0.60153  0.93415  1.0000
  O   O1        1.0  0.09935  0.01444  0.38925  1.0000
  O   O2        1.0  0.40064  0.51444  0.61075  1.0000
  O   O3        1.0  0.90065  0.98555  0.61075  1.0000
  O   O4        1.0  0.59934  0.48556  0.38925  1.0000
  O   O5        1.0  0.28770  0.87334  0.33465  1.0000
  O   O6        1.0  0.21229  0.37335  0.66535  1.0000
  O   O7        1.0  0.71230  0.12665  0.66535  1.0000
  O   O8        1.0  0.78770  0.62666  0.33465  1.0000
  O   O9        1.0  0.15840  0.13849  0.14587  1.0000
  O   O10       1.0  0.34161  0.63848  0.85414  1.0000
  O   O11       1.0  0.84160  0.86151  0.85413  1.0000
  O   O12       1.0  0.65839  0.36151  0.14586  1.0000
  O   O13       1.0  0.57674  0.29175  0.53868  1.0000
  O   O14       1.0  0.92327  0.79175  0.46133  1.0000
  O   O15       1.0  0.42326  0.70825  0.46133  1.0000
  O   O16       1.0  0.07674  0.20825  0.53867  1.0000
  O   O17       1.0  0.42848  0.98140  0.57906  1.0000
  O   O18       1.0  0.07152  0.48140  0.42094  1.0000
  O   O19       1.0  0.57151  0.01860  0.42094  1.0000
  O   O20       1.0  0.92848  0.51861  0.57907  1.0000
  O   O21       1.0  0.31422  0.30876  0.36444  1.0000
  O   O22       1.0  0.18578  0.80876  0.63556  1.0000
  O   O23       1.0  0.68577  0.69125  0.63556  1.0000
  O   O24       1.0  0.81422  0.19123  0.36445  1.0000
