data_image0
_chemical_formula_structural       CdH18C26S2N4O2
_chemical_formula_sum              "Cd1 H18 C26 S2 N4 O2"
_cell_length_a       5.8269
_cell_length_b       7.55061
_cell_length_c       13.5903
_cell_angle_alpha    104.922
_cell_angle_beta     92.7342
_cell_angle_gamma    93.9273

_space_group_name_H-M_alt    "P 1"
_space_group_IT_number       1

loop_
  _space_group_symop_operation_xyz
  'x, y, z'

loop_
  _atom_site_type_symbol
  _atom_site_label
  _atom_site_symmetry_multiplicity
  _atom_site_fract_x
  _atom_site_fract_y
  _atom_site_fract_z
  _atom_site_occupancy
  Cd  Cd1       1.0  0.00001  0.49999  0.50000  1.0000
  H   H1        1.0  0.56067  0.25494  0.35549  1.0000
  H   H2        1.0  0.43932  0.74507  0.64451  1.0000
  H   H3        1.0  0.37137  0.20029  0.18036  1.0000
  H   H4        1.0  0.62862  0.79971  0.81963  1.0000
  H   H5        1.0  0.98465  0.46879  0.09773  1.0000
  H   H6        1.0  0.01535  0.53121  0.90227  1.0000
  H   H7        1.0  0.14122  0.52331  0.27809  1.0000
  H   H8        1.0  0.85877  0.47669  0.72191  1.0000
  H   H9        1.0  0.95696  0.14482  0.00749  1.0000
  H   H10       1.0  0.04303  0.85516  0.99250  1.0000
  H   H11       1.0  0.14654  0.00428  0.85076  1.0000
  H   H12       1.0  0.85345  0.99569  0.14922  1.0000
  H   H13       1.0  0.96253  0.99791  0.68032  1.0000
  H   H14       1.0  0.03746  0.00210  0.31967  1.0000
  H   H15       1.0  0.58702  0.12844  0.66791  1.0000
  H   H16       1.0  0.41298  0.87159  0.33209  1.0000
  H   H17       1.0  0.39669  0.27319  0.82642  1.0000
  H   H18       1.0  0.60331  0.72683  0.17358  1.0000
  C   C1        1.0  0.48563  0.29506  0.53562  1.0000
  C   C2        1.0  0.51439  0.70496  0.46439  1.0000
  C   C3        1.0  0.64815  0.30118  0.29642  1.0000
  C   C4        1.0  0.35184  0.69881  0.70358  1.0000
  C   C5        1.0  0.54369  0.27023  0.19870  1.0000
  C   C6        1.0  0.45631  0.72977  0.80130  1.0000
  C   C7        1.0  0.66333  0.32800  0.12412  1.0000
  C   C8        1.0  0.33666  0.67199  0.87588  1.0000
  C   C9        1.0  0.88352  0.41941  0.15202  1.0000
  C   C10       1.0  0.11648  0.58058  0.84798  1.0000
  C   C11       1.0  0.97297  0.44894  0.25240  1.0000
  C   C12       1.0  0.02702  0.55105  0.74759  1.0000
  C   C13       1.0  0.54311  0.29696  0.01992  1.0000
  C   C14       1.0  0.45690  0.70304  0.98008  1.0000
  C   C15       1.0  0.66478  0.21949  0.92739  1.0000
  C   C16       1.0  0.33522  0.78051  0.07261  1.0000
  C   C17       1.0  0.87539  0.14215  0.93349  1.0000
  C   C18       1.0  0.12460  0.85784  0.06651  1.0000
  C   C19       1.0  0.98221  0.06264  0.84505  1.0000
  C   C20       1.0  0.01778  0.93735  0.15495  1.0000
  C   C21       1.0  0.87962  0.05943  0.74974  1.0000
  C   C22       1.0  0.12036  0.94057  0.25026  1.0000
  C   C23       1.0  0.66776  0.13416  0.74269  1.0000
  C   C24       1.0  0.33224  0.86584  0.25732  1.0000
  C   C25       1.0  0.56116  0.21422  0.83067  1.0000
  C   C26       1.0  0.43884  0.78579  0.16933  1.0000
  S   S1        1.0  0.22719  0.19133  0.51885  1.0000
  S   S2        1.0  0.77284  0.80868  0.48116  1.0000
  N   N1        1.0  0.67461  0.36965  0.55000  1.0000
  N   N2        1.0  0.32541  0.63037  0.45001  1.0000
  N   N3        1.0  0.85914  0.38989  0.32336  1.0000
  N   N4        1.0  0.14085  0.61011  0.67664  1.0000
  O   O1        1.0  0.33972  0.33341  0.01494  1.0000
  O   O2        1.0  0.66027  0.66659  0.98506  1.0000
