data_image0
_chemical_formula_structural       Cd2H16C16S4N12O4
_chemical_formula_sum              "Cd2 H16 C16 S4 N12 O4"
_cell_length_a       6.77217
_cell_length_b       8.35148
_cell_length_c       12.7936
_cell_angle_alpha    100.698
_cell_angle_beta     89.9973
_cell_angle_gamma    90.0035

_space_group_name_H-M_alt    "P 1"
_space_group_IT_number       1

loop_
  _space_group_symop_operation_xyz
  'x, y, z'

loop_
  _atom_site_type_symbol
  _atom_site_label
  _atom_site_symmetry_multiplicity
  _atom_site_fract_x
  _atom_site_fract_y
  _atom_site_fract_z
  _atom_site_occupancy
  Cd  Cd1       1.0  0.00001  0.50000  0.00000  1.0000
  Cd  Cd2       1.0  0.50000  0.00000  0.50000  1.0000
  H   H1        1.0  0.06717  0.54238  0.22743  1.0000
  H   H2        1.0  0.56718  0.95762  0.27257  1.0000
  H   H3        1.0  0.93283  0.45762  0.77257  1.0000
  H   H4        1.0  0.43283  0.04237  0.72744  1.0000
  H   H5        1.0  0.23451  0.63380  0.17369  1.0000
  H   H6        1.0  0.73451  0.86621  0.32631  1.0000
  H   H7        1.0  0.76550  0.36620  0.82632  1.0000
  H   H8        1.0  0.26550  0.13380  0.67370  1.0000
  H   H9        1.0  0.89247  0.08442  0.20576  1.0000
  H   H10       1.0  0.39247  0.41563  0.29423  1.0000
  H   H11       1.0  0.10752  0.91559  0.79424  1.0000
  H   H12       1.0  0.60751  0.58436  0.70577  1.0000
  H   H13       1.0  0.86319  0.29572  0.22876  1.0000
  H   H14       1.0  0.36319  0.20429  0.27124  1.0000
  H   H15       1.0  0.13679  0.70428  0.77124  1.0000
  H   H16       1.0  0.63680  0.79571  0.72876  1.0000
  C   C1        1.0  0.80054  0.88160  0.03845  1.0000
  C   C2        1.0  0.30054  0.61842  0.46155  1.0000
  C   C3        1.0  0.19947  0.11840  0.96155  1.0000
  C   C4        1.0  0.69945  0.38159  0.53846  1.0000
  C   C5        1.0  0.67909  0.02870  0.90753  1.0000
  C   C6        1.0  0.17910  0.47129  0.59248  1.0000
  C   C7        1.0  0.32092  0.97130  0.09247  1.0000
  C   C8        1.0  0.82090  0.52872  0.40753  1.0000
  C   C9        1.0  0.75086  0.03086  0.01041  1.0000
  C   C10       1.0  0.25086  0.46914  0.48959  1.0000
  C   C11       1.0  0.24915  0.96913  0.98959  1.0000
  C   C12       1.0  0.74913  0.53086  0.51042  1.0000
  C   C13       1.0  0.77325  0.18211  0.08234  1.0000
  C   C14       1.0  0.27326  0.31789  0.41765  1.0000
  C   C15       1.0  0.22675  0.81789  0.91765  1.0000
  C   C16       1.0  0.72673  0.68211  0.58236  1.0000
  S   S1        1.0  0.68216  0.35769  0.04810  1.0000
  S   S2        1.0  0.18215  0.14229  0.45189  1.0000
  S   S3        1.0  0.31785  0.64231  0.95189  1.0000
  S   S4        1.0  0.81784  0.85771  0.54811  1.0000
  N   N1        1.0  0.84287  0.75923  0.06536  1.0000
  N   N2        1.0  0.34288  0.74080  0.43464  1.0000
  N   N3        1.0  0.15714  0.24078  0.93464  1.0000
  N   N4        1.0  0.65712  0.25919  0.56536  1.0000
  N   N5        1.0  0.62260  0.01972  0.81989  1.0000
  N   N6        1.0  0.12261  0.48028  0.68011  1.0000
  N   N7        1.0  0.37741  0.98027  0.18010  1.0000
  N   N8        1.0  0.87739  0.51973  0.31989  1.0000
  N   N9        1.0  0.85883  0.18688  0.17692  1.0000
  N   N10       1.0  0.35884  0.31315  0.32306  1.0000
  N   N11       1.0  0.14117  0.81313  0.82307  1.0000
  N   N12       1.0  0.64115  0.68685  0.67694  1.0000
  O   O1        1.0  0.17077  0.52828  0.17113  1.0000
  O   O2        1.0  0.67077  0.97172  0.32887  1.0000
  O   O3        1.0  0.82923  0.47172  0.82888  1.0000
  O   O4        1.0  0.32923  0.02828  0.67113  1.0000
