data_image0
_chemical_formula_structural       Dy4H60C44O24
_chemical_formula_sum              "Dy4 H60 C44 O24"
_cell_length_a       8.18508
_cell_length_b       10.7254
_cell_length_c       14.7608
_cell_angle_alpha    90.0002
_cell_angle_beta     90
_cell_angle_gamma    90.0003

_space_group_name_H-M_alt    "P 1"
_space_group_IT_number       1

loop_
  _space_group_symop_operation_xyz
  'x, y, z'

loop_
  _atom_site_type_symbol
  _atom_site_label
  _atom_site_symmetry_multiplicity
  _atom_site_fract_x
  _atom_site_fract_y
  _atom_site_fract_z
  _atom_site_occupancy
  Dy  Dy1       1.0  0.07821  0.19952  0.00194  1.0000
  Dy  Dy2       1.0  0.42179  0.80049  0.50194  1.0000
  Dy  Dy3       1.0  0.92179  0.69951  0.49806  1.0000
  Dy  Dy4       1.0  0.57821  0.30049  0.99806  1.0000
  H   H1        1.0  0.27236  0.17380  0.30436  1.0000
  H   H2        1.0  0.22763  0.82620  0.80436  1.0000
  H   H3        1.0  0.72763  0.67380  0.19564  1.0000
  H   H4        1.0  0.77237  0.32620  0.69564  1.0000
  H   H5        1.0  0.18791  0.46196  0.17843  1.0000
  H   H6        1.0  0.31209  0.53804  0.67843  1.0000
  H   H7        1.0  0.81208  0.96196  0.32158  1.0000
  H   H8        1.0  0.68791  0.03803  0.82157  1.0000
  H   H9        1.0  0.35893  0.51637  0.23963  1.0000
  H   H10       1.0  0.14107  0.48363  0.73962  1.0000
  H   H11       1.0  0.64106  0.01637  0.26038  1.0000
  H   H12       1.0  0.85894  0.98362  0.76037  1.0000
  H   H13       1.0  0.15821  0.56265  0.27216  1.0000
  H   H14       1.0  0.34179  0.43736  0.77215  1.0000
  H   H15       1.0  0.84178  0.06264  0.22785  1.0000
  H   H16       1.0  0.65822  0.93735  0.72784  1.0000
  H   H17       1.0  0.43945  0.01292  0.89254  1.0000
  H   H18       1.0  0.06055  0.98708  0.39254  1.0000
  H   H19       1.0  0.56056  0.51292  0.60746  1.0000
  H   H20       1.0  0.93945  0.48709  0.10746  1.0000
  H   H21       1.0  0.55131  0.38224  0.44753  1.0000
  H   H22       1.0  0.94869  0.61776  0.94753  1.0000
  H   H23       1.0  0.44869  0.88224  0.05248  1.0000
  H   H24       1.0  0.05132  0.11776  0.55247  1.0000
  H   H25       1.0  0.52270  0.47885  0.35271  1.0000
  H   H26       1.0  0.97729  0.52115  0.85270  1.0000
  H   H27       1.0  0.47729  0.97885  0.14730  1.0000
  H   H28       1.0  0.02271  0.02115  0.64729  1.0000
  H   H29       1.0  0.59067  0.29703  0.26929  1.0000
  H   H30       1.0  0.90933  0.70297  0.76929  1.0000
  H   H31       1.0  0.40932  0.79702  0.23071  1.0000
  H   H32       1.0  0.09068  0.20297  0.73071  1.0000
  H   H33       1.0  0.53348  0.19622  0.35839  1.0000
  H   H34       1.0  0.96652  0.80378  0.85839  1.0000
  H   H35       1.0  0.46652  0.69622  0.14161  1.0000
  H   H36       1.0  0.03348  0.30378  0.64160  1.0000
  H   H37       1.0  0.99309  0.30818  0.24510  1.0000
  H   H38       1.0  0.50690  0.69182  0.74509  1.0000
  H   H39       1.0  0.00690  0.80818  0.25490  1.0000
  H   H40       1.0  0.49310  0.19182  0.75490  1.0000
  H   H41       1.0  0.95986  0.40807  0.34017  1.0000
  H   H42       1.0  0.54014  0.59193  0.84016  1.0000
  H   H43       1.0  0.04013  0.90807  0.15984  1.0000
  H   H44       1.0  0.45987  0.09192  0.65983  1.0000
  H   H45       1.0  0.01740  0.24961  0.35623  1.0000
  H   H46       1.0  0.48260  0.75039  0.85622  1.0000
  H   H47       1.0  0.98259  0.74961  0.14378  1.0000
  H   H48       1.0  0.51741  0.25039  0.64377  1.0000
  H   H49       1.0  0.31170  0.32637  0.54153  1.0000
  H   H50       1.0  0.18830  0.67364  0.04152  1.0000
  H   H51       1.0  0.68830  0.82637  0.95848  1.0000
  H   H52       1.0  0.81170  0.17363  0.45847  1.0000
  H   H53       1.0  0.27942  0.21051  0.45780  1.0000
  H   H54       1.0  0.22058  0.78949  0.95780  1.0000
  H   H55       1.0  0.72058  0.71051  0.04220  1.0000
  H   H56       1.0  0.77942  0.28949  0.54219  1.0000
  H   H57       1.0  0.11572  0.31020  0.49182  1.0000
  H   H58       1.0  0.38428  0.68980  0.99182  1.0000
  H   H59       1.0  0.88428  0.81021  0.00818  1.0000
  H   H60       1.0  0.61572  0.18979  0.50818  1.0000
  C   C1        1.0  0.32730  0.24779  0.17617  1.0000
  C   C2        1.0  0.17269  0.75221  0.67617  1.0000
  C   C3        1.0  0.67269  0.74780  0.32383  1.0000
  C   C4        1.0  0.82731  0.25220  0.82383  1.0000
  C   C5        1.0  0.32789  0.25983  0.27805  1.0000
  C   C6        1.0  0.17210  0.74017  0.77805  1.0000
  C   C7        1.0  0.67210  0.75983  0.22195  1.0000
  C   C8        1.0  0.82790  0.24017  0.72195  1.0000
  C   C9        1.0  0.23217  0.48465  0.24680  1.0000
  C   C10       1.0  0.26784  0.51535  0.74679  1.0000
  C   C11       1.0  0.76783  0.98464  0.25321  1.0000
  C   C12       1.0  0.73217  0.01535  0.75320  1.0000
  C   C13       1.0  0.33632  0.06588  0.92167  1.0000
  C   C14       1.0  0.16368  0.93412  0.42167  1.0000
  C   C15       1.0  0.66368  0.56588  0.57832  1.0000
  C   C16       1.0  0.83633  0.43413  0.07833  1.0000
  C   C17       1.0  0.21548  0.37120  0.31006  1.0000
  C   C18       1.0  0.28451  0.62880  0.81006  1.0000
  C   C19       1.0  0.78451  0.87120  0.18994  1.0000
  C   C20       1.0  0.71549  0.12879  0.68994  1.0000
  C   C21       1.0  0.47982  0.39277  0.38521  1.0000
  C   C22       1.0  0.02018  0.60723  0.88521  1.0000
  C   C23       1.0  0.52017  0.89277  0.11479  1.0000
  C   C24       1.0  0.97982  0.10723  0.61478  1.0000
  C   C25       1.0  0.49754  0.28052  0.32126  1.0000
  C   C26       1.0  0.00246  0.71948  0.82125  1.0000
  C   C27       1.0  0.50245  0.78051  0.17875  1.0000
  C   C28       1.0  0.99755  0.21948  0.67874  1.0000
  C   C29       1.0  0.03571  0.33218  0.31345  1.0000
  C   C30       1.0  0.46429  0.66782  0.81345  1.0000
  C   C31       1.0  0.96428  0.83218  0.18655  1.0000
  C   C32       1.0  0.53571  0.16782  0.68655  1.0000
  C   C33       1.0  0.29554  0.40156  0.40475  1.0000
  C   C34       1.0  0.20447  0.59844  0.90475  1.0000
  C   C35       1.0  0.70446  0.90156  0.09525  1.0000
  C   C36       1.0  0.79554  0.09844  0.59525  1.0000
  C   C37       1.0  0.24438  0.52723  0.44337  1.0000
  C   C38       1.0  0.25562  0.47277  0.94337  1.0000
  C   C39       1.0  0.75562  0.02724  0.05664  1.0000
  C   C40       1.0  0.74439  0.97277  0.55663  1.0000
  C   C41       1.0  0.24706  0.30588  0.47796  1.0000
  C   C42       1.0  0.25294  0.69413  0.97796  1.0000
  C   C43       1.0  0.75294  0.80588  0.02204  1.0000
  C   C44       1.0  0.74706  0.19412  0.52204  1.0000
  O   O1        1.0  0.35703  0.18284  0.93900  1.0000
  O   O2        1.0  0.14298  0.81716  0.43899  1.0000
  O   O3        1.0  0.64297  0.68284  0.56101  1.0000
  O   O4        1.0  0.85704  0.31717  0.06101  1.0000
  O   O5        1.0  0.20183  0.01343  0.93704  1.0000
  O   O6        1.0  0.29817  0.98658  0.43704  1.0000
  O   O7        1.0  0.79817  0.51343  0.56295  1.0000
  O   O8        1.0  0.70183  0.48657  0.06297  1.0000
  O   O9        1.0  0.20123  0.19982  0.13863  1.0000
  O   O10       1.0  0.29876  0.80018  0.63863  1.0000
  O   O11       1.0  0.79876  0.69983  0.36137  1.0000
  O   O12       1.0  0.70122  0.30016  0.86137  1.0000
  O   O13       1.0  0.09258  0.55223  0.44688  1.0000
  O   O14       1.0  0.40743  0.44776  0.94687  1.0000
  O   O15       1.0  0.90742  0.05224  0.05313  1.0000
  O   O16       1.0  0.59259  0.94776  0.55312  1.0000
  O   O17       1.0  0.44825  0.28830  0.13081  1.0000
  O   O18       1.0  0.05174  0.71170  0.63081  1.0000
  O   O19       1.0  0.55174  0.78830  0.36919  1.0000
  O   O20       1.0  0.94826  0.21171  0.86919  1.0000
  O   O21       1.0  0.35458  0.59867  0.47537  1.0000
  O   O22       1.0  0.14543  0.40133  0.97537  1.0000
  O   O23       1.0  0.64543  0.09868  0.02464  1.0000
  O   O24       1.0  0.85458  0.90133  0.52462  1.0000
