data_image0
_chemical_formula_structural       Sn2H48C40Br4N4O8
_chemical_formula_sum              "Sn2 H48 C40 Br4 N4 O8"
_cell_length_a       8.01917
_cell_length_b       9.91119
_cell_length_c       14.9277
_cell_angle_alpha    76.4997
_cell_angle_beta     79.9093
_cell_angle_gamma    81.068

_space_group_name_H-M_alt    "P 1"
_space_group_IT_number       1

loop_
  _space_group_symop_operation_xyz
  'x, y, z'

loop_
  _atom_site_type_symbol
  _atom_site_label
  _atom_site_symmetry_multiplicity
  _atom_site_fract_x
  _atom_site_fract_y
  _atom_site_fract_z
  _atom_site_occupancy
  Sn  Sn1       1.0  0.64876  0.11284  0.71787  1.0000
  Sn  Sn2       1.0  0.35123  0.88717  0.28213  1.0000
  H   H1        1.0  0.05905  0.12131  0.71321  1.0000
  H   H2        1.0  0.94095  0.87869  0.28679  1.0000
  H   H3        1.0  0.21716  0.53291  0.61489  1.0000
  H   H4        1.0  0.78284  0.46709  0.38511  1.0000
  H   H5        1.0  0.69227  0.45440  0.63647  1.0000
  H   H6        1.0  0.30773  0.54561  0.36352  1.0000
  H   H7        1.0  0.59203  0.63118  0.82988  1.0000
  H   H8        1.0  0.40797  0.36882  0.17012  1.0000
  H   H9        1.0  0.09834  0.72814  0.82758  1.0000
  H   H10       1.0  0.90167  0.27186  0.17241  1.0000
  H   H11       1.0  0.96193  0.30638  0.91568  1.0000
  H   H12       1.0  0.03807  0.69361  0.08432  1.0000
  H   H13       1.0  0.86693  0.06270  0.56950  1.0000
  H   H14       1.0  0.13307  0.93731  0.43050  1.0000
  H   H15       1.0  0.68838  0.96765  0.58765  1.0000
  H   H16       1.0  0.31162  0.03235  0.41235  1.0000
  H   H17       1.0  0.68572  0.28087  0.49641  1.0000
  H   H18       1.0  0.31428  0.71913  0.50359  1.0000
  H   H19       1.0  0.51102  0.18560  0.51507  1.0000
  H   H20       1.0  0.48898  0.81440  0.48493  1.0000
  H   H21       1.0  0.84945  0.12549  0.39049  1.0000
  H   H22       1.0  0.15055  0.87451  0.60951  1.0000
  H   H23       1.0  0.67579  0.02765  0.41218  1.0000
  H   H24       1.0  0.32421  0.97235  0.58782  1.0000
  H   H25       1.0  0.48828  0.24543  0.34428  1.0000
  H   H26       1.0  0.51172  0.75457  0.65572  1.0000
  H   H27       1.0  0.66168  0.19793  0.26287  1.0000
  H   H28       1.0  0.33832  0.80207  0.73713  1.0000
  H   H29       1.0  0.66738  0.33979  0.31626  1.0000
  H   H30       1.0  0.33263  0.66021  0.68373  1.0000
  H   H31       1.0  0.59992  0.28131  0.83748  1.0000
  H   H32       1.0  0.40007  0.71868  0.16252  1.0000
  H   H33       1.0  0.46732  0.14386  0.87839  1.0000
  H   H34       1.0  0.53268  0.85614  0.12161  1.0000
  H   H35       1.0  0.72452  0.97966  0.93204  1.0000
  H   H36       1.0  0.27549  0.02033  0.06796  1.0000
  H   H37       1.0  0.85191  0.11643  0.89126  1.0000
  H   H38       1.0  0.14809  0.88357  0.10874  1.0000
  H   H39       1.0  0.66257  0.25164  0.00332  1.0000
  H   H40       1.0  0.33744  0.74836  0.99668  1.0000
  H   H41       1.0  0.54007  0.11129  0.04397  1.0000
  H   H42       1.0  0.45994  0.88871  0.95603  1.0000
  H   H43       1.0  0.80554  0.95173  0.09264  1.0000
  H   H44       1.0  0.19447  0.04826  0.90736  1.0000
  H   H45       1.0  0.74837  0.08978  0.15232  1.0000
  H   H46       1.0  0.25163  0.91022  0.84767  1.0000
  H   H47       1.0  0.92133  0.09822  0.05912  1.0000
  H   H48       1.0  0.07867  0.90179  0.94087  1.0000
  C   C1        1.0  0.33916  0.26114  0.67851  1.0000
  C   C2        1.0  0.66084  0.73885  0.32149  1.0000
  C   C3        1.0  0.03054  0.23340  0.68730  1.0000
  C   C4        1.0  0.96945  0.76660  0.31271  1.0000
  C   C5        1.0  0.15945  0.32078  0.66618  1.0000
  C   C6        1.0  0.84055  0.67922  0.33382  1.0000
  C   C7        1.0  0.11796  0.46361  0.63213  1.0000
  C   C8        1.0  0.88204  0.53638  0.36787  1.0000
  C   C9        1.0  0.94916  0.51240  0.62059  1.0000
  C   C10       1.0  0.05084  0.48760  0.37941  1.0000
  C   C11       1.0  0.82602  0.41985  0.64370  1.0000
  C   C12       1.0  0.17398  0.58015  0.35630  1.0000
  C   C13       1.0  0.78361  0.84729  0.78713  1.0000
  C   C14       1.0  0.21639  0.15271  0.21287  1.0000
  C   C15       1.0  0.72392  0.59790  0.84205  1.0000
  C   C16       1.0  0.27608  0.40210  0.15796  1.0000
  C   C17       1.0  0.83886  0.69719  0.82469  1.0000
  C   C18       1.0  0.16114  0.30281  0.17531  1.0000
  C   C19       1.0  0.00699  0.65268  0.84116  1.0000
  C   C20       1.0  0.99301  0.34733  0.15884  1.0000
  C   C21       1.0  0.05087  0.51067  0.87459  1.0000
  C   C22       1.0  0.94913  0.48932  0.12541  1.0000
  C   C23       1.0  0.92867  0.41820  0.88950  1.0000
  C   C24       1.0  0.07133  0.58180  0.11050  1.0000
  C   C25       1.0  0.72679  0.07209  0.57995  1.0000
  C   C26       1.0  0.27321  0.92791  0.42005  1.0000
  C   C27       1.0  0.65142  0.17585  0.50081  1.0000
  C   C28       1.0  0.34858  0.82416  0.49919  1.0000
  C   C29       1.0  0.70929  0.13324  0.40692  1.0000
  C   C30       1.0  0.29071  0.86676  0.59308  1.0000
  C   C31       1.0  0.62816  0.23471  0.32827  1.0000
  C   C32       1.0  0.37184  0.76529  0.67173  1.0000
  C   C33       1.0  0.59857  0.16769  0.85189  1.0000
  C   C34       1.0  0.40143  0.83230  0.14811  1.0000
  C   C35       1.0  0.72058  0.09405  0.92030  1.0000
  C   C36       1.0  0.27943  0.90595  0.07970  1.0000
  C   C37       1.0  0.66982  0.13714  0.01441  1.0000
  C   C38       1.0  0.33018  0.86286  0.98559  1.0000
  C   C39       1.0  0.79286  0.06624  0.08324  1.0000
  C   C40       1.0  0.20715  0.93376  0.91676  1.0000
  Br  Br1       1.0  0.88457  0.70468  0.57258  1.0000
  Br  Br2       1.0  0.11544  0.29532  0.42743  1.0000
  Br  Br3       1.0  0.27600  0.44013  0.89921  1.0000
  Br  Br4       1.0  0.72400  0.55987  0.10079  1.0000
  N   N1        1.0  0.86821  0.28265  0.67622  1.0000
  N   N2        1.0  0.13179  0.71735  0.32378  1.0000
  N   N3        1.0  0.76790  0.46110  0.87300  1.0000
  N   N4        1.0  0.23210  0.53890  0.12700  1.0000
  O   O1        1.0  0.36754  0.12791  0.70742  1.0000
  O   O2        1.0  0.63245  0.87209  0.29258  1.0000
  O   O3        1.0  0.45581  0.33993  0.66070  1.0000
  O   O4        1.0  0.54419  0.66007  0.33930  1.0000
  O   O5        1.0  0.62410  0.88431  0.78153  1.0000
  O   O6        1.0  0.37590  0.11569  0.21847  1.0000
  O   O7        1.0  0.89160  0.93505  0.76078  1.0000
  O   O8        1.0  0.10839  0.06496  0.23922  1.0000
