data_image0
_chemical_formula_structural       Ho4H60C44O24
_chemical_formula_sum              "Ho4 H60 C44 O24"
_cell_length_a       8.14565
_cell_length_b       10.6874
_cell_length_c       14.7594
_cell_angle_alpha    90.0004
_cell_angle_beta     90.0004
_cell_angle_gamma    90.0002

_space_group_name_H-M_alt    "P 1"
_space_group_IT_number       1

loop_
  _space_group_symop_operation_xyz
  'x, y, z'

loop_
  _atom_site_type_symbol
  _atom_site_label
  _atom_site_symmetry_multiplicity
  _atom_site_fract_x
  _atom_site_fract_y
  _atom_site_fract_z
  _atom_site_occupancy
  Ho  Ho1       1.0  0.42136  0.19979  0.49813  1.0000
  Ho  Ho2       1.0  0.07864  0.80021  0.99814  1.0000
  Ho  Ho3       1.0  0.57864  0.69979  0.00187  1.0000
  Ho  Ho4       1.0  0.92136  0.30022  0.50186  1.0000
  H   H1        1.0  0.27310  0.82673  0.69623  1.0000
  H   H2        1.0  0.22690  0.17327  0.19622  1.0000
  H   H3        1.0  0.72691  0.32673  0.80377  1.0000
  H   H4        1.0  0.77311  0.67327  0.30378  1.0000
  H   H5        1.0  0.59202  0.70177  0.73174  1.0000
  H   H6        1.0  0.90797  0.29822  0.23173  1.0000
  H   H7        1.0  0.40798  0.20177  0.76825  1.0000
  H   H8        1.0  0.09203  0.79824  0.26827  1.0000
  H   H9        1.0  0.53588  0.80360  0.64279  1.0000
  H   H10       1.0  0.96412  0.19640  0.14278  1.0000
  H   H11       1.0  0.46412  0.30360  0.85720  1.0000
  H   H12       1.0  0.03589  0.69641  0.35722  1.0000
  H   H13       1.0  0.55262  0.61739  0.55319  1.0000
  H   H14       1.0  0.94738  0.38261  0.05318  1.0000
  H   H15       1.0  0.44738  0.11740  0.94681  1.0000
  H   H16       1.0  0.05262  0.88262  0.44682  1.0000
  H   H17       1.0  0.52327  0.52008  0.64772  1.0000
  H   H18       1.0  0.97673  0.47992  0.14771  1.0000
  H   H19       1.0  0.47673  0.02008  0.85228  1.0000
  H   H20       1.0  0.02327  0.97993  0.35229  1.0000
  H   H21       1.0  0.31215  0.67435  0.45908  1.0000
  H   H22       1.0  0.18785  0.32565  0.95908  1.0000
  H   H23       1.0  0.68785  0.17435  0.04091  1.0000
  H   H24       1.0  0.81215  0.82565  0.54092  1.0000
  H   H25       1.0  0.27980  0.79039  0.54302  1.0000
  H   H26       1.0  0.22021  0.20961  0.04301  1.0000
  H   H27       1.0  0.72021  0.29039  0.95699  1.0000
  H   H28       1.0  0.77979  0.70961  0.45699  1.0000
  H   H29       1.0  0.11509  0.69060  0.50871  1.0000
  H   H30       1.0  0.38491  0.30940  0.00871  1.0000
  H   H31       1.0  0.88491  0.19059  0.99129  1.0000
  H   H32       1.0  0.61509  0.80940  0.49129  1.0000
  H   H33       1.0  0.18776  0.53749  0.82206  1.0000
  H   H34       1.0  0.31222  0.46250  0.32206  1.0000
  H   H35       1.0  0.81223  0.03748  0.67794  1.0000
  H   H36       1.0  0.68777  0.96250  0.17795  1.0000
  H   H37       1.0  0.35903  0.48268  0.76051  1.0000
  H   H38       1.0  0.14095  0.51731  0.26051  1.0000
  H   H39       1.0  0.64095  0.98268  0.73949  1.0000
  H   H40       1.0  0.85905  0.01731  0.23949  1.0000
  H   H41       1.0  0.15709  0.43672  0.72824  1.0000
  H   H42       1.0  0.34289  0.56328  0.22825  1.0000
  H   H43       1.0  0.84289  0.93672  0.77176  1.0000
  H   H44       1.0  0.65710  0.06327  0.27176  1.0000
  H   H45       1.0  0.99236  0.69315  0.75551  1.0000
  H   H46       1.0  0.50764  0.30685  0.25552  1.0000
  H   H47       1.0  0.00765  0.19314  0.74448  1.0000
  H   H48       1.0  0.49236  0.80685  0.24448  1.0000
  H   H49       1.0  0.95794  0.59206  0.66099  1.0000
  H   H50       1.0  0.54205  0.40794  0.16100  1.0000
  H   H51       1.0  0.04205  0.09205  0.83900  1.0000
  H   H52       1.0  0.45795  0.90794  0.33901  1.0000
  H   H53       1.0  0.01631  0.75074  0.64405  1.0000
  H   H54       1.0  0.48369  0.24926  0.14406  1.0000
  H   H55       1.0  0.98370  0.25073  0.85594  1.0000
  H   H56       1.0  0.51631  0.74926  0.35595  1.0000
  H   H57       1.0  0.06022  0.01312  0.60807  1.0000
  H   H58       1.0  0.43977  0.98690  0.10807  1.0000
  H   H59       1.0  0.93976  0.51311  0.89193  1.0000
  H   H60       1.0  0.56023  0.48689  0.39192  1.0000
  C   C1        1.0  0.29546  0.59846  0.59570  1.0000
  C   C2        1.0  0.20454  0.40154  0.09570  1.0000
  C   C3        1.0  0.70454  0.09846  0.90429  1.0000
  C   C4        1.0  0.79546  0.90154  0.40430  1.0000
  C   C5        1.0  0.21515  0.62878  0.69047  1.0000
  C   C6        1.0  0.28485  0.37122  0.19047  1.0000
  C   C7        1.0  0.78485  0.12878  0.80952  1.0000
  C   C8        1.0  0.71515  0.87122  0.30953  1.0000
  C   C9        1.0  0.32828  0.74024  0.72263  1.0000
  C   C10       1.0  0.17172  0.25976  0.22262  1.0000
  C   C11       1.0  0.67173  0.24024  0.77737  1.0000
  C   C12       1.0  0.82828  0.75976  0.27738  1.0000
  C   C13       1.0  0.49882  0.71902  0.67968  1.0000
  C   C14       1.0  0.00118  0.28098  0.17967  1.0000
  C   C15       1.0  0.50118  0.21902  0.82032  1.0000
  C   C16       1.0  0.99882  0.78099  0.32033  1.0000
  C   C17       1.0  0.48060  0.60672  0.61540  1.0000
  C   C18       1.0  0.01940  0.39328  0.11540  1.0000
  C   C19       1.0  0.51940  0.10672  0.88459  1.0000
  C   C20       1.0  0.98060  0.89328  0.38460  1.0000
  C   C21       1.0  0.24351  0.47266  0.55670  1.0000
  C   C22       1.0  0.25648  0.52734  0.05670  1.0000
  C   C23       1.0  0.75649  0.97266  0.94330  1.0000
  C   C24       1.0  0.74351  0.02734  0.44330  1.0000
  C   C25       1.0  0.24709  0.69483  0.52264  1.0000
  C   C26       1.0  0.25291  0.30518  0.02263  1.0000
  C   C27       1.0  0.75292  0.19482  0.97736  1.0000
  C   C28       1.0  0.74709  0.80518  0.47737  1.0000
  C   C29       1.0  0.23176  0.51481  0.75358  1.0000
  C   C30       1.0  0.26823  0.48519  0.25358  1.0000
  C   C31       1.0  0.76823  0.01481  0.74642  1.0000
  C   C32       1.0  0.73177  0.98519  0.24642  1.0000
  C   C33       1.0  0.03467  0.66825  0.68721  1.0000
  C   C34       1.0  0.46533  0.33176  0.18722  1.0000
  C   C35       1.0  0.96533  0.16824  0.81278  1.0000
  C   C36       1.0  0.53467  0.83175  0.31279  1.0000
  C   C37       1.0  0.32736  0.75250  0.82448  1.0000
  C   C38       1.0  0.17263  0.24749  0.32448  1.0000
  C   C39       1.0  0.67265  0.25252  0.67552  1.0000
  C   C40       1.0  0.82738  0.74749  0.17552  1.0000
  C   C41       1.0  0.16357  0.06630  0.57863  1.0000
  C   C42       1.0  0.33641  0.93371  0.07863  1.0000
  C   C43       1.0  0.83643  0.56630  0.92138  1.0000
  C   C44       1.0  0.66358  0.43371  0.42137  1.0000
  O   O1        1.0  0.35394  0.40103  0.52424  1.0000
  O   O2        1.0  0.14607  0.59897  0.02425  1.0000
  O   O3        1.0  0.64607  0.90104  0.97576  1.0000
  O   O4        1.0  0.85392  0.09898  0.47575  1.0000
  O   O5        1.0  0.09094  0.44784  0.55332  1.0000
  O   O6        1.0  0.40906  0.55217  0.05332  1.0000
  O   O7        1.0  0.90906  0.94784  0.94667  1.0000
  O   O8        1.0  0.59092  0.05215  0.44668  1.0000
  O   O9        1.0  0.20059  0.80058  0.86195  1.0000
  O   O10       1.0  0.29942  0.19941  0.36195  1.0000
  O   O11       1.0  0.79942  0.30060  0.63805  1.0000
  O   O12       1.0  0.70060  0.69940  0.13805  1.0000
  O   O13       1.0  0.44891  0.71193  0.86993  1.0000
  O   O14       1.0  0.05111  0.28806  0.36993  1.0000
  O   O15       1.0  0.55111  0.21195  0.63006  1.0000
  O   O16       1.0  0.94891  0.78806  0.13008  1.0000
  O   O17       1.0  0.29885  0.01388  0.56331  1.0000
  O   O18       1.0  0.20115  0.98612  0.06330  1.0000
  O   O19       1.0  0.70114  0.51388  0.93671  1.0000
  O   O20       1.0  0.79885  0.48611  0.43670  1.0000
  O   O21       1.0  0.14247  0.18347  0.56074  1.0000
  O   O22       1.0  0.35753  0.81654  0.06074  1.0000
  O   O23       1.0  0.85753  0.68347  0.93926  1.0000
  O   O24       1.0  0.64248  0.31653  0.43926  1.0000
