data_image0
_chemical_formula_structural       Er4H60C44O24
_chemical_formula_sum              "Er4 H60 C44 O24"
_cell_length_a       8.12063
_cell_length_b       10.7141
_cell_length_c       14.7519
_cell_angle_alpha    90.0003
_cell_angle_beta     90.0001
_cell_angle_gamma    90.0003

_space_group_name_H-M_alt    "P 1"
_space_group_IT_number       1

loop_
  _space_group_symop_operation_xyz
  'x, y, z'

loop_
  _atom_site_type_symbol
  _atom_site_label
  _atom_site_symmetry_multiplicity
  _atom_site_fract_x
  _atom_site_fract_y
  _atom_site_fract_z
  _atom_site_occupancy
  Er  Er1       1.0  0.57722  0.20060  0.50163  1.0000
  Er  Er2       1.0  0.92276  0.79940  0.00162  1.0000
  Er  Er3       1.0  0.07723  0.29940  0.49838  1.0000
  Er  Er4       1.0  0.42276  0.70059  0.99838  1.0000
  H   H1        1.0  0.73169  0.82457  0.30309  1.0000
  H   H2        1.0  0.76832  0.17543  0.80310  1.0000
  H   H3        1.0  0.23169  0.67543  0.69691  1.0000
  H   H4        1.0  0.26832  0.32457  0.19691  1.0000
  H   H5        1.0  0.40870  0.70388  0.26901  1.0000
  H   H6        1.0  0.09131  0.29614  0.76901  1.0000
  H   H7        1.0  0.90870  0.79612  0.73098  1.0000
  H   H8        1.0  0.59131  0.20388  0.23099  1.0000
  H   H9        1.0  0.46868  0.80434  0.35798  1.0000
  H   H10       1.0  0.03133  0.19567  0.85798  1.0000
  H   H11       1.0  0.96869  0.69566  0.64201  1.0000
  H   H12       1.0  0.53133  0.30434  0.14202  1.0000
  H   H13       1.0  0.44853  0.61830  0.44718  1.0000
  H   H14       1.0  0.05146  0.38171  0.94718  1.0000
  H   H15       1.0  0.94854  0.88170  0.55282  1.0000
  H   H16       1.0  0.55147  0.11831  0.05282  1.0000
  H   H17       1.0  0.47572  0.52137  0.35236  1.0000
  H   H18       1.0  0.02426  0.47864  0.85237  1.0000
  H   H19       1.0  0.97573  0.97863  0.64763  1.0000
  H   H20       1.0  0.52428  0.02137  0.14763  1.0000
  H   H21       1.0  0.69141  0.67282  0.54079  1.0000
  H   H22       1.0  0.80858  0.32718  0.04079  1.0000
  H   H23       1.0  0.19142  0.82719  0.45920  1.0000
  H   H24       1.0  0.30860  0.17282  0.95920  1.0000
  H   H25       1.0  0.72440  0.78853  0.45689  1.0000
  H   H26       1.0  0.77560  0.21147  0.95689  1.0000
  H   H27       1.0  0.22441  0.71147  0.54310  1.0000
  H   H28       1.0  0.27560  0.28853  0.04311  1.0000
  H   H29       1.0  0.88877  0.68769  0.49056  1.0000
  H   H30       1.0  0.61122  0.31231  0.99056  1.0000
  H   H31       1.0  0.38878  0.81232  0.50943  1.0000
  H   H32       1.0  0.11123  0.18769  0.00944  1.0000
  H   H33       1.0  0.81180  0.53504  0.17731  1.0000
  H   H34       1.0  0.68821  0.46495  0.67732  1.0000
  H   H35       1.0  0.31180  0.96495  0.82269  1.0000
  H   H36       1.0  0.18821  0.03505  0.32268  1.0000
  H   H37       1.0  0.63903  0.48216  0.23900  1.0000
  H   H38       1.0  0.86098  0.51782  0.73901  1.0000
  H   H39       1.0  0.13903  0.01783  0.76099  1.0000
  H   H40       1.0  0.36098  0.98218  0.26099  1.0000
  H   H41       1.0  0.84091  0.43421  0.27121  1.0000
  H   H42       1.0  0.65910  0.56579  0.77122  1.0000
  H   H43       1.0  0.34092  0.06578  0.72879  1.0000
  H   H44       1.0  0.15910  0.93422  0.22878  1.0000
  H   H45       1.0  0.01048  0.68859  0.24352  1.0000
  H   H46       1.0  0.48953  0.31140  0.74351  1.0000
  H   H47       1.0  0.51048  0.81140  0.75648  1.0000
  H   H48       1.0  0.98953  0.18860  0.25648  1.0000
  H   H49       1.0  0.04380  0.58735  0.33796  1.0000
  H   H50       1.0  0.45620  0.41264  0.83795  1.0000
  H   H51       1.0  0.54381  0.91264  0.66204  1.0000
  H   H52       1.0  0.95621  0.08736  0.16204  1.0000
  H   H53       1.0  0.98816  0.74616  0.35509  1.0000
  H   H54       1.0  0.51183  0.25383  0.85509  1.0000
  H   H55       1.0  0.48817  0.75383  0.64491  1.0000
  H   H56       1.0  0.01184  0.24616  0.14491  1.0000
  H   H57       1.0  0.93869  0.01350  0.39366  1.0000
  H   H58       1.0  0.56130  0.98650  0.89366  1.0000
  H   H59       1.0  0.43868  0.48652  0.60633  1.0000
  H   H60       1.0  0.06128  0.51351  0.10635  1.0000
  C   C1        1.0  0.70582  0.59724  0.40400  1.0000
  C   C2        1.0  0.79417  0.40275  0.90401  1.0000
  C   C3        1.0  0.20583  0.90276  0.59600  1.0000
  C   C4        1.0  0.29418  0.09725  0.09599  1.0000
  C   C5        1.0  0.78621  0.62651  0.30899  1.0000
  C   C6        1.0  0.71380  0.37348  0.80900  1.0000
  C   C7        1.0  0.28621  0.87348  0.69101  1.0000
  C   C8        1.0  0.21380  0.12652  0.19101  1.0000
  C   C9        1.0  0.67433  0.73880  0.27703  1.0000
  C   C10       1.0  0.82568  0.26119  0.77703  1.0000
  C   C11       1.0  0.17433  0.76119  0.72297  1.0000
  C   C12       1.0  0.32568  0.23881  0.22297  1.0000
  C   C13       1.0  0.50339  0.71967  0.32070  1.0000
  C   C14       1.0  0.99661  0.28033  0.82071  1.0000
  C   C15       1.0  0.00339  0.78032  0.67929  1.0000
  C   C16       1.0  0.49661  0.21967  0.17930  1.0000
  C   C17       1.0  0.52015  0.60729  0.38473  1.0000
  C   C18       1.0  0.97985  0.39271  0.88474  1.0000
  C   C19       1.0  0.02016  0.89270  0.61526  1.0000
  C   C20       1.0  0.47986  0.10729  0.11526  1.0000
  C   C21       1.0  0.75593  0.47127  0.44281  1.0000
  C   C22       1.0  0.74404  0.52872  0.94281  1.0000
  C   C23       1.0  0.25594  0.02872  0.55719  1.0000
  C   C24       1.0  0.24407  0.97128  0.05719  1.0000
  C   C25       1.0  0.75633  0.69291  0.47701  1.0000
  C   C26       1.0  0.74367  0.30708  0.97702  1.0000
  C   C27       1.0  0.25634  0.80709  0.52298  1.0000
  C   C28       1.0  0.24368  0.19291  0.02298  1.0000
  C   C29       1.0  0.76735  0.51289  0.24589  1.0000
  C   C30       1.0  0.73266  0.48710  0.74589  1.0000
  C   C31       1.0  0.26736  0.98710  0.75411  1.0000
  C   C32       1.0  0.23266  0.01290  0.25411  1.0000
  C   C33       1.0  0.96793  0.66412  0.31191  1.0000
  C   C34       1.0  0.53207  0.33587  0.81191  1.0000
  C   C35       1.0  0.46794  0.83587  0.68809  1.0000
  C   C36       1.0  0.03207  0.16413  0.18809  1.0000
  C   C37       1.0  0.67428  0.75061  0.17508  1.0000
  C   C38       1.0  0.82572  0.24938  0.67509  1.0000
  C   C39       1.0  0.17429  0.74938  0.82491  1.0000
  C   C40       1.0  0.32571  0.25062  0.32492  1.0000
  C   C41       1.0  0.83486  0.06654  0.42293  1.0000
  C   C42       1.0  0.66513  0.93346  0.92292  1.0000
  C   C43       1.0  0.33484  0.43346  0.57708  1.0000
  C   C44       1.0  0.16511  0.56655  0.07709  1.0000
  O   O1        1.0  0.64395  0.40023  0.47446  1.0000
  O   O2        1.0  0.85602  0.59977  0.97448  1.0000
  O   O3        1.0  0.14397  0.09977  0.52553  1.0000
  O   O4        1.0  0.35603  0.90022  0.02554  1.0000
  O   O5        1.0  0.90870  0.44571  0.44660  1.0000
  O   O6        1.0  0.59129  0.55428  0.94658  1.0000
  O   O7        1.0  0.40869  0.05430  0.55343  1.0000
  O   O8        1.0  0.09129  0.94571  0.05341  1.0000
  O   O9        1.0  0.80165  0.79768  0.13721  1.0000
  O   O10       1.0  0.69836  0.20234  0.63721  1.0000
  O   O11       1.0  0.30163  0.70234  0.86279  1.0000
  O   O12       1.0  0.19835  0.29768  0.36279  1.0000
  O   O13       1.0  0.55139  0.71084  0.13015  1.0000
  O   O14       1.0  0.94864  0.28914  0.63016  1.0000
  O   O15       1.0  0.05135  0.78914  0.86985  1.0000
  O   O16       1.0  0.44861  0.21084  0.36985  1.0000
  O   O17       1.0  0.69909  0.01450  0.43828  1.0000
  O   O18       1.0  0.80091  0.98550  0.93827  1.0000
  O   O19       1.0  0.19907  0.48550  0.56174  1.0000
  O   O20       1.0  0.30090  0.51450  0.06173  1.0000
  O   O21       1.0  0.85592  0.18364  0.44037  1.0000
  O   O22       1.0  0.64408  0.81637  0.94036  1.0000
  O   O23       1.0  0.35589  0.31637  0.55964  1.0000
  O   O24       1.0  0.14408  0.68364  0.05964  1.0000
