data_image0
_chemical_formula_structural       Tb4H60C44O24
_chemical_formula_sum              "Tb4 H60 C44 O24"
_cell_length_a       8.20999
_cell_length_b       10.6871
_cell_length_c       14.7609
_cell_angle_alpha    90.0003
_cell_angle_beta     90
_cell_angle_gamma    90

_space_group_name_H-M_alt    "P 1"
_space_group_IT_number       1

loop_
  _space_group_symop_operation_xyz
  'x, y, z'

loop_
  _atom_site_type_symbol
  _atom_site_label
  _atom_site_symmetry_multiplicity
  _atom_site_fract_x
  _atom_site_fract_y
  _atom_site_fract_z
  _atom_site_occupancy
  Tb  Tb1       1.0  0.91940  0.80197  0.00216  1.0000
  Tb  Tb2       1.0  0.58060  0.19803  0.50216  1.0000
  Tb  Tb3       1.0  0.08060  0.30197  0.49784  1.0000
  Tb  Tb4       1.0  0.41940  0.69803  0.99784  1.0000
  H   H1        1.0  0.72288  0.82879  0.30513  1.0000
  H   H2        1.0  0.77712  0.17121  0.80513  1.0000
  H   H3        1.0  0.27712  0.32879  0.19487  1.0000
  H   H4        1.0  0.22287  0.67121  0.69487  1.0000
  H   H5        1.0  0.55832  0.98682  0.88935  1.0000
  H   H6        1.0  0.94166  0.01316  0.38935  1.0000
  H   H7        1.0  0.44167  0.48683  0.61065  1.0000
  H   H8        1.0  0.05832  0.51318  0.11065  1.0000
  H   H9        1.0  0.40772  0.70253  0.26955  1.0000
  H   H10       1.0  0.09228  0.29747  0.76956  1.0000
  H   H11       1.0  0.59227  0.20254  0.23044  1.0000
  H   H12       1.0  0.90772  0.79747  0.73045  1.0000
  H   H13       1.0  0.46281  0.80398  0.35880  1.0000
  H   H14       1.0  0.03719  0.19602  0.85880  1.0000
  H   H15       1.0  0.53719  0.30398  0.14120  1.0000
  H   H16       1.0  0.96281  0.69602  0.64120  1.0000
  H   H17       1.0  0.44765  0.61691  0.44774  1.0000
  H   H18       1.0  0.05235  0.38309  0.94774  1.0000
  H   H19       1.0  0.55235  0.11691  0.05226  1.0000
  H   H20       1.0  0.94765  0.88309  0.55226  1.0000
  H   H21       1.0  0.47817  0.52058  0.35281  1.0000
  H   H22       1.0  0.02183  0.47942  0.85281  1.0000
  H   H23       1.0  0.52183  0.02058  0.14719  1.0000
  H   H24       1.0  0.97817  0.97942  0.64719  1.0000
  H   H25       1.0  0.88117  0.69247  0.49238  1.0000
  H   H26       1.0  0.61883  0.30753  0.99238  1.0000
  H   H27       1.0  0.11884  0.19247  0.00762  1.0000
  H   H28       1.0  0.38117  0.80753  0.50763  1.0000
  H   H29       1.0  0.68575  0.67529  0.54201  1.0000
  H   H30       1.0  0.81425  0.32471  0.04201  1.0000
  H   H31       1.0  0.31424  0.17530  0.95799  1.0000
  H   H32       1.0  0.18576  0.82471  0.45799  1.0000
  H   H33       1.0  0.71739  0.79197  0.45837  1.0000
  H   H34       1.0  0.78261  0.20803  0.95837  1.0000
  H   H35       1.0  0.28261  0.29197  0.04163  1.0000
  H   H36       1.0  0.21739  0.70803  0.54163  1.0000
  H   H37       1.0  0.03831  0.59627  0.33994  1.0000
  H   H38       1.0  0.46169  0.40373  0.83994  1.0000
  H   H39       1.0  0.96169  0.09627  0.16006  1.0000
  H   H40       1.0  0.53831  0.90373  0.66006  1.0000
  H   H41       1.0  0.97816  0.75431  0.35743  1.0000
  H   H42       1.0  0.52184  0.24569  0.85743  1.0000
  H   H43       1.0  0.02183  0.25431  0.14257  1.0000
  H   H44       1.0  0.47817  0.74569  0.64257  1.0000
  H   H45       1.0  0.00272  0.69761  0.24581  1.0000
  H   H46       1.0  0.49729  0.30239  0.74580  1.0000
  H   H47       1.0  0.99729  0.19761  0.25420  1.0000
  H   H48       1.0  0.50272  0.80239  0.75420  1.0000
  H   H49       1.0  0.84324  0.43969  0.27201  1.0000
  H   H50       1.0  0.65677  0.56031  0.77201  1.0000
  H   H51       1.0  0.15677  0.93969  0.22799  1.0000
  H   H52       1.0  0.34324  0.06032  0.72799  1.0000
  H   H53       1.0  0.81054  0.54094  0.17867  1.0000
  H   H54       1.0  0.68947  0.45906  0.67867  1.0000
  H   H55       1.0  0.18947  0.04094  0.32133  1.0000
  H   H56       1.0  0.31054  0.95906  0.82133  1.0000
  H   H57       1.0  0.64191  0.48386  0.24036  1.0000
  H   H58       1.0  0.85809  0.51613  0.74036  1.0000
  H   H59       1.0  0.35809  0.98386  0.25964  1.0000
  H   H60       1.0  0.14191  0.01614  0.75964  1.0000
  C   C1        1.0  0.66989  0.75439  0.17679  1.0000
  C   C2        1.0  0.83011  0.24561  0.67679  1.0000
  C   C3        1.0  0.33011  0.25439  0.32321  1.0000
  C   C4        1.0  0.16989  0.74561  0.82321  1.0000
  C   C5        1.0  0.66904  0.74204  0.27860  1.0000
  C   C6        1.0  0.83096  0.25796  0.77860  1.0000
  C   C7        1.0  0.33096  0.24204  0.22140  1.0000
  C   C8        1.0  0.16904  0.75796  0.72140  1.0000
  C   C9        1.0  0.66089  0.93416  0.91924  1.0000
  C   C10       1.0  0.83910  0.06583  0.41924  1.0000
  C   C11       1.0  0.33910  0.43416  0.58077  1.0000
  C   C12       1.0  0.16089  0.56585  0.08077  1.0000
  C   C13       1.0  0.50017  0.71979  0.32164  1.0000
  C   C14       1.0  0.99983  0.28021  0.82164  1.0000
  C   C15       1.0  0.49983  0.21979  0.17836  1.0000
  C   C16       1.0  0.00017  0.78021  0.67836  1.0000
  C   C17       1.0  0.51935  0.60724  0.38553  1.0000
  C   C18       1.0  0.98066  0.39276  0.88553  1.0000
  C   C19       1.0  0.48065  0.10724  0.11447  1.0000
  C   C20       1.0  0.01934  0.89276  0.61447  1.0000
  C   C21       1.0  0.75613  0.47453  0.44400  1.0000
  C   C22       1.0  0.74388  0.52547  0.94400  1.0000
  C   C23       1.0  0.24388  0.97453  0.05600  1.0000
  C   C24       1.0  0.25612  0.02547  0.55600  1.0000
  C   C25       1.0  0.70310  0.60002  0.40525  1.0000
  C   C26       1.0  0.79691  0.39998  0.90525  1.0000
  C   C27       1.0  0.29691  0.10002  0.09475  1.0000
  C   C28       1.0  0.20309  0.89998  0.59475  1.0000
  C   C29       1.0  0.75018  0.69635  0.47850  1.0000
  C   C30       1.0  0.74982  0.30365  0.97850  1.0000
  C   C31       1.0  0.24982  0.19636  0.02150  1.0000
  C   C32       1.0  0.25018  0.80365  0.52150  1.0000
  C   C33       1.0  0.78250  0.63109  0.31057  1.0000
  C   C34       1.0  0.71750  0.36891  0.81057  1.0000
  C   C35       1.0  0.21750  0.13109  0.18942  1.0000
  C   C36       1.0  0.28250  0.86891  0.68942  1.0000
  C   C37       1.0  0.96099  0.67196  0.31400  1.0000
  C   C38       1.0  0.53901  0.32804  0.81400  1.0000
  C   C39       1.0  0.03901  0.17196  0.18600  1.0000
  C   C40       1.0  0.46099  0.82804  0.68600  1.0000
  C   C41       1.0  0.76771  0.51728  0.24715  1.0000
  C   C42       1.0  0.73230  0.48272  0.74715  1.0000
  C   C43       1.0  0.23230  0.01728  0.25285  1.0000
  C   C44       1.0  0.26770  0.98272  0.75285  1.0000
  O   O1        1.0  0.79526  0.80327  0.13942  1.0000
  O   O2        1.0  0.70474  0.19673  0.63942  1.0000
  O   O3        1.0  0.20474  0.30326  0.36058  1.0000
  O   O4        1.0  0.29526  0.69674  0.86058  1.0000
  O   O5        1.0  0.64040  0.81695  0.93711  1.0000
  O   O6        1.0  0.85959  0.18304  0.43711  1.0000
  O   O7        1.0  0.35960  0.31695  0.56289  1.0000
  O   O8        1.0  0.14040  0.68305  0.06289  1.0000
  O   O9        1.0  0.79445  0.98748  0.93497  1.0000
  O   O10       1.0  0.70553  0.01251  0.43498  1.0000
  O   O11       1.0  0.20555  0.48748  0.56502  1.0000
  O   O12       1.0  0.29445  0.51252  0.06503  1.0000
  O   O13       1.0  0.90795  0.45092  0.44746  1.0000
  O   O14       1.0  0.59206  0.54908  0.94746  1.0000
  O   O15       1.0  0.09205  0.95092  0.05254  1.0000
  O   O16       1.0  0.40795  0.04908  0.55254  1.0000
  O   O17       1.0  0.54973  0.71315  0.13133  1.0000
  O   O18       1.0  0.95026  0.28685  0.63133  1.0000
  O   O19       1.0  0.45026  0.21315  0.36867  1.0000
  O   O20       1.0  0.04973  0.78685  0.86867  1.0000
  O   O21       1.0  0.64761  0.40184  0.47629  1.0000
  O   O22       1.0  0.85239  0.59815  0.97629  1.0000
  O   O23       1.0  0.35238  0.90185  0.02371  1.0000
  O   O24       1.0  0.14761  0.09815  0.52371  1.0000
