data_image0
_chemical_formula_structural       Cu2H28C20S2N4O12
_chemical_formula_sum              "Cu2 H28 C20 S2 N4 O12"
_cell_length_a       7.13959
_cell_length_b       10.6896
_cell_length_c       10.6897
_cell_angle_alpha    91.991
_cell_angle_beta     100.923
_cell_angle_gamma    100.923

_space_group_name_H-M_alt    "P 1"
_space_group_IT_number       1

loop_
  _space_group_symop_operation_xyz
  'x, y, z'

loop_
  _atom_site_type_symbol
  _atom_site_label
  _atom_site_symmetry_multiplicity
  _atom_site_fract_x
  _atom_site_fract_y
  _atom_site_fract_z
  _atom_site_occupancy
  Cu  Cu1       1.0  0.75000  0.31831  0.68169  1.0000
  Cu  Cu2       1.0  0.25001  0.68169  0.31832  1.0000
  H   H1        1.0  0.79564  0.55172  0.61723  1.0000
  H   H2        1.0  0.70436  0.38277  0.44828  1.0000
  H   H3        1.0  0.20435  0.44828  0.38277  1.0000
  H   H4        1.0  0.29565  0.61722  0.55172  1.0000
  H   H5        1.0  0.59887  0.50924  0.66904  1.0000
  H   H6        1.0  0.90114  0.33096  0.49076  1.0000
  H   H7        1.0  0.40114  0.49076  0.33096  1.0000
  H   H8        1.0  0.09886  0.66904  0.50924  1.0000
  H   H9        1.0  0.04560  0.28724  0.89675  1.0000
  H   H10       1.0  0.45441  0.10325  0.71277  1.0000
  H   H11       1.0  0.95442  0.71278  0.10326  1.0000
  H   H12       1.0  0.54561  0.89676  0.28724  1.0000
  H   H13       1.0  0.10271  0.31333  0.13711  1.0000
  H   H14       1.0  0.39729  0.86289  0.68668  1.0000
  H   H15       1.0  0.89729  0.68669  0.86289  1.0000
  H   H16       1.0  0.60271  0.13713  0.31332  1.0000
  H   H17       1.0  0.83933  0.37384  0.23862  1.0000
  H   H18       1.0  0.66066  0.76138  0.62616  1.0000
  H   H19       1.0  0.16066  0.62616  0.76138  1.0000
  H   H20       1.0  0.33931  0.23862  0.37383  1.0000
  H   H21       1.0  0.52931  0.39952  0.09835  1.0000
  H   H22       1.0  0.97068  0.90164  0.60047  1.0000
  H   H23       1.0  0.47068  0.60047  0.90164  1.0000
  H   H24       1.0  0.02930  0.09835  0.39952  1.0000
  H   H25       1.0  0.49369  0.36704  0.85978  1.0000
  H   H26       1.0  0.00630  0.14021  0.63295  1.0000
  H   H27       1.0  0.50631  0.63295  0.14022  1.0000
  H   H28       1.0  0.99371  0.85978  0.36705  1.0000
  C   C1        1.0  0.93485  0.30939  0.94656  1.0000
  C   C2        1.0  0.56514  0.05344  0.69062  1.0000
  C   C3        1.0  0.06515  0.69063  0.05345  1.0000
  C   C4        1.0  0.43487  0.94656  0.30938  1.0000
  C   C5        1.0  0.96481  0.32413  0.07907  1.0000
  C   C6        1.0  0.53519  0.92094  0.67589  1.0000
  C   C7        1.0  0.03520  0.67589  0.92093  1.0000
  C   C8        1.0  0.46481  0.07908  0.32412  1.0000
  C   C9        1.0  0.81879  0.35747  0.13554  1.0000
  C   C10       1.0  0.68119  0.86445  0.64254  1.0000
  C   C11       1.0  0.18120  0.64255  0.86446  1.0000
  C   C12       1.0  0.31879  0.13554  0.35745  1.0000
  C   C13       1.0  0.64603  0.37300  0.05730  1.0000
  C   C14       1.0  0.85396  0.94270  0.62700  1.0000
  C   C15       1.0  0.35396  0.62700  0.94270  1.0000
  C   C16       1.0  0.14602  0.05731  0.37299  1.0000
  C   C17       1.0  0.62570  0.35646  0.92538  1.0000
  C   C18       1.0  0.87429  0.07461  0.64354  1.0000
  C   C19       1.0  0.37431  0.64354  0.07462  1.0000
  C   C20       1.0  0.12570  0.92538  0.35646  1.0000
  S   S1        1.0  0.25000  0.37614  0.62385  1.0000
  S   S2        1.0  0.75000  0.62385  0.37615  1.0000
  N   N1        1.0  0.76853  0.32597  0.87151  1.0000
  N   N2        1.0  0.73147  0.12849  0.67403  1.0000
  N   N3        1.0  0.23148  0.67404  0.12850  1.0000
  N   N4        1.0  0.26854  0.87151  0.32597  1.0000
  O   O1        1.0  0.38113  0.28408  0.63906  1.0000
  O   O2        1.0  0.11890  0.36091  0.71591  1.0000
  O   O3        1.0  0.61888  0.71591  0.36094  1.0000
  O   O4        1.0  0.88111  0.63907  0.28409  1.0000
  O   O5        1.0  0.12852  0.35841  0.48948  1.0000
  O   O6        1.0  0.37148  0.51052  0.64159  1.0000
  O   O7        1.0  0.87149  0.64158  0.51052  1.0000
  O   O8        1.0  0.62850  0.48947  0.35842  1.0000
  O   O9        1.0  0.74179  0.50517  0.68704  1.0000
  O   O10       1.0  0.75822  0.31297  0.49484  1.0000
  O   O11       1.0  0.25821  0.49483  0.31297  1.0000
  O   O12       1.0  0.24178  0.68702  0.50517  1.0000
