data_image0
_chemical_formula_structural       Cd2H36C64N8O8
_chemical_formula_sum              "Cd2 H36 C64 N8 O8"
_cell_length_a       10.8413
_cell_length_b       11.8171
_cell_length_c       12.1375
_cell_angle_alpha    64.0693
_cell_angle_beta     81.669
_cell_angle_gamma    66.7477

_space_group_name_H-M_alt    "P 1"
_space_group_IT_number       1

loop_
  _space_group_symop_operation_xyz
  'x, y, z'

loop_
  _atom_site_type_symbol
  _atom_site_label
  _atom_site_symmetry_multiplicity
  _atom_site_fract_x
  _atom_site_fract_y
  _atom_site_fract_z
  _atom_site_occupancy
  Cd  Cd1       1.0  0.07809  0.11427  0.87492  1.0000
  Cd  Cd2       1.0  0.92192  0.88573  0.12508  1.0000
  H   H1        1.0  0.70980  0.32809  0.57602  1.0000
  H   H2        1.0  0.29020  0.67191  0.42398  1.0000
  H   H3        1.0  0.74371  0.44526  0.90489  1.0000
  H   H4        1.0  0.25629  0.55474  0.09511  1.0000
  H   H5        1.0  0.58205  0.60739  0.98304  1.0000
  H   H6        1.0  0.41795  0.39261  0.01696  1.0000
  H   H7        1.0  0.35829  0.76430  0.87613  1.0000
  H   H8        1.0  0.64171  0.23570  0.12387  1.0000
  H   H9        1.0  0.29830  0.75640  0.68971  1.0000
  H   H10       1.0  0.70170  0.24359  0.31029  1.0000
  H   H11       1.0  0.04367  0.93902  0.33461  1.0000
  H   H12       1.0  0.95633  0.06098  0.66538  1.0000
  H   H13       1.0  0.92397  0.39885  0.01972  1.0000
  H   H14       1.0  0.07604  0.60115  0.98028  1.0000
  H   H15       1.0  0.84710  0.62078  0.02876  1.0000
  H   H16       1.0  0.15290  0.37922  0.97124  1.0000
  H   H17       1.0  0.81155  0.63669  0.22984  1.0000
  H   H18       1.0  0.18845  0.36331  0.77016  1.0000
  H   H19       1.0  0.85346  0.42754  0.42394  1.0000
  H   H20       1.0  0.14654  0.57246  0.57606  1.0000
  H   H21       1.0  0.02868  0.30061  0.57605  1.0000
  H   H22       1.0  0.97132  0.69939  0.42396  1.0000
  H   H23       1.0  0.16068  0.35011  0.38418  1.0000
  H   H24       1.0  0.83932  0.64989  0.61582  1.0000
  H   H25       1.0  0.41141  0.22984  0.40224  1.0000
  H   H26       1.0  0.58859  0.77016  0.59776  1.0000
  H   H27       1.0  0.61936  0.08108  0.53789  1.0000
  H   H28       1.0  0.38064  0.91891  0.46211  1.0000
  H   H29       1.0  0.72356  0.92569  0.74638  1.0000
  H   H30       1.0  0.27645  0.07431  0.25361  1.0000
  H   H31       1.0  0.69696  0.80853  0.96992  1.0000
  H   H32       1.0  0.30305  0.19147  0.03008  1.0000
  H   H33       1.0  0.54310  0.75642  0.14659  1.0000
  H   H34       1.0  0.45690  0.24358  0.85341  1.0000
  H   H35       1.0  0.29370  0.87803  0.10585  1.0000
  H   H36       1.0  0.70630  0.12196  0.89415  1.0000
  C   C1        1.0  0.52345  0.49946  0.55458  1.0000
  C   C2        1.0  0.47655  0.50054  0.44542  1.0000
  C   C3        1.0  0.65006  0.40264  0.61174  1.0000
  C   C4        1.0  0.34994  0.59736  0.38826  1.0000
  C   C5        1.0  0.69641  0.40651  0.70948  1.0000
  C   C6        1.0  0.30359  0.59349  0.29052  1.0000
  C   C7        1.0  0.61205  0.50299  0.75577  1.0000
  C   C8        1.0  0.38794  0.49701  0.24423  1.0000
  C   C9        1.0  0.64602  0.51251  0.85885  1.0000
  C   C10       1.0  0.35398  0.48749  0.14115  1.0000
  C   C11       1.0  0.55572  0.60409  0.90153  1.0000
  C   C12       1.0  0.44428  0.39591  0.09846  1.0000
  C   C13       1.0  0.42934  0.69330  0.84088  1.0000
  C   C14       1.0  0.57066  0.30671  0.15912  1.0000
  C   C15       1.0  0.39452  0.68874  0.73859  1.0000
  C   C16       1.0  0.60548  0.31126  0.26141  1.0000
  C   C17       1.0  0.48323  0.59262  0.69455  1.0000
  C   C18       1.0  0.51677  0.40737  0.30544  1.0000
  C   C19       1.0  0.83511  0.31050  0.76254  1.0000
  C   C20       1.0  0.16489  0.68950  0.23746  1.0000
  C   C21       1.0  0.98630  0.06001  0.43996  1.0000
  C   C22       1.0  0.01370  0.93999  0.56004  1.0000
  C   C23       1.0  0.00694  0.04120  0.32975  1.0000
  C   C24       1.0  0.99305  0.95881  0.67024  1.0000
  C   C25       1.0  0.98371  0.15294  0.21894  1.0000
  C   C26       1.0  0.01628  0.84706  0.78106  1.0000
  C   C27       1.0  0.93732  0.28453  0.21724  1.0000
  C   C28       1.0  0.06268  0.71547  0.78275  1.0000
  C   C29       1.0  0.90834  0.40505  0.10802  1.0000
  C   C30       1.0  0.09166  0.59495  0.89197  1.0000
  C   C31       1.0  0.86398  0.52916  0.11318  1.0000
  C   C32       1.0  0.13602  0.47084  0.88682  1.0000
  C   C33       1.0  0.84461  0.53797  0.22734  1.0000
  C   C34       1.0  0.15538  0.46203  0.77266  1.0000
  C   C35       1.0  0.86999  0.42250  0.33519  1.0000
  C   C36       1.0  0.13001  0.57750  0.66481  1.0000
  C   C37       1.0  0.91787  0.29285  0.33341  1.0000
  C   C38       1.0  0.08213  0.70715  0.66659  1.0000
  C   C39       1.0  0.00987  0.13757  0.10033  1.0000
  C   C40       1.0  0.99013  0.86243  0.89967  1.0000
  C   C41       1.0  0.13774  0.25193  0.57974  1.0000
  C   C42       1.0  0.86226  0.74807  0.42026  1.0000
  C   C43       1.0  0.21220  0.27837  0.47269  1.0000
  C   C44       1.0  0.78780  0.72163  0.52731  1.0000
  C   C45       1.0  0.35030  0.21301  0.48306  1.0000
  C   C46       1.0  0.64970  0.78699  0.51694  1.0000
  C   C47       1.0  0.41417  0.12406  0.59980  1.0000
  C   C48       1.0  0.58583  0.87594  0.40020  1.0000
  C   C49       1.0  0.55722  0.05887  0.61773  1.0000
  C   C50       1.0  0.44278  0.94113  0.38226  1.0000
  C   C51       1.0  0.61465  0.97347  0.73237  1.0000
  C   C52       1.0  0.38536  0.02653  0.26763  1.0000
  C   C53       1.0  0.53310  0.94480  0.83726  1.0000
  C   C54       1.0  0.46690  0.05520  0.16273  1.0000
  C   C55       1.0  0.58813  0.85420  0.95688  1.0000
  C   C56       1.0  0.41188  0.14580  0.04313  1.0000
  C   C57       1.0  0.50367  0.82768  0.05368  1.0000
  C   C58       1.0  0.49633  0.17232  0.94632  1.0000
  C   C59       1.0  0.36392  0.89524  0.03164  1.0000
  C   C60       1.0  0.63609  0.10476  0.96836  1.0000
  C   C61       1.0  0.33044  0.10182  0.70254  1.0000
  C   C62       1.0  0.66956  0.89818  0.29747  1.0000
  C   C63       1.0  0.39096  0.00831  0.82338  1.0000
  C   C64       1.0  0.60904  0.99168  0.17662  1.0000
  N   N1        1.0  0.44272  0.59178  0.59422  1.0000
  N   N2        1.0  0.55728  0.40822  0.40579  1.0000
  N   N3        1.0  0.94322  0.18124  0.44212  1.0000
  N   N4        1.0  0.05678  0.81876  0.55788  1.0000
  N   N5        1.0  0.19493  0.16600  0.69041  1.0000
  N   N6        1.0  0.80507  0.83400  0.30959  1.0000
  N   N7        1.0  0.31013  0.98352  0.92011  1.0000
  N   N8        1.0  0.68987  0.01647  0.07989  1.0000
  O   O1        1.0  0.86863  0.18666  0.78082  1.0000
  O   O2        1.0  0.13137  0.81335  0.21918  1.0000
  O   O3        1.0  0.91306  0.35505  0.78477  1.0000
  O   O4        1.0  0.08693  0.64495  0.21523  1.0000
  O   O5        1.0  0.93232  0.10131  0.06478  1.0000
  O   O6        1.0  0.06768  0.89869  0.93522  1.0000
  O   O7        1.0  0.10738  0.16456  0.03868  1.0000
  O   O8        1.0  0.89262  0.83544  0.96132  1.0000
