data_image0
_chemical_formula_structural       Cd2H32C42N4O8
_chemical_formula_sum              "Cd2 H32 C42 N4 O8"
_cell_length_a       8.70432
_cell_length_b       10.5572
_cell_length_c       10.8689
_cell_angle_alpha    106.542
_cell_angle_beta     91.8936
_cell_angle_gamma    91.4052

_space_group_name_H-M_alt    "P 1"
_space_group_IT_number       1

loop_
  _space_group_symop_operation_xyz
  'x, y, z'

loop_
  _atom_site_type_symbol
  _atom_site_label
  _atom_site_symmetry_multiplicity
  _atom_site_fract_x
  _atom_site_fract_y
  _atom_site_fract_z
  _atom_site_occupancy
  Cd  Cd1       1.0  0.32174  0.82727  0.13366  1.0000
  Cd  Cd2       1.0  0.67826  0.17273  0.86635  1.0000
  H   H1        1.0  0.06122  0.19658  0.02088  1.0000
  H   H2        1.0  0.93878  0.80342  0.97911  1.0000
  H   H3        1.0  0.96804  0.42359  0.07412  1.0000
  H   H4        1.0  0.03195  0.57641  0.92588  1.0000
  H   H5        1.0  0.13251  0.49085  0.46682  1.0000
  H   H6        1.0  0.86750  0.50915  0.53318  1.0000
  H   H7        1.0  0.22854  0.26223  0.41151  1.0000
  H   H8        1.0  0.77146  0.73777  0.58849  1.0000
  H   H9        1.0  0.99371  0.66021  0.40887  1.0000
  H   H10       1.0  0.00628  0.33979  0.59113  1.0000
  H   H11       1.0  0.89205  0.62669  0.25633  1.0000
  H   H12       1.0  0.10795  0.37331  0.74367  1.0000
  H   H13       1.0  0.24151  0.85784  0.86434  1.0000
  H   H14       1.0  0.75849  0.14216  0.13566  1.0000
  H   H15       1.0  0.28330  0.75911  0.63002  1.0000
  H   H16       1.0  0.71670  0.24089  0.36999  1.0000
  H   H17       1.0  0.58263  0.48159  0.73644  1.0000
  H   H18       1.0  0.41737  0.51841  0.26356  1.0000
  H   H19       1.0  0.53291  0.59522  0.96366  1.0000
  H   H20       1.0  0.46709  0.40478  0.03634  1.0000
  H   H21       1.0  0.40069  0.60396  0.46241  1.0000
  H   H22       1.0  0.59931  0.39604  0.53759  1.0000
  H   H23       1.0  0.67493  0.87359  0.06586  1.0000
  H   H24       1.0  0.32506  0.12641  0.93414  1.0000
  H   H25       1.0  0.92302  0.95206  0.18268  1.0000
  H   H26       1.0  0.07698  0.04794  0.81732  1.0000
  H   H27       1.0  0.71078  0.92381  0.53012  1.0000
  H   H28       1.0  0.28922  0.07619  0.46989  1.0000
  H   H29       1.0  0.47241  0.83985  0.39614  1.0000
  H   H30       1.0  0.52759  0.16015  0.60386  1.0000
  H   H31       1.0  0.07936  0.01015  0.37790  1.0000
  H   H32       1.0  0.92064  0.98985  0.62210  1.0000
  C   C1        1.0  0.21597  0.07983  0.17861  1.0000
  C   C2        1.0  0.78403  0.92017  0.82139  1.0000
  C   C3        1.0  0.15267  0.21488  0.21239  1.0000
  C   C4        1.0  0.84733  0.78512  0.78761  1.0000
  C   C5        1.0  0.07779  0.26131  0.11836  1.0000
  C   C6        1.0  0.92221  0.73869  0.88164  1.0000
  C   C7        1.0  0.02425  0.38922  0.14929  1.0000
  C   C8        1.0  0.97574  0.61078  0.85071  1.0000
  C   C9        1.0  0.04411  0.47348  0.27486  1.0000
  C   C10       1.0  0.95588  0.52652  0.72514  1.0000
  C   C11       1.0  0.11616  0.42577  0.36914  1.0000
  C   C12       1.0  0.88383  0.57423  0.63086  1.0000
  C   C13       1.0  0.16976  0.29791  0.33853  1.0000
  C   C14       1.0  0.83024  0.70209  0.66147  1.0000
  C   C15       1.0  0.00145  0.61624  0.30489  1.0000
  C   C16       1.0  0.99854  0.38376  0.69511  1.0000
  C   C17       1.0  0.12969  0.69013  0.25753  1.0000
  C   C18       1.0  0.87031  0.30987  0.74247  1.0000
  C   C19       1.0  0.31607  0.77474  0.83081  1.0000
  C   C20       1.0  0.68393  0.22526  0.16919  1.0000
  C   C21       1.0  0.33952  0.71882  0.70113  1.0000
  C   C22       1.0  0.66048  0.28118  0.29887  1.0000
  C   C23       1.0  0.43525  0.61041  0.66180  1.0000
  C   C24       1.0  0.56475  0.38959  0.33820  1.0000
  C   C25       1.0  0.50525  0.56409  0.75903  1.0000
  C   C26       1.0  0.49475  0.43591  0.24097  1.0000
  C   C27       1.0  0.47746  0.62684  0.88631  1.0000
  C   C28       1.0  0.52254  0.37316  0.11370  1.0000
  C   C29       1.0  0.45806  0.55361  0.52538  1.0000
  C   C30       1.0  0.54194  0.44639  0.47463  1.0000
  C   C31       1.0  0.68767  0.88301  0.16827  1.0000
  C   C32       1.0  0.31233  0.11699  0.83174  1.0000
  C   C33       1.0  0.82643  0.92885  0.23468  1.0000
  C   C34       1.0  0.17357  0.07115  0.76532  1.0000
  C   C35       1.0  0.84062  0.94446  0.36751  1.0000
  C   C36       1.0  0.15938  0.05554  0.63249  1.0000
  C   C37       1.0  0.70958  0.91242  0.42710  1.0000
  C   C38       1.0  0.29042  0.08758  0.57290  1.0000
  C   C39       1.0  0.57600  0.86616  0.35389  1.0000
  C   C40       1.0  0.42400  0.13384  0.64611  1.0000
  C   C41       1.0  0.98671  0.99092  0.43632  1.0000
  C   C42       1.0  0.01329  0.00908  0.56369  1.0000
  N   N1        1.0  0.38416  0.73018  0.92279  1.0000
  N   N2        1.0  0.61584  0.26982  0.07721  1.0000
  N   N3        1.0  0.56426  0.85104  0.22614  1.0000
  N   N4        1.0  0.43574  0.14896  0.77386  1.0000
  O   O1        1.0  0.20628  0.00703  0.06254  1.0000
  O   O2        1.0  0.79372  0.99297  0.93745  1.0000
  O   O3        1.0  0.27843  0.03994  0.26893  1.0000
  O   O4        1.0  0.72157  0.96006  0.73107  1.0000
  O   O5        1.0  0.10052  0.72118  0.15330  1.0000
  O   O6        1.0  0.89948  0.27882  0.84670  1.0000
  O   O7        1.0  0.25838  0.71263  0.31837  1.0000
  O   O8        1.0  0.74162  0.28737  0.68163  1.0000
