data_image0
_chemical_formula_structural       Cd2H48C56S4N20
_chemical_formula_sum              "Cd2 H48 C56 S4 N20"
_cell_length_a       10.8523
_cell_length_b       10.8523
_cell_length_c       13.1172
_cell_angle_alpha    72.9544
_cell_angle_beta     72.9542
_cell_angle_gamma    84.5261

_space_group_name_H-M_alt    "P 1"
_space_group_IT_number       1

loop_
  _space_group_symop_operation_xyz
  'x, y, z'

loop_
  _atom_site_type_symbol
  _atom_site_label
  _atom_site_symmetry_multiplicity
  _atom_site_fract_x
  _atom_site_fract_y
  _atom_site_fract_z
  _atom_site_occupancy
  Cd  Cd1       1.0  0.99999  0.50000  0.50000  1.0000
  Cd  Cd2       1.0  0.50000  0.00000  0.00000  1.0000
  H   H1        1.0  0.09695  0.71133  0.80729  1.0000
  H   H2        1.0  0.28867  0.90305  0.69271  1.0000
  H   H3        1.0  0.90305  0.28867  0.19271  1.0000
  H   H4        1.0  0.71133  0.09695  0.30729  1.0000
  H   H5        1.0  0.15329  0.76844  0.95499  1.0000
  H   H6        1.0  0.23156  0.84671  0.54500  1.0000
  H   H7        1.0  0.84671  0.23156  0.04501  1.0000
  H   H8        1.0  0.76844  0.15329  0.45499  1.0000
  H   H9        1.0  0.78904  0.62173  0.18434  1.0000
  H   H10       1.0  0.37827  0.21096  0.31566  1.0000
  H   H11       1.0  0.21096  0.37827  0.81566  1.0000
  H   H12       1.0  0.62173  0.78904  0.68434  1.0000
  H   H13       1.0  0.73443  0.55833  0.03782  1.0000
  H   H14       1.0  0.44166  0.26557  0.46219  1.0000
  H   H15       1.0  0.26557  0.44166  0.96218  1.0000
  H   H16       1.0  0.55834  0.73443  0.53782  1.0000
  H   H17       1.0  0.06404  0.60456  0.70595  1.0000
  H   H18       1.0  0.39544  0.93596  0.79405  1.0000
  H   H19       1.0  0.93597  0.39544  0.29405  1.0000
  H   H20       1.0  0.60456  0.06403  0.20595  1.0000
  H   H21       1.0  0.69818  0.51920  0.69484  1.0000
  H   H22       1.0  0.48081  0.30181  0.80516  1.0000
  H   H23       1.0  0.30182  0.48081  0.30516  1.0000
  H   H24       1.0  0.51919  0.69819  0.19484  1.0000
  H   H25       1.0  0.67075  0.57219  0.89504  1.0000
  H   H26       1.0  0.42781  0.32925  0.60497  1.0000
  H   H27       1.0  0.32925  0.42781  0.10496  1.0000
  H   H28       1.0  0.57219  0.67075  0.39503  1.0000
  H   H29       1.0  0.04664  0.65173  0.22370  1.0000
  H   H30       1.0  0.34827  0.95336  0.27630  1.0000
  H   H31       1.0  0.95336  0.34827  0.77630  1.0000
  H   H32       1.0  0.65173  0.04664  0.72370  1.0000
  H   H33       1.0  0.91781  0.76207  0.23045  1.0000
  H   H34       1.0  0.23793  0.08218  0.26955  1.0000
  H   H35       1.0  0.08219  0.23793  0.76955  1.0000
  H   H36       1.0  0.76207  0.91782  0.73045  1.0000
  H   H37       1.0  0.27721  0.73438  0.12384  1.0000
  H   H38       1.0  0.26563  0.72279  0.37616  1.0000
  H   H39       1.0  0.72279  0.26563  0.87616  1.0000
  H   H40       1.0  0.73437  0.27721  0.62384  1.0000
  H   H41       1.0  0.20403  0.13494  0.04688  1.0000
  H   H42       1.0  0.86506  0.79597  0.45312  1.0000
  H   H43       1.0  0.79597  0.86507  0.95312  1.0000
  H   H44       1.0  0.13494  0.20404  0.54688  1.0000
  H   H45       1.0  0.96988  0.00469  0.12047  1.0000
  H   H46       1.0  0.99531  0.03012  0.37953  1.0000
  H   H47       1.0  0.03012  0.99531  0.87953  1.0000
  H   H48       1.0  0.00470  0.96988  0.62046  1.0000
  C   C1        1.0  0.91027  0.63356  0.91202  1.0000
  C   C2        1.0  0.36644  0.08973  0.58798  1.0000
  C   C3        1.0  0.08973  0.36644  0.08798  1.0000
  C   C4        1.0  0.63356  0.91027  0.41202  1.0000
  C   C5        1.0  0.25576  0.51428  0.58238  1.0000
  C   C6        1.0  0.48571  0.74423  0.91761  1.0000
  C   C7        1.0  0.74423  0.48571  0.41760  1.0000
  C   C8        1.0  0.51429  0.25577  0.08239  1.0000
  C   C9        1.0  0.02829  0.69232  0.88953  1.0000
  C   C10       1.0  0.30768  0.97171  0.61048  1.0000
  C   C11       1.0  0.97172  0.30768  0.11047  1.0000
  C   C12       1.0  0.69232  0.02828  0.38952  1.0000
  C   C13       1.0  0.05959  0.72549  0.97364  1.0000
  C   C14       1.0  0.27451  0.94041  0.52637  1.0000
  C   C15       1.0  0.94041  0.27451  0.02637  1.0000
  C   C16       1.0  0.72549  0.05959  0.47363  1.0000
  C   C17       1.0  0.97378  0.70251  0.08002  1.0000
  C   C18       1.0  0.29750  0.02622  0.41998  1.0000
  C   C19       1.0  0.02622  0.29750  0.91998  1.0000
  C   C20       1.0  0.70251  0.97378  0.58002  1.0000
  C   C21       1.0  0.85670  0.64263  0.10157  1.0000
  C   C22       1.0  0.35737  0.14330  0.39844  1.0000
  C   C23       1.0  0.14331  0.35737  0.89843  1.0000
  C   C24       1.0  0.64263  0.85670  0.60157  1.0000
  C   C25       1.0  0.82494  0.60723  0.01871  1.0000
  C   C26       1.0  0.39277  0.17506  0.48129  1.0000
  C   C27       1.0  0.17506  0.39277  0.98129  1.0000
  C   C28       1.0  0.60723  0.82494  0.51871  1.0000
  C   C29       1.0  0.96080  0.59057  0.72788  1.0000
  C   C30       1.0  0.40943  0.03920  0.77212  1.0000
  C   C31       1.0  0.03920  0.40943  0.27212  1.0000
  C   C32       1.0  0.59057  0.96080  0.22788  1.0000
  C   C33       1.0  0.77052  0.54329  0.72782  1.0000
  C   C34       1.0  0.45671  0.22948  0.77218  1.0000
  C   C35       1.0  0.22948  0.45671  0.27218  1.0000
  C   C36       1.0  0.54329  0.77052  0.22782  1.0000
  C   C37       1.0  0.75543  0.56964  0.82706  1.0000
  C   C38       1.0  0.43036  0.24456  0.67295  1.0000
  C   C39       1.0  0.24457  0.43036  0.17294  1.0000
  C   C40       1.0  0.56963  0.75543  0.32706  1.0000
  C   C41       1.0  0.00568  0.73572  0.17346  1.0000
  C   C42       1.0  0.26428  0.99432  0.32654  1.0000
  C   C43       1.0  0.99432  0.26428  0.82654  1.0000
  C   C44       1.0  0.73572  0.00568  0.67346  1.0000
  C   C45       1.0  0.22781  0.82707  0.11373  1.0000
  C   C46       1.0  0.17293  0.77219  0.38628  1.0000
  C   C47       1.0  0.77219  0.17293  0.88628  1.0000
  C   C48       1.0  0.82707  0.22782  0.61372  1.0000
  C   C49       1.0  0.18407  0.03268  0.07437  1.0000
  C   C50       1.0  0.96732  0.81593  0.42563  1.0000
  C   C51       1.0  0.81593  0.96732  0.92563  1.0000
  C   C52       1.0  0.03268  0.18407  0.57437  1.0000
  C   C53       1.0  0.06835  0.97007  0.11057  1.0000
  C   C54       1.0  0.02993  0.93165  0.38943  1.0000
  C   C55       1.0  0.93165  0.02993  0.88943  1.0000
  C   C56       1.0  0.97007  0.06835  0.61057  1.0000
  S   S1        1.0  0.33194  0.59076  0.63467  1.0000
  S   S2        1.0  0.40924  0.66804  0.86531  1.0000
  S   S3        1.0  0.66803  0.40923  0.36532  1.0000
  S   S4        1.0  0.59076  0.33196  0.13469  1.0000
  N   N1        1.0  0.19852  0.45664  0.54623  1.0000
  N   N2        1.0  0.54334  0.80147  0.95378  1.0000
  N   N3        1.0  0.80147  0.54334  0.45377  1.0000
  N   N4        1.0  0.45666  0.19853  0.04623  1.0000
  N   N5        1.0  0.87721  0.60015  0.82628  1.0000
  N   N6        1.0  0.39985  0.12278  0.67372  1.0000
  N   N7        1.0  0.12279  0.39985  0.17372  1.0000
  N   N8        1.0  0.60015  0.87721  0.32628  1.0000
  N   N9        1.0  0.89873  0.55589  0.66736  1.0000
  N   N10       1.0  0.44412  0.10127  0.83264  1.0000
  N   N11       1.0  0.10127  0.44412  0.33263  1.0000
  N   N12       1.0  0.55588  0.89873  0.16736  1.0000
  N   N13       1.0  0.09748  0.83989  0.13600  1.0000
  N   N14       1.0  0.16011  0.90252  0.36400  1.0000
  N   N15       1.0  0.90252  0.16011  0.86400  1.0000
  N   N16       1.0  0.83989  0.09748  0.63600  1.0000
  N   N17       1.0  0.28256  0.94227  0.07685  1.0000
  N   N18       1.0  0.05774  0.71744  0.42315  1.0000
  N   N19       1.0  0.71744  0.05774  0.92315  1.0000
  N   N20       1.0  0.94226  0.28256  0.57685  1.0000
