data_image0
_chemical_formula_structural       Cd4H32C36O20
_chemical_formula_sum              "Cd4 H32 C36 O20"
_cell_length_a       7.54741
_cell_length_b       10.7475
_cell_length_c       11.8508
_cell_angle_alpha    89.9999
_cell_angle_beta     89.9998
_cell_angle_gamma    108.463

_space_group_name_H-M_alt    "P 1"
_space_group_IT_number       1

loop_
  _space_group_symop_operation_xyz
  'x, y, z'

loop_
  _atom_site_type_symbol
  _atom_site_label
  _atom_site_symmetry_multiplicity
  _atom_site_fract_x
  _atom_site_fract_y
  _atom_site_fract_z
  _atom_site_occupancy
  Cd  Cd1       1.0  0.14956  0.46902  0.29953  1.0000
  Cd  Cd2       1.0  0.35044  0.53098  0.79953  1.0000
  Cd  Cd3       1.0  0.85044  0.53098  0.70047  1.0000
  Cd  Cd4       1.0  0.64956  0.46902  0.20047  1.0000
  H   H1        1.0  0.98040  0.63752  0.39050  1.0000
  H   H2        1.0  0.51960  0.36248  0.89050  1.0000
  H   H3        1.0  0.01960  0.36248  0.60950  1.0000
  H   H4        1.0  0.48040  0.63752  0.10951  1.0000
  H   H5        1.0  0.12693  0.63990  0.48940  1.0000
  H   H6        1.0  0.37307  0.36010  0.98940  1.0000
  H   H7        1.0  0.87307  0.36009  0.51060  1.0000
  H   H8        1.0  0.62693  0.63990  0.01060  1.0000
  H   H9        1.0  0.93203  0.67538  0.99564  1.0000
  H   H10       1.0  0.56796  0.32462  0.49564  1.0000
  H   H11       1.0  0.06797  0.32462  0.00436  1.0000
  H   H12       1.0  0.43204  0.67538  0.50436  1.0000
  H   H13       1.0  0.16795  0.71103  0.95312  1.0000
  H   H14       1.0  0.33205  0.28897  0.45312  1.0000
  H   H15       1.0  0.83205  0.28897  0.04688  1.0000
  H   H16       1.0  0.66795  0.71103  0.54688  1.0000
  H   H17       1.0  0.92595  0.79915  0.20905  1.0000
  H   H18       1.0  0.57405  0.20085  0.70905  1.0000
  H   H19       1.0  0.07405  0.20085  0.79095  1.0000
  H   H20       1.0  0.42596  0.79915  0.29095  1.0000
  H   H21       1.0  0.99433  0.02793  0.27432  1.0000
  H   H22       1.0  0.50567  0.97208  0.77431  1.0000
  H   H23       1.0  0.00567  0.97207  0.72569  1.0000
  H   H24       1.0  0.49433  0.02792  0.22569  1.0000
  H   H25       1.0  0.39428  0.16064  0.00563  1.0000
  H   H26       1.0  0.10572  0.83937  0.50562  1.0000
  H   H27       1.0  0.60572  0.83937  0.99437  1.0000
  H   H28       1.0  0.89428  0.16063  0.49437  1.0000
  H   H29       1.0  0.32350  0.93232  0.93887  1.0000
  H   H30       1.0  0.17650  0.06769  0.43887  1.0000
  H   H31       1.0  0.67650  0.06769  0.06113  1.0000
  H   H32       1.0  0.82350  0.93231  0.56113  1.0000
  C   C1        1.0  0.10587  0.61866  0.11377  1.0000
  C   C2        1.0  0.39413  0.38135  0.61377  1.0000
  C   C3        1.0  0.89413  0.38135  0.88623  1.0000
  C   C4        1.0  0.60587  0.61865  0.38623  1.0000
  C   C5        1.0  0.07684  0.71157  0.02528  1.0000
  C   C6        1.0  0.42315  0.28843  0.52527  1.0000
  C   C7        1.0  0.92315  0.28843  0.97472  1.0000
  C   C8        1.0  0.57685  0.71157  0.47472  1.0000
  C   C9        1.0  0.12187  0.85004  0.06962  1.0000
  C   C10       1.0  0.37813  0.14997  0.56961  1.0000
  C   C11       1.0  0.87813  0.14997  0.93039  1.0000
  C   C12       1.0  0.62187  0.85003  0.43038  1.0000
  C   C13       1.0  0.03041  0.87786  0.16486  1.0000
  C   C14       1.0  0.46959  0.12214  0.66485  1.0000
  C   C15       1.0  0.96959  0.12214  0.83514  1.0000
  C   C16       1.0  0.53042  0.87786  0.33514  1.0000
  C   C17       1.0  0.06865  0.00637  0.20197  1.0000
  C   C18       1.0  0.43135  0.99363  0.70197  1.0000
  C   C19       1.0  0.93135  0.99363  0.79803  1.0000
  C   C20       1.0  0.56865  0.00637  0.29803  1.0000
  C   C21       1.0  0.19987  0.11002  0.14516  1.0000
  C   C22       1.0  0.30013  0.88998  0.64515  1.0000
  C   C23       1.0  0.80013  0.88998  0.85485  1.0000
  C   C24       1.0  0.69988  0.11002  0.35485  1.0000
  C   C25       1.0  0.29203  0.08187  0.05058  1.0000
  C   C26       1.0  0.20797  0.91814  0.55058  1.0000
  C   C27       1.0  0.70797  0.91814  0.94942  1.0000
  C   C28       1.0  0.79203  0.08186  0.44942  1.0000
  C   C29       1.0  0.25292  0.95320  0.01333  1.0000
  C   C30       1.0  0.24708  0.04680  0.51333  1.0000
  C   C31       1.0  0.74708  0.04680  0.98667  1.0000
  C   C32       1.0  0.75293  0.95320  0.48667  1.0000
  C   C33       1.0  0.23689  0.24733  0.18422  1.0000
  C   C34       1.0  0.26311  0.75267  0.68421  1.0000
  C   C35       1.0  0.76311  0.75267  0.81579  1.0000
  C   C36       1.0  0.73690  0.24733  0.31578  1.0000
  O   O1        1.0  0.96688  0.52474  0.15199  1.0000
  O   O2        1.0  0.53312  0.47526  0.65199  1.0000
  O   O3        1.0  0.03312  0.47526  0.84800  1.0000
  O   O4        1.0  0.46688  0.52474  0.34800  1.0000
  O   O5        1.0  0.26856  0.63445  0.15237  1.0000
  O   O6        1.0  0.23144  0.36556  0.65237  1.0000
  O   O7        1.0  0.73144  0.36555  0.84763  1.0000
  O   O8        1.0  0.76856  0.63444  0.34763  1.0000
  O   O9        1.0  0.15636  0.26524  0.27504  1.0000
  O   O10       1.0  0.34365  0.73476  0.77504  1.0000
  O   O11       1.0  0.84365  0.73476  0.72496  1.0000
  O   O12       1.0  0.65635  0.26524  0.22496  1.0000
  O   O13       1.0  0.34300  0.34388  0.12665  1.0000
  O   O14       1.0  0.15700  0.65613  0.62665  1.0000
  O   O15       1.0  0.65700  0.65613  0.87335  1.0000
  O   O16       1.0  0.84300  0.34387  0.37335  1.0000
  O   O17       1.0  0.10651  0.63041  0.40581  1.0000
  O   O18       1.0  0.39349  0.36959  0.90580  1.0000
  O   O19       1.0  0.89349  0.36959  0.59420  1.0000
  O   O20       1.0  0.60651  0.63041  0.09420  1.0000
