data_image0
_chemical_formula_structural       Cd2H22C36N4O8
_chemical_formula_sum              "Cd2 H22 C36 N4 O8"
_cell_length_a       5.90579
_cell_length_b       10.553
_cell_length_c       12.524
_cell_angle_alpha    106.374
_cell_angle_beta     93.1127
_cell_angle_gamma    92.0283

_space_group_name_H-M_alt    "P 1"
_space_group_IT_number       1

loop_
  _space_group_symop_operation_xyz
  'x, y, z'

loop_
  _atom_site_type_symbol
  _atom_site_label
  _atom_site_symmetry_multiplicity
  _atom_site_fract_x
  _atom_site_fract_y
  _atom_site_fract_z
  _atom_site_occupancy
  Cd  Cd1       1.0  0.64018  0.57693  0.39106  1.0000
  Cd  Cd2       1.0  0.35981  0.42307  0.60894  1.0000
  H   H1        1.0  0.21275  0.56630  0.20278  1.0000
  H   H2        1.0  0.78725  0.43370  0.79721  1.0000
  H   H3        1.0  0.19977  0.58558  0.00593  1.0000
  H   H4        1.0  0.80025  0.41443  0.99406  1.0000
  H   H5        1.0  0.52930  0.69843  0.94790  1.0000
  H   H6        1.0  0.47072  0.30159  0.05210  1.0000
  H   H7        1.0  0.84609  0.80339  0.08904  1.0000
  H   H8        1.0  0.15393  0.19662  0.91097  1.0000
  H   H9        1.0  0.97188  0.96318  0.24503  1.0000
  H   H10       1.0  0.02810  0.03683  0.75498  1.0000
  H   H11       1.0  0.28411  0.04985  0.39187  1.0000
  H   H12       1.0  0.71588  0.95016  0.60813  1.0000
  H   H13       1.0  0.37398  0.91972  0.52954  1.0000
  H   H14       1.0  0.62601  0.08028  0.47046  1.0000
  H   H15       1.0  0.12808  0.72046  0.52166  1.0000
  H   H16       1.0  0.87191  0.27954  0.47834  1.0000
  H   H17       1.0  0.51426  0.10886  0.23895  1.0000
  H   H18       1.0  0.48574  0.89115  0.76106  1.0000
  H   H19       1.0  0.36245  0.94798  0.06547  1.0000
  H   H20       1.0  0.63755  0.05201  0.93454  1.0000
  H   H21       1.0  0.77629  0.18199  0.06530  1.0000
  H   H22       1.0  0.22372  0.81800  0.93470  1.0000
  C   C1        1.0  0.34819  0.62000  0.17482  1.0000
  C   C2        1.0  0.65182  0.38000  0.82517  1.0000
  C   C3        1.0  0.34043  0.63067  0.06619  1.0000
  C   C4        1.0  0.65958  0.36933  0.93381  1.0000
  C   C5        1.0  0.52323  0.69556  0.03407  1.0000
  C   C6        1.0  0.47677  0.30445  0.96593  1.0000
  C   C7        1.0  0.70074  0.75335  0.11245  1.0000
  C   C8        1.0  0.29927  0.24666  0.88755  1.0000
  C   C9        1.0  0.69554  0.74008  0.22037  1.0000
  C   C10       1.0  0.30446  0.25992  0.77963  1.0000
  C   C11       1.0  0.88498  0.79591  0.30551  1.0000
  C   C12       1.0  0.11502  0.20409  0.69449  1.0000
  C   C13       1.0  0.01319  0.91017  0.30598  1.0000
  C   C14       1.0  0.98680  0.08983  0.69402  1.0000
  C   C15       1.0  0.18981  0.95758  0.38763  1.0000
  C   C16       1.0  0.81019  0.04242  0.61237  1.0000
  C   C17       1.0  0.23660  0.88809  0.46497  1.0000
  C   C18       1.0  0.76339  0.11191  0.53502  1.0000
  C   C19       1.0  0.09983  0.77619  0.46103  1.0000
  C   C20       1.0  0.90016  0.22381  0.53897  1.0000
  C   C21       1.0  0.31751  0.32773  0.36180  1.0000
  C   C22       1.0  0.68249  0.67227  0.63820  1.0000
  C   C23       1.0  0.23127  0.23415  0.25220  1.0000
  C   C24       1.0  0.76873  0.76585  0.74780  1.0000
  C   C25       1.0  0.35079  0.12348  0.20050  1.0000
  C   C26       1.0  0.64921  0.87652  0.79951  1.0000
  C   C27       1.0  0.26365  0.03285  0.10176  1.0000
  C   C28       1.0  0.73635  0.96715  0.89825  1.0000
  C   C29       1.0  0.05081  0.04881  0.05137  1.0000
  C   C30       1.0  0.94918  0.95118  0.94863  1.0000
  C   C31       1.0  0.93745  0.16269  0.10226  1.0000
  C   C32       1.0  0.06256  0.83731  0.89774  1.0000
  C   C33       1.0  0.02426  0.25483  0.20047  1.0000
  C   C34       1.0  0.97574  0.74517  0.79953  1.0000
  C   C35       1.0  0.88835  0.37340  0.24837  1.0000
  C   C36       1.0  0.11165  0.62660  0.75163  1.0000
  N   N1        1.0  0.52337  0.67162  0.24936  1.0000
  N   N2        1.0  0.47664  0.32838  0.75064  1.0000
  N   N3        1.0  0.92727  0.73261  0.38366  1.0000
  N   N4        1.0  0.07273  0.26738  0.61633  1.0000
  O   O1        1.0  0.30835  0.45147  0.37457  1.0000
  O   O2        1.0  0.69165  0.54853  0.62543  1.0000
  O   O3        1.0  0.38721  0.27581  0.43716  1.0000
  O   O4        1.0  0.61278  0.72419  0.56285  1.0000
  O   O5        1.0  0.81672  0.38471  0.34566  1.0000
  O   O6        1.0  0.18328  0.61529  0.65433  1.0000
  O   O7        1.0  0.84795  0.44951  0.18944  1.0000
  O   O8        1.0  0.15205  0.55049  0.81055  1.0000
