data_image0
_chemical_formula_structural       Zn4H42C66N10O20
_chemical_formula_sum              "Zn4 H42 C66 N10 O20"
_cell_length_a       9.691
_cell_length_b       12.6626
_cell_length_c       14.2739
_cell_angle_alpha    114.665
_cell_angle_beta     90.7343
_cell_angle_gamma    109.101

_space_group_name_H-M_alt    "P 1"
_space_group_IT_number       1

loop_
  _space_group_symop_operation_xyz
  'x, y, z'

loop_
  _atom_site_type_symbol
  _atom_site_label
  _atom_site_symmetry_multiplicity
  _atom_site_fract_x
  _atom_site_fract_y
  _atom_site_fract_z
  _atom_site_occupancy
  Zn  Zn1       1.0  0.62216  0.59258  0.35889  1.0000
  Zn  Zn2       1.0  0.37784  0.40742  0.64111  1.0000
  Zn  Zn3       1.0  0.87880  0.86544  0.44033  1.0000
  Zn  Zn4       1.0  0.12119  0.13456  0.55967  1.0000
  H   H1        1.0  0.67990  0.03960  0.45716  1.0000
  H   H2        1.0  0.32010  0.96040  0.54284  1.0000
  H   H3        1.0  0.35850  0.58108  0.39210  1.0000
  H   H4        1.0  0.64150  0.41892  0.60790  1.0000
  H   H5        1.0  0.39099  0.47975  0.41865  1.0000
  H   H6        1.0  0.60901  0.52025  0.58135  1.0000
  H   H7        1.0  0.15574  0.15075  0.75740  1.0000
  H   H8        1.0  0.84426  0.84925  0.24260  1.0000
  H   H9        1.0  0.15105  0.14390  0.92917  1.0000
  H   H10       1.0  0.84895  0.85609  0.07084  1.0000
  H   H11       1.0  0.81187  0.77864  0.77999  1.0000
  H   H12       1.0  0.18812  0.22136  0.22001  1.0000
  H   H13       1.0  0.44834  0.14840  0.35720  1.0000
  H   H14       1.0  0.55166  0.85160  0.64280  1.0000
  H   H15       1.0  0.35836  0.69323  0.19001  1.0000
  H   H16       1.0  0.64164  0.30677  0.80999  1.0000
  H   H17       1.0  0.84863  0.18085  0.29560  1.0000
  H   H18       1.0  0.15138  0.81915  0.70440  1.0000
  H   H19       1.0  0.34876  0.37167  0.96385  1.0000
  H   H20       1.0  0.65123  0.62833  0.03614  1.0000
  H   H21       1.0  0.91105  0.36211  0.47296  1.0000
  H   H22       1.0  0.08895  0.63789  0.52703  1.0000
  H   H23       1.0  0.56613  0.07977  0.96878  1.0000
  H   H24       1.0  0.43387  0.92022  0.03122  1.0000
  H   H25       1.0  0.43669  0.54408  0.14751  1.0000
  H   H26       1.0  0.56331  0.45591  0.85248  1.0000
  H   H27       1.0  0.72371  0.07942  0.10661  1.0000
  H   H28       1.0  0.27629  0.92057  0.89339  1.0000
  H   H29       1.0  0.82150  0.53561  0.50037  1.0000
  H   H30       1.0  0.17850  0.46439  0.49963  1.0000
  H   H31       1.0  0.24991  0.99924  0.19895  1.0000
  H   H32       1.0  0.75009  0.00076  0.80105  1.0000
  H   H33       1.0  0.42244  0.18515  0.91432  1.0000
  H   H34       1.0  0.57755  0.81484  0.08567  1.0000
  H   H35       1.0  0.79920  0.60931  0.80282  1.0000
  H   H36       1.0  0.20081  0.39069  0.19718  1.0000
  H   H37       1.0  0.82112  0.31847  0.61379  1.0000
  H   H38       1.0  0.17888  0.68154  0.38621  1.0000
  H   H39       1.0  0.97116  0.72816  0.97490  1.0000
  H   H40       1.0  0.02884  0.27184  0.02511  1.0000
  H   H41       1.0  0.17157  0.45080  0.88052  1.0000
  H   H42       1.0  0.82843  0.54920  0.11948  1.0000
  C   C1        1.0  0.98611  0.96837  0.66990  1.0000
  C   C2        1.0  0.01388  0.03163  0.33010  1.0000
  C   C3        1.0  0.77804  0.74592  0.58885  1.0000
  C   C4        1.0  0.22196  0.25408  0.41115  1.0000
  C   C5        1.0  0.08323  0.06803  0.76296  1.0000
  C   C6        1.0  0.91677  0.93196  0.23704  1.0000
  C   C7        1.0  0.88856  0.85971  0.67625  1.0000
  C   C8        1.0  0.11144  0.14029  0.32375  1.0000
  C   C9        1.0  0.08002  0.06530  0.85808  1.0000
  C   C10       1.0  0.91998  0.93469  0.14192  1.0000
  C   C11       1.0  0.88941  0.85946  0.77445  1.0000
  C   C12       1.0  0.11059  0.14054  0.22555  1.0000
  C   C13       1.0  0.98014  0.96011  0.86549  1.0000
  C   C14       1.0  0.01985  0.03988  0.13451  1.0000
  C   C15       1.0  0.42776  0.04871  0.31944  1.0000
  C   C16       1.0  0.57224  0.95130  0.68055  1.0000
  C   C17       1.0  0.51722  0.00455  0.36025  1.0000
  C   C18       1.0  0.48278  0.99545  0.63975  1.0000
  C   C19       1.0  0.58522  0.82495  0.35308  1.0000
  C   C20       1.0  0.41478  0.17505  0.64692  1.0000
  C   C21       1.0  0.49064  0.87387  0.31321  1.0000
  C   C22       1.0  0.50936  0.12613  0.68679  1.0000
  C   C23       1.0  0.37848  0.79263  0.22610  1.0000
  C   C24       1.0  0.62152  0.20737  0.77391  1.0000
  C   C25       1.0  0.01349  0.30884  0.68212  1.0000
  C   C26       1.0  0.98651  0.69116  0.31788  1.0000
  C   C27       1.0  0.81027  0.25733  0.31012  1.0000
  C   C28       1.0  0.18973  0.74267  0.68988  1.0000
  C   C29       1.0  0.41592  0.36372  0.02058  1.0000
  C   C30       1.0  0.58408  0.63627  0.97941  1.0000
  C   C31       1.0  0.84609  0.35804  0.40796  1.0000
  C   C32       1.0  0.15391  0.64196  0.59203  1.0000
  C   C33       1.0  0.59453  0.15452  0.04831  1.0000
  C   C34       1.0  0.40547  0.84548  0.95169  1.0000
  C   C35       1.0  0.46367  0.46054  0.12326  1.0000
  C   C36       1.0  0.53634  0.53946  0.87674  1.0000
  C   C37       1.0  0.68152  0.15444  0.12429  1.0000
  C   C38       1.0  0.31848  0.84556  0.87571  1.0000
  C   C39       1.0  0.79528  0.45524  0.42407  1.0000
  C   C40       1.0  0.20472  0.54476  0.57592  1.0000
  C   C41       1.0  0.31808  0.96635  0.23287  1.0000
  C   C42       1.0  0.68192  0.03365  0.76713  1.0000
  C   C43       1.0  0.45584  0.26082  0.99374  1.0000
  C   C44       1.0  0.54415  0.73917  0.00625  1.0000
  C   C45       1.0  0.58415  0.35591  0.17185  1.0000
  C   C46       1.0  0.41585  0.64409  0.82815  1.0000
  C   C47       1.0  0.54282  0.25456  0.07003  1.0000
  C   C48       1.0  0.45718  0.74544  0.92997  1.0000
  C   C49       1.0  0.72241  0.25387  0.22849  1.0000
  C   C50       1.0  0.27759  0.74613  0.77151  1.0000
  C   C51       1.0  0.29296  0.83762  0.18378  1.0000
  C   C52       1.0  0.70704  0.16238  0.81622  1.0000
  C   C53       1.0  0.67432  0.35534  0.25240  1.0000
  C   C54       1.0  0.32568  0.64466  0.74760  1.0000
  C   C55       1.0  0.99683  0.41947  0.76639  1.0000
  C   C56       1.0  0.00317  0.58053  0.23361  1.0000
  C   C57       1.0  0.88802  0.46291  0.74553  1.0000
  C   C58       1.0  0.11198  0.53709  0.25447  1.0000
  C   C59       1.0  0.88011  0.57491  0.82119  1.0000
  C   C60       1.0  0.11990  0.42509  0.17882  1.0000
  C   C61       1.0  0.97479  0.64020  0.91665  1.0000
  C   C62       1.0  0.02521  0.35980  0.08335  1.0000
  C   C63       1.0  0.07982  0.59528  0.94004  1.0000
  C   C64       1.0  0.92018  0.40472  0.05997  1.0000
  C   C65       1.0  0.08929  0.48520  0.86418  1.0000
  C   C66       1.0  0.91071  0.51480  0.13583  1.0000
  N   N1        1.0  0.96146  0.95083  0.95901  1.0000
  N   N2        1.0  0.03854  0.04916  0.04100  1.0000
  N   N3        1.0  0.18610  0.76735  0.09207  1.0000
  N   N4        1.0  0.81390  0.23265  0.90793  1.0000
  N   N5        1.0  0.54496  0.45652  0.19680  1.0000
  N   N6        1.0  0.45504  0.54348  0.80319  1.0000
  N   N7        1.0  0.71166  0.45427  0.34862  1.0000
  N   N8        1.0  0.28834  0.54573  0.65137  1.0000
  N   N9        1.0  0.18284  0.65790  0.03431  1.0000
  N   N10       1.0  0.81716  0.34210  0.96569  1.0000
  O   O1        1.0  0.99001  0.98360  0.58403  1.0000
  O   O2        1.0  0.00999  0.01640  0.41597  1.0000
  O   O3        1.0  0.69304  0.66355  0.61032  1.0000
  O   O4        1.0  0.30696  0.33645  0.38969  1.0000
  O   O5        1.0  0.77435  0.73413  0.49337  1.0000
  O   O6        1.0  0.22565  0.26587  0.50663  1.0000
  O   O7        1.0  0.62518  0.08820  0.44252  1.0000
  O   O8        1.0  0.37482  0.91180  0.55748  1.0000
  O   O9        1.0  0.55835  0.70868  0.31172  1.0000
  O   O10       1.0  0.44165  0.29132  0.68828  1.0000
  O   O11       1.0  0.69604  0.90681  0.42729  1.0000
  O   O12       1.0  0.30395  0.09319  0.57271  1.0000
  O   O13       1.0  0.91677  0.24448  0.59835  1.0000
  O   O14       1.0  0.08323  0.75553  0.40165  1.0000
  O   O15       1.0  0.12864  0.28301  0.69418  1.0000
  O   O16       1.0  0.87136  0.71699  0.30583  1.0000
  O   O17       1.0  0.43718  0.56583  0.42377  1.0000
  O   O18       1.0  0.56283  0.43417  0.57622  1.0000
  O   O19       1.0  0.79402  0.39805  0.65307  1.0000
  O   O20       1.0  0.20598  0.60196  0.34693  1.0000
