data_image0
_chemical_formula_structural       Hg8H60C24N12Cl16
_chemical_formula_sum              "Hg8 H60 C24 N12 Cl16"
_cell_length_a       9.26338
_cell_length_b       12.1769
_cell_length_c       12.4229
_cell_angle_alpha    90
_cell_angle_beta     90
_cell_angle_gamma    94.0444

_space_group_name_H-M_alt    "P 1"
_space_group_IT_number       1

loop_
  _space_group_symop_operation_xyz
  'x, y, z'

loop_
  _atom_site_type_symbol
  _atom_site_label
  _atom_site_symmetry_multiplicity
  _atom_site_fract_x
  _atom_site_fract_y
  _atom_site_fract_z
  _atom_site_occupancy
  Hg  Hg1       1.0  0.62739  0.38534  0.05481  1.0000
  Hg  Hg2       1.0  0.37260  0.11466  0.55481  1.0000
  Hg  Hg3       1.0  0.37261  0.61466  0.94519  1.0000
  Hg  Hg4       1.0  0.62739  0.88534  0.44519  1.0000
  Hg  Hg5       1.0  0.76588  0.48755  0.74279  1.0000
  Hg  Hg6       1.0  0.23412  0.01245  0.24279  1.0000
  Hg  Hg7       1.0  0.23412  0.51245  0.25721  1.0000
  Hg  Hg8       1.0  0.76588  0.98755  0.75721  1.0000
  H   H1        1.0  0.08838  0.30988  0.28156  1.0000
  H   H2        1.0  0.91162  0.19012  0.78156  1.0000
  H   H3        1.0  0.91162  0.69012  0.71844  1.0000
  H   H4        1.0  0.08838  0.80989  0.21844  1.0000
  H   H5        1.0  0.42340  0.21072  0.03530  1.0000
  H   H6        1.0  0.57660  0.28927  0.53530  1.0000
  H   H7        1.0  0.57660  0.78928  0.96470  1.0000
  H   H8        1.0  0.42340  0.71073  0.46470  1.0000
  H   H9        1.0  0.53550  0.21239  0.93075  1.0000
  H   H10       1.0  0.46450  0.28761  0.43075  1.0000
  H   H11       1.0  0.46450  0.78761  0.06925  1.0000
  H   H12       1.0  0.53550  0.71239  0.56925  1.0000
  H   H13       1.0  0.89270  0.20682  0.04056  1.0000
  H   H14       1.0  0.10731  0.29318  0.54056  1.0000
  H   H15       1.0  0.10731  0.79318  0.95944  1.0000
  H   H16       1.0  0.89269  0.70682  0.45944  1.0000
  H   H17       1.0  0.95352  0.16340  0.16824  1.0000
  H   H18       1.0  0.04649  0.33660  0.66825  1.0000
  H   H19       1.0  0.04649  0.83659  0.83176  1.0000
  H   H20       1.0  0.95351  0.66340  0.33176  1.0000
  H   H21       1.0  0.12465  0.30526  0.09295  1.0000
  H   H22       1.0  0.87535  0.19474  0.59295  1.0000
  H   H23       1.0  0.87535  0.69474  0.90705  1.0000
  H   H24       1.0  0.12465  0.80526  0.40705  1.0000
  H   H25       1.0  0.98732  0.39865  0.07624  1.0000
  H   H26       1.0  0.01268  0.10135  0.57624  1.0000
  H   H27       1.0  0.01268  0.60135  0.92376  1.0000
  H   H28       1.0  0.98732  0.89865  0.42376  1.0000
  H   H29       1.0  0.87024  0.46918  0.23670  1.0000
  H   H30       1.0  0.12976  0.03082  0.73670  1.0000
  H   H31       1.0  0.12976  0.53082  0.76330  1.0000
  H   H32       1.0  0.87024  0.96918  0.26330  1.0000
  H   H33       1.0  0.92669  0.42913  0.36745  1.0000
  H   H34       1.0  0.07331  0.07087  0.86745  1.0000
  H   H35       1.0  0.07331  0.57087  0.63255  1.0000
  H   H36       1.0  0.92669  0.92913  0.13255  1.0000
  H   H37       1.0  0.83728  0.23672  0.33456  1.0000
  H   H38       1.0  0.16272  0.26328  0.83456  1.0000
  H   H39       1.0  0.16272  0.76328  0.66544  1.0000
  H   H40       1.0  0.83728  0.73672  0.16544  1.0000
  H   H41       1.0  0.69568  0.32671  0.31649  1.0000
  H   H42       1.0  0.30431  0.17329  0.81649  1.0000
  H   H43       1.0  0.30432  0.67329  0.68351  1.0000
  H   H44       1.0  0.69568  0.82671  0.18351  1.0000
  H   H45       1.0  0.57615  0.18344  0.22642  1.0000
  H   H46       1.0  0.42384  0.31656  0.72642  1.0000
  H   H47       1.0  0.42385  0.81656  0.77358  1.0000
  H   H48       1.0  0.57616  0.68344  0.27358  1.0000
  H   H49       1.0  0.71461  0.09194  0.21091  1.0000
  H   H50       1.0  0.28539  0.40805  0.71091  1.0000
  H   H51       1.0  0.28539  0.90805  0.78909  1.0000
  H   H52       1.0  0.71461  0.59195  0.28909  1.0000
  H   H53       1.0  0.69759  0.11083  0.00880  1.0000
  H   H54       1.0  0.30241  0.38917  0.50880  1.0000
  H   H55       1.0  0.30241  0.88917  0.99120  1.0000
  H   H56       1.0  0.69759  0.61083  0.49120  1.0000
  H   H57       1.0  0.53690  0.05666  0.07159  1.0000
  H   H58       1.0  0.46311  0.44334  0.57160  1.0000
  H   H59       1.0  0.46310  0.94334  0.92841  1.0000
  H   H60       1.0  0.53689  0.55666  0.42840  1.0000
  C   C1        1.0  0.91069  0.23309  0.12420  1.0000
  C   C2        1.0  0.08931  0.26691  0.62420  1.0000
  C   C3        1.0  0.08931  0.76691  0.87580  1.0000
  C   C4        1.0  0.91069  0.73309  0.37580  1.0000
  C   C5        1.0  0.02263  0.33079  0.12592  1.0000
  C   C6        1.0  0.97737  0.16921  0.62591  1.0000
  C   C7        1.0  0.97737  0.66921  0.87409  1.0000
  C   C8        1.0  0.02263  0.83079  0.37409  1.0000
  C   C9        1.0  0.90903  0.40085  0.28423  1.0000
  C   C10       1.0  0.09097  0.09915  0.78423  1.0000
  C   C11       1.0  0.09097  0.59915  0.71577  1.0000
  C   C12       1.0  0.90903  0.90085  0.21577  1.0000
  C   C13       1.0  0.79835  0.30262  0.28307  1.0000
  C   C14       1.0  0.20164  0.19738  0.78307  1.0000
  C   C15       1.0  0.20165  0.69738  0.71693  1.0000
  C   C16       1.0  0.79835  0.80262  0.21693  1.0000
  C   C17       1.0  0.66683  0.16348  0.17446  1.0000
  C   C18       1.0  0.33318  0.33652  0.67446  1.0000
  C   C19       1.0  0.33318  0.83652  0.82554  1.0000
  C   C20       1.0  0.66682  0.66348  0.32554  1.0000
  C   C21       1.0  0.61011  0.13110  0.06310  1.0000
  C   C22       1.0  0.38989  0.36890  0.56310  1.0000
  C   C23       1.0  0.38989  0.86890  0.93690  1.0000
  C   C24       1.0  0.61011  0.63110  0.43690  1.0000
  N   N1        1.0  0.04758  0.37210  0.23667  1.0000
  N   N2        1.0  0.95242  0.12790  0.73667  1.0000
  N   N3        1.0  0.95242  0.62790  0.76333  1.0000
  N   N4        1.0  0.04758  0.87210  0.26334  1.0000
  N   N5        1.0  0.77207  0.26006  0.17294  1.0000
  N   N6        1.0  0.22793  0.23994  0.67294  1.0000
  N   N7        1.0  0.22793  0.73994  0.82706  1.0000
  N   N8        1.0  0.77207  0.76006  0.32706  1.0000
  N   N9        1.0  0.53107  0.21932  0.01315  1.0000
  N   N10       1.0  0.46893  0.28068  0.51314  1.0000
  N   N11       1.0  0.46893  0.78068  0.98686  1.0000
  N   N12       1.0  0.53107  0.71932  0.48686  1.0000
  Cl  Cl1       1.0  0.68947  0.57710  0.04952  1.0000
  Cl  Cl2       1.0  0.31053  0.92290  0.54951  1.0000
  Cl  Cl3       1.0  0.31053  0.42290  0.95048  1.0000
  Cl  Cl4       1.0  0.68947  0.07710  0.45048  1.0000
  Cl  Cl5       1.0  0.82753  0.33856  0.87127  1.0000
  Cl  Cl6       1.0  0.17247  0.16144  0.37127  1.0000
  Cl  Cl7       1.0  0.17247  0.66144  0.12873  1.0000
  Cl  Cl8       1.0  0.82753  0.83856  0.62873  1.0000
  Cl  Cl9       1.0  0.78311  0.40556  0.55643  1.0000
  Cl  Cl10      1.0  0.21689  0.09444  0.05643  1.0000
  Cl  Cl11      1.0  0.21689  0.59444  0.44357  1.0000
  Cl  Cl12      1.0  0.78311  0.90556  0.94357  1.0000
  Cl  Cl13      1.0  0.45153  0.39808  0.25919  1.0000
  Cl  Cl14      1.0  0.54847  0.10192  0.75919  1.0000
  Cl  Cl15      1.0  0.54847  0.60192  0.74081  1.0000
  Cl  Cl16      1.0  0.45153  0.89808  0.24081  1.0000
