data_image0
_chemical_formula_structural       Ag4H28C32S4N12
_chemical_formula_sum              "Ag4 H28 C32 S4 N12"
_cell_length_a       7.91611
_cell_length_b       10.5647
_cell_length_c       11.4652
_cell_angle_alpha    84.4542
_cell_angle_beta     72.237
_cell_angle_gamma    79.796

_space_group_name_H-M_alt    "P 1"
_space_group_IT_number       1

loop_
  _space_group_symop_operation_xyz
  'x, y, z'

loop_
  _atom_site_type_symbol
  _atom_site_label
  _atom_site_symmetry_multiplicity
  _atom_site_fract_x
  _atom_site_fract_y
  _atom_site_fract_z
  _atom_site_occupancy
  Ag  Ag1       1.0  0.63507  0.85344  0.55243  1.0000
  Ag  Ag2       1.0  0.36493  0.14656  0.44757  1.0000
  Ag  Ag3       1.0  0.86107  0.87904  0.71359  1.0000
  Ag  Ag4       1.0  0.13892  0.12096  0.28641  1.0000
  H   H1        1.0  0.28331  0.69705  0.56827  1.0000
  H   H2        1.0  0.71669  0.30295  0.43173  1.0000
  H   H3        1.0  0.49960  0.37132  0.75139  1.0000
  H   H4        1.0  0.50040  0.62868  0.24861  1.0000
  H   H5        1.0  0.70538  0.56594  0.72516  1.0000
  H   H6        1.0  0.29462  0.43406  0.27484  1.0000
  H   H7        1.0  0.16168  0.49605  0.57311  1.0000
  H   H8        1.0  0.83831  0.50395  0.42689  1.0000
  H   H9        1.0  0.27873  0.34899  0.61473  1.0000
  H   H10       1.0  0.72127  0.65101  0.38527  1.0000
  H   H11       1.0  0.01422  0.63619  0.80449  1.0000
  H   H12       1.0  0.98578  0.36381  0.19551  1.0000
  H   H13       1.0  0.75648  0.61278  0.98881  1.0000
  H   H14       1.0  0.24352  0.38722  0.01119  1.0000
  H   H15       1.0  0.65750  0.40123  0.05395  1.0000
  H   H16       1.0  0.34250  0.59878  0.94605  1.0000
  H   H17       1.0  0.07777  0.23113  0.74798  1.0000
  H   H18       1.0  0.92223  0.76887  0.25203  1.0000
  H   H19       1.0  0.86334  0.13237  0.02636  1.0000
  H   H20       1.0  0.13666  0.86763  0.97364  1.0000
  H   H21       1.0  0.87562  0.10121  0.87424  1.0000
  H   H22       1.0  0.12438  0.89879  0.12576  1.0000
  H   H23       1.0  0.56125  0.18400  0.18223  1.0000
  H   H24       1.0  0.43875  0.81600  0.81777  1.0000
  H   H25       1.0  0.22525  0.13646  0.97152  1.0000
  H   H26       1.0  0.77476  0.86354  0.02847  1.0000
  H   H27       1.0  0.57380  0.13985  0.81697  1.0000
  H   H28       1.0  0.42620  0.86015  0.18303  1.0000
  C   C1        1.0  0.09030  0.83789  0.43118  1.0000
  C   C2        1.0  0.90970  0.16211  0.56883  1.0000
  C   C3        1.0  0.23394  0.97806  0.71368  1.0000
  C   C4        1.0  0.76604  0.02194  0.28633  1.0000
  C   C5        1.0  0.37341  0.63725  0.61327  1.0000
  C   C6        1.0  0.62659  0.36275  0.38673  1.0000
  C   C7        1.0  0.48772  0.46765  0.70945  1.0000
  C   C8        1.0  0.51228  0.53235  0.29055  1.0000
  C   C9        1.0  0.58819  0.56492  0.69523  1.0000
  C   C10       1.0  0.41181  0.43508  0.30476  1.0000
  C   C11       1.0  0.21377  0.44535  0.64638  1.0000
  C   C12       1.0  0.78623  0.55465  0.35362  1.0000
  C   C13       1.0  0.06256  0.43474  0.76328  1.0000
  C   C14       1.0  0.93744  0.56527  0.23672  1.0000
  C   C15       1.0  0.97170  0.54212  0.83176  1.0000
  C   C16       1.0  0.02831  0.45788  0.16824  1.0000
  C   C17       1.0  0.82632  0.52912  0.93555  1.0000
  C   C18       1.0  0.17368  0.47088  0.06445  1.0000
  C   C19       1.0  0.77101  0.40968  0.97226  1.0000
  C   C20       1.0  0.22899  0.59032  0.02773  1.0000
  C   C21       1.0  0.86205  0.30127  0.90550  1.0000
  C   C22       1.0  0.13796  0.69873  0.09451  1.0000
  C   C23       1.0  0.00682  0.31499  0.80110  1.0000
  C   C24       1.0  0.99319  0.68502  0.19891  1.0000
  C   C25       1.0  0.81344  0.16898  0.94775  1.0000
  C   C26       1.0  0.18656  0.83102  0.05225  1.0000
  C   C27       1.0  0.51323  0.17201  0.10565  1.0000
  C   C28       1.0  0.48677  0.82799  0.89435  1.0000
  C   C29       1.0  0.34579  0.14788  0.99289  1.0000
  C   C30       1.0  0.65421  0.85212  0.00711  1.0000
  C   C31       1.0  0.51586  0.15163  0.91473  1.0000
  C   C32       1.0  0.48414  0.84837  0.08527  1.0000
  S   S1        1.0  0.96309  0.74298  0.52838  1.0000
  S   S2        1.0  0.03691  0.25703  0.47162  1.0000
  S   S3        1.0  0.40930  0.05289  0.65739  1.0000
  S   S4        1.0  0.59070  0.94711  0.34261  1.0000
  N   N1        1.0  0.18454  0.90302  0.35994  1.0000
  N   N2        1.0  0.81547  0.09698  0.64005  1.0000
  N   N3        1.0  0.11116  0.92192  0.75929  1.0000
  N   N4        1.0  0.88884  0.07809  0.24071  1.0000
  N   N5        1.0  0.51526  0.67044  0.63509  1.0000
  N   N6        1.0  0.48473  0.32956  0.36491  1.0000
  N   N7        1.0  0.35232  0.51497  0.65664  1.0000
  N   N8        1.0  0.64768  0.48503  0.34335  1.0000
  N   N9        1.0  0.34588  0.16061  0.11182  1.0000
  N   N10       1.0  0.65412  0.83939  0.88818  1.0000
  N   N11       1.0  0.62035  0.16619  0.98808  1.0000
  N   N12       1.0  0.37964  0.83382  0.01192  1.0000
