data_image0
_chemical_formula_structural       CuH12C18N10
_chemical_formula_sum              "Cu1 H12 C18 N10"
_cell_length_a       7.1298
_cell_length_b       8.01568
_cell_length_c       9.17135
_cell_angle_alpha    99.3685
_cell_angle_beta     108.765
_cell_angle_gamma    109.815

_space_group_name_H-M_alt    "P 1"
_space_group_IT_number       1

loop_
  _space_group_symop_operation_xyz
  'x, y, z'

loop_
  _atom_site_type_symbol
  _atom_site_label
  _atom_site_symmetry_multiplicity
  _atom_site_fract_x
  _atom_site_fract_y
  _atom_site_fract_z
  _atom_site_occupancy
  Cu  Cu1       1.0  0.00001  0.00001  0.00000  1.0000
  H   H1        1.0  0.24609  0.84447  0.11595  1.0000
  H   H2        1.0  0.75391  0.15553  0.88405  1.0000
  H   H3        1.0  0.04786  0.79988  0.18688  1.0000
  H   H4        1.0  0.95213  0.20013  0.81311  1.0000
  H   H5        1.0  0.06628  0.02478  0.40678  1.0000
  H   H6        1.0  0.93371  0.97521  0.59322  1.0000
  H   H7        1.0  0.30847  0.29848  0.65301  1.0000
  H   H8        1.0  0.69152  0.70151  0.34699  1.0000
  H   H9        1.0  0.84142  0.37792  0.50413  1.0000
  H   H10       1.0  0.15857  0.62206  0.49588  1.0000
  H   H11       1.0  0.59915  0.10529  0.25969  1.0000
  H   H12       1.0  0.40085  0.89471  0.74030  1.0000
  C   C1        1.0  0.31636  0.04843  0.31791  1.0000
  C   C2        1.0  0.68364  0.95157  0.68208  1.0000
  C   C3        1.0  0.23710  0.10213  0.43099  1.0000
  C   C4        1.0  0.76289  0.89786  0.56901  1.0000
  C   C5        1.0  0.37190  0.25463  0.56749  1.0000
  C   C6        1.0  0.62810  0.74535  0.43252  1.0000
  C   C7        1.0  0.59039  0.35650  0.59313  1.0000
  C   C8        1.0  0.40961  0.64349  0.40687  1.0000
  C   C9        1.0  0.67147  0.30089  0.48172  1.0000
  C   C10       1.0  0.32853  0.69910  0.51829  1.0000
  C   C11       1.0  0.53553  0.14785  0.34548  1.0000
  C   C12       1.0  0.46446  0.85214  0.65452  1.0000
  C   C13       1.0  0.72651  0.51923  0.72796  1.0000
  C   C14       1.0  0.27349  0.48075  0.27205  1.0000
  C   C15       1.0  0.41640  0.17931  0.96553  1.0000
  C   C16       1.0  0.58361  0.82071  0.03446  1.0000
  C   C17       1.0  0.73236  0.44582  0.10479  1.0000
  C   C18       1.0  0.26764  0.55419  0.89520  1.0000
  N   N1        1.0  0.17168  0.90343  0.17430  1.0000
  N   N2        1.0  0.82832  0.09658  0.82570  1.0000
  N   N3        1.0  0.83769  0.65505  0.83712  1.0000
  N   N4        1.0  0.16230  0.34493  0.16288  1.0000
  N   N5        1.0  0.23876  0.06568  0.92989  1.0000
  N   N6        1.0  0.76125  0.93434  0.07011  1.0000
  N   N7        1.0  0.61129  0.28781  0.98982  1.0000
  N   N8        1.0  0.38872  0.71220  0.01018  1.0000
  N   N9        1.0  0.85385  0.58912  0.20562  1.0000
  N   N10       1.0  0.14616  0.41089  0.79438  1.0000
