data_image0
_chemical_formula_structural       Cd2H24C36N20
_chemical_formula_sum              "Cd2 H24 C36 N20"
_cell_length_a       7.79913
_cell_length_b       8.67964
_cell_length_c       13.6392
_cell_angle_alpha    89.9999
_cell_angle_beta     90.7501
_cell_angle_gamma    89.9999

_space_group_name_H-M_alt    "P 1"
_space_group_IT_number       1

loop_
  _space_group_symop_operation_xyz
  'x, y, z'

loop_
  _atom_site_type_symbol
  _atom_site_label
  _atom_site_symmetry_multiplicity
  _atom_site_fract_x
  _atom_site_fract_y
  _atom_site_fract_z
  _atom_site_occupancy
  Cd  Cd1       1.0  0.50000  0.50000  0.00000  1.0000
  Cd  Cd2       1.0  0.00000  0.00000  0.50000  1.0000
  H   H1        1.0  0.52466  0.64953  0.18221  1.0000
  H   H2        1.0  0.97534  0.14953  0.31779  1.0000
  H   H3        1.0  0.47534  0.35047  0.81779  1.0000
  H   H4        1.0  0.02466  0.85046  0.68221  1.0000
  H   H5        1.0  0.52491  0.79016  0.09899  1.0000
  H   H6        1.0  0.97508  0.29016  0.40101  1.0000
  H   H7        1.0  0.47509  0.20984  0.90101  1.0000
  H   H8        1.0  0.02491  0.70984  0.59899  1.0000
  H   H9        1.0  0.26217  0.90985  0.03815  1.0000
  H   H10       1.0  0.23782  0.40985  0.46185  1.0000
  H   H11       1.0  0.73782  0.09015  0.96185  1.0000
  H   H12       1.0  0.76218  0.59015  0.53815  1.0000
  H   H13       1.0  0.95404  0.96042  0.07603  1.0000
  H   H14       1.0  0.54595  0.46043  0.42397  1.0000
  H   H15       1.0  0.04596  0.03957  0.92397  1.0000
  H   H16       1.0  0.45404  0.53957  0.57603  1.0000
  H   H17       1.0  0.80750  0.81037  0.20316  1.0000
  H   H18       1.0  0.69250  0.31037  0.29684  1.0000
  H   H19       1.0  0.19250  0.18962  0.79684  1.0000
  H   H20       1.0  0.30750  0.68963  0.70316  1.0000
  H   H21       1.0  0.27343  0.55285  0.25799  1.0000
  H   H22       1.0  0.22657  0.05285  0.24201  1.0000
  H   H23       1.0  0.72657  0.44715  0.74201  1.0000
  H   H24       1.0  0.77343  0.94715  0.75799  1.0000
  C   C1        1.0  0.28731  0.72855  0.14605  1.0000
  C   C2        1.0  0.21268  0.22855  0.35394  1.0000
  C   C3        1.0  0.71268  0.27145  0.85394  1.0000
  C   C4        1.0  0.78731  0.77145  0.64606  1.0000
  C   C5        1.0  0.19694  0.84328  0.09441  1.0000
  C   C6        1.0  0.30306  0.34328  0.40558  1.0000
  C   C7        1.0  0.80306  0.15672  0.90559  1.0000
  C   C8        1.0  0.69693  0.65672  0.59441  1.0000
  C   C9        1.0  0.02473  0.87074  0.11500  1.0000
  C   C10       1.0  0.47527  0.37075  0.38500  1.0000
  C   C11       1.0  0.97527  0.12925  0.88500  1.0000
  C   C12       1.0  0.52473  0.62926  0.61500  1.0000
  C   C13       1.0  0.94059  0.78628  0.18655  1.0000
  C   C14       1.0  0.55941  0.28628  0.31345  1.0000
  C   C15       1.0  0.05941  0.21372  0.81345  1.0000
  C   C16       1.0  0.44059  0.71372  0.68655  1.0000
  C   C17       1.0  0.03177  0.67185  0.23800  1.0000
  C   C18       1.0  0.46823  0.17185  0.26200  1.0000
  C   C19       1.0  0.96823  0.32814  0.76200  1.0000
  C   C20       1.0  0.53177  0.82815  0.73800  1.0000
  C   C21       1.0  0.95108  0.58630  0.31353  1.0000
  C   C22       1.0  0.54892  0.08631  0.18647  1.0000
  C   C23       1.0  0.04892  0.41369  0.68648  1.0000
  C   C24       1.0  0.45108  0.91369  0.81352  1.0000
  C   C25       1.0  0.20433  0.64197  0.21751  1.0000
  C   C26       1.0  0.29567  0.14198  0.28248  1.0000
  C   C27       1.0  0.79567  0.35802  0.78249  1.0000
  C   C28       1.0  0.70433  0.85802  0.71751  1.0000
  C   C29       1.0  0.85939  0.35501  0.10998  1.0000
  C   C30       1.0  0.64062  0.85502  0.39002  1.0000
  C   C31       1.0  0.14061  0.64499  0.89002  1.0000
  C   C32       1.0  0.35939  0.14499  0.60999  1.0000
  C   C33       1.0  0.15067  0.32169  0.09439  1.0000
  C   C34       1.0  0.34935  0.82169  0.40561  1.0000
  C   C35       1.0  0.84934  0.67831  0.90561  1.0000
  C   C36       1.0  0.65066  0.17832  0.59439  1.0000
  N   N1        1.0  0.45966  0.69512  0.12350  1.0000
  N   N2        1.0  0.04034  0.19513  0.37650  1.0000
  N   N3        1.0  0.54034  0.30487  0.87650  1.0000
  N   N4        1.0  0.95966  0.80487  0.62350  1.0000
  N   N5        1.0  0.88646  0.51441  0.37537  1.0000
  N   N6        1.0  0.61354  0.01441  0.12463  1.0000
  N   N7        1.0  0.11353  0.48559  0.62463  1.0000
  N   N8        1.0  0.38646  0.98559  0.87537  1.0000
  N   N9        1.0  0.72122  0.40868  0.10032  1.0000
  N   N10       1.0  0.77880  0.90869  0.39968  1.0000
  N   N11       1.0  0.27879  0.59132  0.89969  1.0000
  N   N12       1.0  0.22121  0.09133  0.60032  1.0000
  N   N13       1.0  0.00277  0.28663  0.13010  1.0000
  N   N14       1.0  0.49725  0.78664  0.36990  1.0000
  N   N15       1.0  0.99724  0.71337  0.86989  1.0000
  N   N16       1.0  0.50276  0.21338  0.63010  1.0000
  N   N17       1.0  0.29235  0.34066  0.06776  1.0000
  N   N18       1.0  0.20766  0.84066  0.43224  1.0000
  N   N19       1.0  0.70765  0.65934  0.93224  1.0000
  N   N20       1.0  0.79234  0.15934  0.56776  1.0000
