data_image0
_chemical_formula_structural       CuH12C18N10
_chemical_formula_sum              "Cu1 H12 C18 N10"
_cell_length_a       7.19334
_cell_length_b       6.90138
_cell_length_c       9.69387
_cell_angle_alpha    89.4562
_cell_angle_beta     84.953
_cell_angle_gamma    71.2829

_space_group_name_H-M_alt    "P 1"
_space_group_IT_number       1

loop_
  _space_group_symop_operation_xyz
  'x, y, z'

loop_
  _atom_site_type_symbol
  _atom_site_label
  _atom_site_symmetry_multiplicity
  _atom_site_fract_x
  _atom_site_fract_y
  _atom_site_fract_z
  _atom_site_occupancy
  Cu  Cu1       1.0  0.00001  0.00000  0.00000  1.0000
  H   H1        1.0  0.16977  0.28632  0.67179  1.0000
  H   H2        1.0  0.83022  0.71369  0.32821  1.0000
  H   H3        1.0  0.12615  0.22782  0.42778  1.0000
  H   H4        1.0  0.87384  0.77217  0.57222  1.0000
  H   H5        1.0  0.80083  0.23081  0.35750  1.0000
  H   H6        1.0  0.19915  0.76916  0.64249  1.0000
  H   H7        1.0  0.51585  0.29350  0.53777  1.0000
  H   H8        1.0  0.48414  0.70650  0.46223  1.0000
  H   H9        1.0  0.78588  0.42689  0.95049  1.0000
  H   H10       1.0  0.21411  0.57312  0.04951  1.0000
  H   H11       1.0  0.02892  0.37388  0.89593  1.0000
  H   H12       1.0  0.97107  0.62614  0.10406  1.0000
  C   C1        1.0  0.40603  0.89224  0.83629  1.0000
  C   C2        1.0  0.59398  0.10776  0.16372  1.0000
  C   C3        1.0  0.73198  0.85875  0.82491  1.0000
  C   C4        1.0  0.26805  0.14123  0.17511  1.0000
  C   C5        1.0  0.86910  0.32472  0.74576  1.0000
  C   C6        1.0  0.13088  0.67528  0.25424  1.0000
  C   C7        1.0  0.02682  0.28734  0.64201  1.0000
  C   C8        1.0  0.97317  0.71266  0.35798  1.0000
  C   C9        1.0  0.00110  0.25495  0.50521  1.0000
  C   C10       1.0  0.99890  0.74505  0.49479  1.0000
  C   C11       1.0  0.81757  0.25738  0.46546  1.0000
  C   C12       1.0  0.18242  0.74262  0.53454  1.0000
  C   C13       1.0  0.65981  0.29195  0.56560  1.0000
  C   C14       1.0  0.34017  0.70805  0.43440  1.0000
  C   C15       1.0  0.68291  0.32633  0.70554  1.0000
  C   C16       1.0  0.31709  0.67367  0.29445  1.0000
  C   C17       1.0  0.51874  0.36103  0.80507  1.0000
  C   C18       1.0  0.48123  0.63897  0.19493  1.0000
  N   N1        1.0  0.24420  0.92489  0.88638  1.0000
  N   N2        1.0  0.75583  0.07513  0.11362  1.0000
  N   N3        1.0  0.57712  0.85419  0.76876  1.0000
  N   N4        1.0  0.42291  0.14578  0.23126  1.0000
  N   N5        1.0  0.88358  0.85394  0.86504  1.0000
  N   N6        1.0  0.11647  0.14605  0.13497  1.0000
  N   N7        1.0  0.90070  0.34694  0.88169  1.0000
  N   N8        1.0  0.09930  0.65306  0.11830  1.0000
  N   N9        1.0  0.38163  0.38884  0.88611  1.0000
  N   N10       1.0  0.61834  0.61120  0.11388  1.0000
