data_image0
_chemical_formula_structural       Zn4H20C32N4O16
_chemical_formula_sum              "Zn4 H20 C32 N4 O16"
_cell_length_a       8.52519
_cell_length_b       8.52522
_cell_length_c       14.9226
_cell_angle_alpha    96.7
_cell_angle_beta     96.7001
_cell_angle_gamma    116.818

_space_group_name_H-M_alt    "P 1"
_space_group_IT_number       1

loop_
  _space_group_symop_operation_xyz
  'x, y, z'

loop_
  _atom_site_type_symbol
  _atom_site_label
  _atom_site_symmetry_multiplicity
  _atom_site_fract_x
  _atom_site_fract_y
  _atom_site_fract_z
  _atom_site_occupancy
  Zn  Zn1       1.0  0.57047  0.91688  0.93413  1.0000
  Zn  Zn2       1.0  0.08312  0.42953  0.56587  1.0000
  Zn  Zn3       1.0  0.42953  0.08312  0.06587  1.0000
  Zn  Zn4       1.0  0.91687  0.57047  0.43413  1.0000
  H   H1        1.0  0.28595  0.98688  0.67641  1.0000
  H   H2        1.0  0.01312  0.71404  0.82359  1.0000
  H   H3        1.0  0.71405  0.01312  0.32360  1.0000
  H   H4        1.0  0.98688  0.28596  0.17640  1.0000
  H   H5        1.0  0.17744  0.12430  0.55968  1.0000
  H   H6        1.0  0.87569  0.82256  0.94032  1.0000
  H   H7        1.0  0.82256  0.87569  0.44032  1.0000
  H   H8        1.0  0.12431  0.17744  0.05968  1.0000
  H   H9        1.0  0.19588  0.51022  0.76440  1.0000
  H   H10       1.0  0.48978  0.80412  0.73560  1.0000
  H   H11       1.0  0.80412  0.48978  0.23560  1.0000
  H   H12       1.0  0.51022  0.19588  0.26440  1.0000
  H   H13       1.0  0.30304  0.38798  0.88777  1.0000
  H   H14       1.0  0.61202  0.69696  0.61223  1.0000
  H   H15       1.0  0.69696  0.61202  0.11223  1.0000
  H   H16       1.0  0.38798  0.30304  0.38777  1.0000
  H   H17       1.0  0.96242  0.59135  0.08400  1.0000
  H   H18       1.0  0.40865  0.03757  0.41600  1.0000
  H   H19       1.0  0.03757  0.40865  0.91600  1.0000
  H   H20       1.0  0.59135  0.96243  0.58400  1.0000
  C   C1        1.0  0.36373  0.09972  0.86501  1.0000
  C   C2        1.0  0.90028  0.63627  0.63499  1.0000
  C   C3        1.0  0.63627  0.90028  0.13499  1.0000
  C   C4        1.0  0.09972  0.36373  0.36501  1.0000
  C   C5        1.0  0.30022  0.17587  0.79119  1.0000
  C   C6        1.0  0.82413  0.69979  0.70881  1.0000
  C   C7        1.0  0.69979  0.82413  0.20881  1.0000
  C   C8        1.0  0.17587  0.30021  0.29119  1.0000
  C   C9        1.0  0.26657  0.10234  0.69783  1.0000
  C   C10       1.0  0.89766  0.73343  0.80217  1.0000
  C   C11       1.0  0.73343  0.89766  0.30217  1.0000
  C   C12       1.0  0.10234  0.26657  0.19783  1.0000
  C   C13       1.0  0.20676  0.17806  0.63316  1.0000
  C   C14       1.0  0.82194  0.79324  0.86684  1.0000
  C   C15       1.0  0.79324  0.82194  0.36684  1.0000
  C   C16       1.0  0.17806  0.20677  0.13316  1.0000
  C   C17       1.0  0.21720  0.39439  0.74766  1.0000
  C   C18       1.0  0.60561  0.78280  0.75234  1.0000
  C   C19       1.0  0.78280  0.60561  0.25234  1.0000
  C   C20       1.0  0.39439  0.21720  0.24766  1.0000
  C   C21       1.0  0.27560  0.32515  0.81606  1.0000
  C   C22       1.0  0.67484  0.72440  0.68394  1.0000
  C   C23       1.0  0.72440  0.67485  0.18394  1.0000
  C   C24       1.0  0.32516  0.27560  0.31606  1.0000
  C   C25       1.0  0.78594  0.30585  0.02206  1.0000
  C   C26       1.0  0.69414  0.21406  0.47794  1.0000
  C   C27       1.0  0.21406  0.69415  0.97794  1.0000
  C   C28       1.0  0.30585  0.78594  0.52206  1.0000
  C   C29       1.0  0.94348  0.48400  0.02947  1.0000
  C   C30       1.0  0.51600  0.05652  0.47053  1.0000
  C   C31       1.0  0.05652  0.51600  0.97053  1.0000
  C   C32       1.0  0.48400  0.94348  0.52947  1.0000
  N   N1        1.0  0.18237  0.32171  0.65778  1.0000
  N   N2        1.0  0.67829  0.81763  0.84222  1.0000
  N   N3        1.0  0.81763  0.67829  0.34222  1.0000
  N   N4        1.0  0.32171  0.18237  0.15778  1.0000
  O   O1        1.0  0.43697  0.00492  0.84113  1.0000
  O   O2        1.0  0.99508  0.56303  0.65887  1.0000
  O   O3        1.0  0.56303  0.99508  0.15887  1.0000
  O   O4        1.0  0.00492  0.43697  0.34113  1.0000
  O   O5        1.0  0.33888  0.13972  0.94503  1.0000
  O   O6        1.0  0.86027  0.66111  0.55497  1.0000
  O   O7        1.0  0.66112  0.86028  0.05497  1.0000
  O   O8        1.0  0.13972  0.33888  0.44503  1.0000
  O   O9        1.0  0.77587  0.17397  0.96757  1.0000
  O   O10       1.0  0.82603  0.22414  0.53243  1.0000
  O   O11       1.0  0.22414  0.82603  0.03243  1.0000
  O   O12       1.0  0.17397  0.77586  0.46757  1.0000
  O   O13       1.0  0.67255  0.30205  0.07179  1.0000
  O   O14       1.0  0.69795  0.32745  0.42821  1.0000
  O   O15       1.0  0.32745  0.69795  0.92821  1.0000
  O   O16       1.0  0.30205  0.67255  0.57179  1.0000
