data_image0
_chemical_formula_structural       Zn4H24C32N4O16
_chemical_formula_sum              "Zn4 H24 C32 N4 O16"
_cell_length_a       7.62623
_cell_length_b       8.62269
_cell_length_c       14.6914
_cell_angle_alpha    90.0001
_cell_angle_beta     90
_cell_angle_gamma    110.657

_space_group_name_H-M_alt    "P 1"
_space_group_IT_number       1

loop_
  _space_group_symop_operation_xyz
  'x, y, z'

loop_
  _atom_site_type_symbol
  _atom_site_label
  _atom_site_symmetry_multiplicity
  _atom_site_fract_x
  _atom_site_fract_y
  _atom_site_fract_z
  _atom_site_occupancy
  Zn  Zn1       1.0  0.85281  0.95697  0.93078  1.0000
  Zn  Zn2       1.0  0.14719  0.54303  0.43078  1.0000
  Zn  Zn3       1.0  0.14719  0.04303  0.06922  1.0000
  Zn  Zn4       1.0  0.85281  0.45697  0.56922  1.0000
  H   H1        1.0  0.36959  0.75294  0.11327  1.0000
  H   H2        1.0  0.63041  0.74705  0.61327  1.0000
  H   H3        1.0  0.63043  0.24707  0.88673  1.0000
  H   H4        1.0  0.36959  0.25294  0.38673  1.0000
  H   H5        1.0  0.14122  0.63569  0.23993  1.0000
  H   H6        1.0  0.85878  0.86430  0.73993  1.0000
  H   H7        1.0  0.85879  0.36431  0.76007  1.0000
  H   H8        1.0  0.14122  0.13569  0.26007  1.0000
  H   H9        1.0  0.56022  0.61275  0.41325  1.0000
  H   H10       1.0  0.43978  0.88725  0.91325  1.0000
  H   H11       1.0  0.43978  0.38725  0.58675  1.0000
  H   H12       1.0  0.56021  0.11275  0.08674  1.0000
  H   H13       1.0  0.80824  0.73316  0.29375  1.0000
  H   H14       1.0  0.19176  0.76685  0.79375  1.0000
  H   H15       1.0  0.19177  0.26685  0.70625  1.0000
  H   H16       1.0  0.80824  0.23315  0.20624  1.0000
  H   H17       1.0  0.78978  0.44300  0.02353  1.0000
  H   H18       1.0  0.21021  0.05700  0.52354  1.0000
  H   H19       1.0  0.21021  0.55700  0.97646  1.0000
  H   H20       1.0  0.78978  0.94300  0.47647  1.0000
  H   H21       1.0  0.97817  0.49736  0.10422  1.0000
  H   H22       1.0  0.02182  0.00264  0.60422  1.0000
  H   H23       1.0  0.02182  0.50263  0.89578  1.0000
  H   H24       1.0  0.97817  0.99736  0.39578  1.0000
  C   C1        1.0  0.75175  0.83669  0.12297  1.0000
  C   C2        1.0  0.24825  0.66331  0.62297  1.0000
  C   C3        1.0  0.24826  0.16331  0.87704  1.0000
  C   C4        1.0  0.75175  0.33669  0.37703  1.0000
  C   C5        1.0  0.60748  0.75312  0.19466  1.0000
  C   C6        1.0  0.39252  0.74687  0.69466  1.0000
  C   C7        1.0  0.39253  0.24688  0.80535  1.0000
  C   C8        1.0  0.60748  0.25312  0.30534  1.0000
  C   C9        1.0  0.41753  0.72246  0.17844  1.0000
  C   C10       1.0  0.58246  0.77754  0.67844  1.0000
  C   C11       1.0  0.58248  0.27755  0.82156  1.0000
  C   C12       1.0  0.41754  0.22245  0.32156  1.0000
  C   C13       1.0  0.29003  0.65744  0.24833  1.0000
  C   C14       1.0  0.70997  0.84256  0.74833  1.0000
  C   C15       1.0  0.70998  0.34256  0.75168  1.0000
  C   C16       1.0  0.29003  0.15744  0.25167  1.0000
  C   C17       1.0  0.52491  0.64507  0.34569  1.0000
  C   C18       1.0  0.47509  0.85493  0.84569  1.0000
  C   C19       1.0  0.47510  0.35493  0.65431  1.0000
  C   C20       1.0  0.52491  0.14506  0.15431  1.0000
  C   C21       1.0  0.66139  0.71186  0.27961  1.0000
  C   C22       1.0  0.33861  0.78815  0.77961  1.0000
  C   C23       1.0  0.33862  0.28815  0.72039  1.0000
  C   C24       1.0  0.66139  0.21185  0.22039  1.0000
  C   C25       1.0  0.93874  0.27262  0.03063  1.0000
  C   C26       1.0  0.06125  0.22738  0.53063  1.0000
  C   C27       1.0  0.06124  0.72738  0.96936  1.0000
  C   C28       1.0  0.93875  0.77262  0.46937  1.0000
  C   C29       1.0  0.93288  0.44601  0.03632  1.0000
  C   C30       1.0  0.06711  0.05399  0.53632  1.0000
  C   C31       1.0  0.06711  0.55399  0.96368  1.0000
  C   C32       1.0  0.93288  0.94601  0.46368  1.0000
  N   N1        1.0  0.34266  0.61995  0.33050  1.0000
  N   N2        1.0  0.65734  0.88005  0.83050  1.0000
  N   N3        1.0  0.65734  0.38005  0.66950  1.0000
  N   N4        1.0  0.34266  0.11994  0.16950  1.0000
  O   O1        1.0  0.69088  0.84046  0.04283  1.0000
  O   O2        1.0  0.30914  0.65954  0.54282  1.0000
  O   O3        1.0  0.30914  0.15954  0.95718  1.0000
  O   O4        1.0  0.69087  0.34046  0.45717  1.0000
  O   O5        1.0  0.92078  0.89895  0.14976  1.0000
  O   O6        1.0  0.07922  0.60106  0.64975  1.0000
  O   O7        1.0  0.07923  0.10106  0.85025  1.0000
  O   O8        1.0  0.92078  0.39895  0.35024  1.0000
  O   O9        1.0  0.82934  0.17487  0.97306  1.0000
  O   O10       1.0  0.17065  0.32513  0.47306  1.0000
  O   O11       1.0  0.17064  0.82513  0.02694  1.0000
  O   O12       1.0  0.82935  0.67486  0.52694  1.0000
  O   O13       1.0  0.05673  0.23998  0.08093  1.0000
  O   O14       1.0  0.94327  0.26002  0.58094  1.0000
  O   O15       1.0  0.94326  0.76002  0.91906  1.0000
  O   O16       1.0  0.05674  0.73998  0.41907  1.0000
