data_image0
_chemical_formula_structural       Pr2H18C20O18
_chemical_formula_sum              "Pr2 H18 C20 O18"
_cell_length_a       6.67039
_cell_length_b       10.1779
_cell_length_c       10.9386
_cell_angle_alpha    117.724
_cell_angle_beta     101.718
_cell_angle_gamma    90.0047

_space_group_name_H-M_alt    "P 1"
_space_group_IT_number       1

loop_
  _space_group_symop_operation_xyz
  'x, y, z'

loop_
  _atom_site_type_symbol
  _atom_site_label
  _atom_site_symmetry_multiplicity
  _atom_site_fract_x
  _atom_site_fract_y
  _atom_site_fract_z
  _atom_site_occupancy
  Pr  Pr1       1.0  0.96010  0.81913  0.10855  1.0000
  Pr  Pr2       1.0  0.46008  0.28943  0.10866  1.0000
  H   H1        1.0  0.96698  0.19793  0.73275  1.0000
  H   H2        1.0  0.46667  0.53479  0.73273  1.0000
  H   H3        1.0  0.78679  0.13196  0.48358  1.0000
  H   H4        1.0  0.28693  0.35163  0.48349  1.0000
  H   H5        1.0  0.91067  0.58739  0.57995  1.0000
  H   H6        1.0  0.41085  0.99253  0.57983  1.0000
  H   H7        1.0  0.00615  0.80455  0.74546  1.0000
  H   H8        1.0  0.50614  0.94094  0.74555  1.0000
  H   H9        1.0  0.25978  0.74515  0.74671  1.0000
  H   H10       1.0  0.75979  0.00168  0.74684  1.0000
  H   H11       1.0  0.53556  0.88206  0.21326  1.0000
  H   H12       1.0  0.03563  0.33111  0.21332  1.0000
  H   H13       1.0  0.63845  0.03579  0.24526  1.0000
  H   H14       1.0  0.13833  0.20938  0.24536  1.0000
  H   H15       1.0  0.80712  0.60161  0.19256  1.0000
  H   H16       1.0  0.30694  0.59075  0.19232  1.0000
  H   H17       1.0  0.01493  0.67388  0.31041  1.0000
  H   H18       1.0  0.51448  0.63633  0.31041  1.0000
  C   C1        1.0  0.01135  0.54097  0.75626  1.0000
  C   C2        1.0  0.51122  0.21530  0.75620  1.0000
  C   C3        1.0  0.02603  0.43016  0.80009  1.0000
  C   C4        1.0  0.52581  0.36994  0.80009  1.0000
  C   C5        1.0  0.94826  0.28288  0.69843  1.0000
  C   C6        1.0  0.44804  0.41554  0.69840  1.0000
  C   C7        1.0  0.85062  0.24613  0.56010  1.0000
  C   C8        1.0  0.35064  0.31392  0.56000  1.0000
  C   C9        1.0  0.83679  0.35765  0.51894  1.0000
  C   C10       1.0  0.33681  0.16124  0.51881  1.0000
  C   C11       1.0  0.92144  0.50407  0.61618  1.0000
  C   C12       1.0  0.42148  0.11208  0.61608  1.0000
  C   C13       1.0  0.14225  0.78688  0.80955  1.0000
  C   C14       1.0  0.64221  0.02274  0.80964  1.0000
  C   C15       1.0  0.22532  0.93514  0.94177  1.0000
  C   C16       1.0  0.72536  0.00683  0.94191  1.0000
  C   C17       1.0  0.12783  0.46056  0.94711  1.0000
  C   C18       1.0  0.62752  0.48659  0.94713  1.0000
  C   C19       1.0  0.72311  0.32639  0.37406  1.0000
  C   C20       1.0  0.22315  0.04759  0.37394  1.0000
  O   O1        1.0  0.09102  0.68409  0.85640  1.0000
  O   O2        1.0  0.59085  0.17236  0.85639  1.0000
  O   O3        1.0  0.27996  0.04060  0.92051  1.0000
  O   O4        1.0  0.77992  0.88012  0.92069  1.0000
  O   O5        1.0  0.23274  0.94432  0.06191  1.0000
  O   O6        1.0  0.73290  0.11787  0.06201  1.0000
  O   O7        1.0  0.14968  0.59359  0.05196  1.0000
  O   O8        1.0  0.64927  0.45845  0.05200  1.0000
  O   O9        1.0  0.19059  0.35038  0.96255  1.0000
  O   O10       1.0  0.69036  0.61216  0.96251  1.0000
  O   O11       1.0  0.58078  0.21658  0.30456  1.0000
  O   O12       1.0  0.08050  0.08783  0.30457  1.0000
  O   O13       1.0  0.76109  0.41323  0.32450  1.0000
  O   O14       1.0  0.26141  0.91126  0.32428  1.0000
  O   O15       1.0  0.66565  0.93071  0.21896  1.0000
  O   O16       1.0  0.16577  0.28829  0.21929  1.0000
  O   O17       1.0  0.89148  0.69898  0.26431  1.0000
  O   O18       1.0  0.39099  0.56518  0.26423  1.0000
