data_image0
_chemical_formula_structural       Nd2H18C20O18
_chemical_formula_sum              "Nd2 H18 C20 O18"
_cell_length_a       6.86455
_cell_length_b       9.96294
_cell_length_c       10.9321
_cell_angle_alpha    117.105
_cell_angle_beta     101.922
_cell_angle_gamma    90.0149

_space_group_name_H-M_alt    "P 1"
_space_group_IT_number       1

loop_
  _space_group_symop_operation_xyz
  'x, y, z'

loop_
  _atom_site_type_symbol
  _atom_site_label
  _atom_site_symmetry_multiplicity
  _atom_site_fract_x
  _atom_site_fract_y
  _atom_site_fract_z
  _atom_site_occupancy
  Nd  Nd1       1.0  0.44663  0.38547  0.28881  1.0000
  Nd  Nd2       1.0  0.94680  0.90331  0.28880  1.0000
  H   H1        1.0  0.46096  0.01977  0.67903  1.0000
  H   H2        1.0  0.96123  0.65932  0.67926  1.0000
  H   H3        1.0  0.64541  0.07289  0.92222  1.0000
  H   H4        1.0  0.14551  0.84962  0.92240  1.0000
  H   H5        1.0  0.52063  0.60386  0.81062  1.0000
  H   H6        1.0  0.02011  0.20675  0.81049  1.0000
  H   H7        1.0  0.16182  0.46722  0.64927  1.0000
  H   H8        1.0  0.66189  0.18186  0.64918  1.0000
  H   H9        1.0  0.38801  0.37651  0.63328  1.0000
  H   H10       1.0  0.88803  0.25642  0.63295  1.0000
  H   H11       1.0  0.88069  0.31282  0.25227  1.0000
  H   H12       1.0  0.38091  0.93966  0.25216  1.0000
  H   H13       1.0  0.75093  0.15967  0.15865  1.0000
  H   H14       1.0  0.25080  0.99923  0.15872  1.0000
  H   H15       1.0  0.62963  0.59500  0.21136  1.0000
  H   H16       1.0  0.12962  0.61637  0.21129  1.0000
  H   H17       1.0  0.42495  0.53763  0.09465  1.0000
  H   H18       1.0  0.92515  0.55717  0.09437  1.0000
  C   C1        1.0  0.41755  0.66401  0.64256  1.0000
  C   C2        1.0  0.91748  0.97844  0.64254  1.0000
  C   C3        1.0  0.40197  0.78161  0.60389  1.0000
  C   C4        1.0  0.90206  0.82216  0.60394  1.0000
  C   C5        1.0  0.48031  0.92884  0.70833  1.0000
  C   C6        1.0  0.98048  0.77951  0.70844  1.0000
  C   C7        1.0  0.57951  0.95871  0.84400  1.0000
  C   C8        1.0  0.07967  0.88546  0.84409  1.0000
  C   C9        1.0  0.59392  0.84020  0.87973  1.0000
  C   C10       1.0  0.09375  0.03969  0.87976  1.0000
  C   C11       1.0  0.50877  0.69356  0.77963  1.0000
  C   C12       1.0  0.00849  0.08609  0.77959  1.0000
  C   C13       1.0  0.26505  0.41523  0.57963  1.0000
  C   C14       1.0  0.76498  0.16410  0.57944  1.0000
  C   C15       1.0  0.15491  0.27966  0.44241  1.0000
  C   C16       1.0  0.65474  0.16234  0.44220  1.0000
  C   C17       1.0  0.30007  0.75613  0.45884  1.0000
  C   C18       1.0  0.80025  0.70259  0.45886  1.0000
  C   C19       1.0  0.70658  0.86438  0.02178  1.0000
  C   C20       1.0  0.20635  0.15768  0.02183  1.0000
  O   O1        1.0  0.33749  0.52083  0.53994  1.0000
  O   O2        1.0  0.83730  0.01881  0.53982  1.0000
  O   O3        1.0  0.14298  0.28700  0.32818  1.0000
  O   O4        1.0  0.64296  0.04076  0.32800  1.0000
  O   O5        1.0  0.08397  0.17007  0.45373  1.0000
  O   O6        1.0  0.58366  0.28316  0.45346  1.0000
  O   O7        1.0  0.28894  0.62426  0.35274  1.0000
  O   O8        1.0  0.78924  0.72837  0.35277  1.0000
  O   O9        1.0  0.22775  0.86771  0.44643  1.0000
  O   O10       1.0  0.72778  0.57859  0.44642  1.0000
  O   O11       1.0  0.82922  0.98514  0.10065  1.0000
  O   O12       1.0  0.32919  0.11585  0.10064  1.0000
  O   O13       1.0  0.68671  0.76355  0.06082  1.0000
  O   O14       1.0  0.18619  0.29749  0.06092  1.0000
  O   O15       1.0  0.74084  0.27115  0.20309  1.0000
  O   O16       1.0  0.24097  0.93210  0.20309  1.0000
  O   O17       1.0  0.53503  0.50272  0.14071  1.0000
  O   O18       1.0  0.03528  0.63814  0.14064  1.0000
