data_image0
_chemical_formula_structural       Co2H20C24N4O6F2
_chemical_formula_sum              "Co2 H20 C24 N4 O6 F2"
_cell_length_a       7.31266
_cell_length_b       9.49854
_cell_length_c       11.2811
_cell_angle_alpha    99.4021
_cell_angle_beta     90.1554
_cell_angle_gamma    112.678

_space_group_name_H-M_alt    "P 1"
_space_group_IT_number       1

loop_
  _space_group_symop_operation_xyz
  'x, y, z'

loop_
  _atom_site_type_symbol
  _atom_site_label
  _atom_site_symmetry_multiplicity
  _atom_site_fract_x
  _atom_site_fract_y
  _atom_site_fract_z
  _atom_site_occupancy
  Co  Co1       1.0  0.89729  0.49368  0.49982  1.0000
  Co  Co2       1.0  0.40318  0.50638  0.50016  1.0000
  H   H1        1.0  0.19358  0.06944  0.39743  1.0000
  H   H2        1.0  0.12399  0.92950  0.60377  1.0000
  H   H3        1.0  0.84778  0.25786  0.27003  1.0000
  H   H4        1.0  0.58927  0.74145  0.72940  1.0000
  H   H5        1.0  0.85338  0.25015  0.04861  1.0000
  H   H6        1.0  0.60369  0.75011  0.95098  1.0000
  H   H7        1.0  0.95290  0.73650  0.11867  1.0000
  H   H8        1.0  0.21687  0.26345  0.88164  1.0000
  H   H9        1.0  0.95998  0.72655  0.33527  1.0000
  H   H10       1.0  0.23337  0.27242  0.66491  1.0000
  H   H11       1.0  0.12082  0.71344  0.72136  1.0000
  H   H12       1.0  0.40667  0.28710  0.27910  1.0000
  H   H13       1.0  0.13066  0.72464  0.94442  1.0000
  H   H14       1.0  0.40579  0.27588  0.05609  1.0000
  H   H15       1.0  0.66911  0.26279  0.87998  1.0000
  H   H16       1.0  0.40714  0.73769  0.11941  1.0000
  H   H17       1.0  0.67432  0.27567  0.66033  1.0000
  H   H18       1.0  0.39901  0.72485  0.33909  1.0000
  H   H19       1.0  0.78295  0.97869  0.38636  1.0000
  H   H20       1.0  0.80537  0.02076  0.61426  1.0000
  C   C1        1.0  0.87146  0.36145  0.23224  1.0000
  C   C2        1.0  0.50984  0.63793  0.76739  1.0000
  C   C3        1.0  0.87177  0.35771  0.10869  1.0000
  C   C4        1.0  0.51455  0.64219  0.89101  1.0000
  C   C5        1.0  0.90105  0.49290  0.06253  1.0000
  C   C6        1.0  0.40876  0.50724  0.93740  1.0000
  C   C7        1.0  0.93129  0.62713  0.14699  1.0000
  C   C8        1.0  0.30468  0.37261  0.85308  1.0000
  C   C9        1.0  0.93131  0.62182  0.26934  1.0000
  C   C10       1.0  0.30951  0.37736  0.73070  1.0000
  C   C11       1.0  0.02182  0.61771  0.76160  1.0000
  C   C12       1.0  0.40359  0.38280  0.23864  1.0000
  C   C13       1.0  0.02577  0.62246  0.88520  1.0000
  C   C14       1.0  0.40318  0.37805  0.11506  1.0000
  C   C15       1.0  0.90035  0.49347  0.93231  1.0000
  C   C16       1.0  0.40727  0.50701  0.06763  1.0000
  C   C17       1.0  0.77365  0.36517  0.84930  1.0000
  C   C18       1.0  0.40893  0.63529  0.15035  1.0000
  C   C19       1.0  0.77478  0.37092  0.72713  1.0000
  C   C20       1.0  0.40389  0.62953  0.27254  1.0000
  C   C21       1.0  0.00290  0.20653  0.46079  1.0000
  C   C22       1.0  0.79721  0.79329  0.53941  1.0000
  C   C23       1.0  0.92775  0.02884  0.43865  1.0000
  C   C24       1.0  0.89973  0.97103  0.56176  1.0000
  N   N1        1.0  0.89759  0.49471  0.68309  1.0000
  N   N2        1.0  0.40250  0.50584  0.31688  1.0000
  N   N3        1.0  0.90042  0.49099  0.31286  1.0000
  N   N4        1.0  0.40895  0.50803  0.68690  1.0000
  O   O1        1.0  0.87374  0.26495  0.47595  1.0000
  O   O2        1.0  0.60968  0.73465  0.52233  1.0000
  O   O3        1.0  0.19028  0.27636  0.46228  1.0000
  O   O4        1.0  0.91494  0.72390  0.53968  1.0000
  O   O5        1.0  0.06584  0.98155  0.37235  1.0000
  O   O6        1.0  0.08602  0.01845  0.62771  1.0000
  F   F1        1.0  0.60206  0.40981  0.48548  1.0000
  F   F2        1.0  0.19302  0.59130  0.51364  1.0000
