data_image0
_chemical_formula_structural       Cd4H40C36O20
_chemical_formula_sum              "Cd4 H40 C36 O20"
_cell_length_a       9.00312
_cell_length_b       9.36235
_cell_length_c       11.6588
_cell_angle_alpha    90.0001
_cell_angle_beta     92.6084
_cell_angle_gamma    90.0001

_space_group_name_H-M_alt    "P 1"
_space_group_IT_number       1

loop_
  _space_group_symop_operation_xyz
  'x, y, z'

loop_
  _atom_site_type_symbol
  _atom_site_label
  _atom_site_symmetry_multiplicity
  _atom_site_fract_x
  _atom_site_fract_y
  _atom_site_fract_z
  _atom_site_occupancy
  Cd  Cd1       1.0  0.97722  0.20170  0.53727  1.0000
  Cd  Cd2       1.0  0.52278  0.70170  0.46273  1.0000
  Cd  Cd3       1.0  0.02278  0.79829  0.46273  1.0000
  Cd  Cd4       1.0  0.47722  0.29830  0.53727  1.0000
  H   H1        1.0  0.16463  0.37837  0.40033  1.0000
  H   H2        1.0  0.33537  0.87837  0.59967  1.0000
  H   H3        1.0  0.83537  0.62163  0.59967  1.0000
  H   H4        1.0  0.66463  0.12163  0.40033  1.0000
  H   H5        1.0  0.00723  0.45851  0.39821  1.0000
  H   H6        1.0  0.49277  0.95851  0.60180  1.0000
  H   H7        1.0  0.99278  0.54149  0.60179  1.0000
  H   H8        1.0  0.50723  0.04149  0.39820  1.0000
  H   H9        1.0  0.07968  0.80799  0.90788  1.0000
  H   H10       1.0  0.42032  0.30799  0.09212  1.0000
  H   H11       1.0  0.92032  0.19201  0.09213  1.0000
  H   H12       1.0  0.57968  0.69201  0.90788  1.0000
  H   H13       1.0  0.32754  0.73057  0.80926  1.0000
  H   H14       1.0  0.17246  0.23058  0.19074  1.0000
  H   H15       1.0  0.67246  0.26942  0.19074  1.0000
  H   H16       1.0  0.82754  0.76942  0.80926  1.0000
  H   H17       1.0  0.52295  0.94424  0.83519  1.0000
  H   H18       1.0  0.97705  0.44425  0.16481  1.0000
  H   H19       1.0  0.47705  0.05575  0.16481  1.0000
  H   H20       1.0  0.02295  0.55575  0.83519  1.0000
  H   H21       1.0  0.39401  0.15483  0.94554  1.0000
  H   H22       1.0  0.10599  0.65484  0.05445  1.0000
  H   H23       1.0  0.60599  0.84516  0.05445  1.0000
  H   H24       1.0  0.89401  0.34516  0.94555  1.0000
  H   H25       1.0  0.15934  0.21880  0.83102  1.0000
  H   H26       1.0  0.34066  0.71881  0.16898  1.0000
  H   H27       1.0  0.84066  0.78120  0.16898  1.0000
  H   H28       1.0  0.65933  0.28120  0.83103  1.0000
  H   H29       1.0  0.99412  0.04119  0.82090  1.0000
  H   H30       1.0  0.50588  0.54119  0.17910  1.0000
  H   H31       1.0  0.00588  0.95881  0.17910  1.0000
  H   H32       1.0  0.49412  0.45881  0.82090  1.0000
  H   H33       1.0  0.12482  0.06570  0.00978  1.0000
  H   H34       1.0  0.37518  0.56570  0.99022  1.0000
  H   H35       1.0  0.87518  0.93430  0.99022  1.0000
  H   H36       1.0  0.62482  0.43430  0.00978  1.0000
  H   H37       1.0  0.26687  0.94067  0.05686  1.0000
  H   H38       1.0  0.23313  0.44067  0.94314  1.0000
  H   H39       1.0  0.73313  0.05933  0.94314  1.0000
  H   H40       1.0  0.76687  0.55933  0.05686  1.0000
  C   C1        1.0  0.16191  0.88882  0.88679  1.0000
  C   C2        1.0  0.33809  0.38883  0.11321  1.0000
  C   C3        1.0  0.83809  0.11117  0.11321  1.0000
  C   C4        1.0  0.66191  0.61118  0.88679  1.0000
  C   C5        1.0  0.31069  0.83380  0.84944  1.0000
  C   C6        1.0  0.18931  0.33380  0.15056  1.0000
  C   C7        1.0  0.68931  0.16620  0.15056  1.0000
  C   C8        1.0  0.81070  0.66620  0.84944  1.0000
  C   C9        1.0  0.40890  0.94150  0.86223  1.0000
  C   C10       1.0  0.09110  0.44150  0.13777  1.0000
  C   C11       1.0  0.59110  0.05851  0.13777  1.0000
  C   C12       1.0  0.90890  0.55851  0.86223  1.0000
  C   C13       1.0  0.32584  0.06951  0.90670  1.0000
  C   C14       1.0  0.17416  0.56951  0.09329  1.0000
  C   C15       1.0  0.67416  0.93049  0.09329  1.0000
  C   C16       1.0  0.82584  0.43049  0.90671  1.0000
  C   C17       1.0  0.21915  0.12197  0.80544  1.0000
  C   C18       1.0  0.28086  0.62197  0.19455  1.0000
  C   C19       1.0  0.78085  0.87803  0.19456  1.0000
  C   C20       1.0  0.71914  0.37803  0.80545  1.0000
  C   C21       1.0  0.10068  0.99861  0.79424  1.0000
  C   C22       1.0  0.39932  0.49862  0.20576  1.0000
  C   C23       1.0  0.89932  0.00138  0.20576  1.0000
  C   C24       1.0  0.60068  0.50139  0.79424  1.0000
  C   C25       1.0  0.21343  0.99452  0.98215  1.0000
  C   C26       1.0  0.28657  0.49452  0.01784  1.0000
  C   C27       1.0  0.78657  0.00548  0.01785  1.0000
  C   C28       1.0  0.71343  0.50548  0.98216  1.0000
  C   C29       1.0  0.29876  0.16749  0.69960  1.0000
  C   C30       1.0  0.20124  0.66749  0.30040  1.0000
  C   C31       1.0  0.70124  0.83251  0.30040  1.0000
  C   C32       1.0  0.79876  0.33251  0.69960  1.0000
  C   C33       1.0  0.07001  0.93589  0.67591  1.0000
  C   C34       1.0  0.42999  0.43589  0.32408  1.0000
  C   C35       1.0  0.92999  0.06411  0.32409  1.0000
  C   C36       1.0  0.57001  0.56412  0.67591  1.0000
  O   O1        1.0  0.22784  0.19011  0.60408  1.0000
  O   O2        1.0  0.27216  0.69011  0.39592  1.0000
  O   O3        1.0  0.77216  0.80989  0.39592  1.0000
  O   O4        1.0  0.72784  0.30989  0.60408  1.0000
  O   O5        1.0  0.43861  0.18983  0.71057  1.0000
  O   O6        1.0  0.06139  0.68983  0.28943  1.0000
  O   O7        1.0  0.56139  0.81017  0.28943  1.0000
  O   O8        1.0  0.93861  0.31016  0.71057  1.0000
  O   O9        1.0  0.94909  0.96966  0.62040  1.0000
  O   O10       1.0  0.55091  0.46966  0.37960  1.0000
  O   O11       1.0  0.05091  0.03033  0.37960  1.0000
  O   O12       1.0  0.44909  0.53034  0.62040  1.0000
  O   O13       1.0  0.16087  0.84738  0.63370  1.0000
  O   O14       1.0  0.33913  0.34738  0.36630  1.0000
  O   O15       1.0  0.83913  0.15262  0.36630  1.0000
  O   O16       1.0  0.66087  0.65262  0.63370  1.0000
  O   O17       1.0  0.07218  0.39403  0.44252  1.0000
  O   O18       1.0  0.42782  0.89403  0.55749  1.0000
  O   O19       1.0  0.92782  0.60597  0.55748  1.0000
  O   O20       1.0  0.57218  0.10597  0.44252  1.0000
