data_image0
_chemical_formula_structural       Co2H16C16S4N8O4
_chemical_formula_sum              "Co2 H16 C16 S4 N8 O4"
_cell_length_a       8.38246
_cell_length_b       8.56227
_cell_length_c       8.56112
_cell_angle_alpha    113.936
_cell_angle_beta     96.2749
_cell_angle_gamma    96.2708

_space_group_name_H-M_alt    "P 1"
_space_group_IT_number       1

loop_
  _space_group_symop_operation_xyz
  'x, y, z'

loop_
  _atom_site_type_symbol
  _atom_site_label
  _atom_site_symmetry_multiplicity
  _atom_site_fract_x
  _atom_site_fract_y
  _atom_site_fract_z
  _atom_site_occupancy
  Co  Co1       1.0  0.25000  0.72761  0.27240  1.0000
  Co  Co2       1.0  0.74999  0.27238  0.72760  1.0000
  H   H1        1.0  0.90127  0.64114  0.47596  1.0000
  H   H2        1.0  0.59875  0.52404  0.35885  1.0000
  H   H3        1.0  0.09873  0.35887  0.52404  1.0000
  H   H4        1.0  0.40126  0.47596  0.64115  1.0000
  H   H5        1.0  0.87701  0.10141  0.24557  1.0000
  H   H6        1.0  0.62296  0.75443  0.89854  1.0000
  H   H7        1.0  0.12299  0.89859  0.75443  1.0000
  H   H8        1.0  0.37704  0.24557  0.10146  1.0000
  H   H9        1.0  0.89614  0.94052  0.04058  1.0000
  H   H10       1.0  0.60384  0.95939  0.05944  1.0000
  H   H11       1.0  0.10386  0.05948  0.95942  1.0000
  H   H12       1.0  0.39616  0.04061  0.94056  1.0000
  H   H13       1.0  0.05190  0.99652  0.22432  1.0000
  H   H14       1.0  0.44809  0.77569  0.00344  1.0000
  H   H15       1.0  0.94810  0.00348  0.77568  1.0000
  H   H16       1.0  0.55191  0.22430  0.99656  1.0000
  C   C1        1.0  0.83223  0.84472  0.22282  1.0000
  C   C2        1.0  0.66776  0.77718  0.15526  1.0000
  C   C3        1.0  0.16777  0.15528  0.77718  1.0000
  C   C4        1.0  0.33224  0.22282  0.84474  1.0000
  C   C5        1.0  0.83111  0.67678  0.38495  1.0000
  C   C6        1.0  0.66891  0.61505  0.32322  1.0000
  C   C7        1.0  0.16889  0.32323  0.61505  1.0000
  C   C8        1.0  0.33109  0.38495  0.67678  1.0000
  C   C9        1.0  0.97268  0.37255  0.08689  1.0000
  C   C10       1.0  0.52736  0.91313  0.62747  1.0000
  C   C11       1.0  0.02731  0.62745  0.91311  1.0000
  C   C12       1.0  0.47264  0.08686  0.37253  1.0000
  C   C13       1.0  0.92106  0.97822  0.18048  1.0000
  C   C14       1.0  0.57892  0.81952  0.02174  1.0000
  C   C15       1.0  0.07894  0.02179  0.81952  1.0000
  C   C16       1.0  0.42108  0.18048  0.97826  1.0000
  S   S1        1.0  0.12090  0.43767  0.25134  1.0000
  S   S2        1.0  0.37915  0.74868  0.56236  1.0000
  S   S3        1.0  0.87909  0.56233  0.74865  1.0000
  S   S4        1.0  0.62085  0.25132  0.43764  1.0000
  N   N1        1.0  0.63149  0.03483  0.67303  1.0000
  N   N2        1.0  0.86853  0.32698  0.96517  1.0000
  N   N3        1.0  0.36851  0.96516  0.32697  1.0000
  N   N4        1.0  0.13147  0.67302  0.03483  1.0000
  N   N5        1.0  0.91279  0.78999  0.33462  1.0000
  N   N6        1.0  0.58721  0.66540  0.20999  1.0000
  N   N7        1.0  0.08721  0.21001  0.66539  1.0000
  N   N8        1.0  0.41279  0.33460  0.79001  1.0000
  O   O1        1.0  0.06895  0.84680  0.39674  1.0000
  O   O2        1.0  0.43104  0.60329  0.15318  1.0000
  O   O3        1.0  0.93105  0.15320  0.60326  1.0000
  O   O4        1.0  0.56896  0.39671  0.84682  1.0000
