data_image0
_chemical_formula_structural       Cd2H16C16S4N8O4
_chemical_formula_sum              "Cd2 H16 C16 S4 N8 O4"
_cell_length_a       8.70113
_cell_length_b       8.70115
_cell_length_c       8.92139
_cell_angle_alpha    96.7423
_cell_angle_beta     96.7423
_cell_angle_gamma    113.07

_space_group_name_H-M_alt    "P 1"
_space_group_IT_number       1

loop_
  _space_group_symop_operation_xyz
  'x, y, z'

loop_
  _atom_site_type_symbol
  _atom_site_label
  _atom_site_symmetry_multiplicity
  _atom_site_fract_x
  _atom_site_fract_y
  _atom_site_fract_z
  _atom_site_occupancy
  Cd  Cd1       1.0  0.22714  0.77287  0.75000  1.0000
  Cd  Cd2       1.0  0.77286  0.22714  0.25000  1.0000
  H   H1        1.0  0.02966  0.85606  0.10684  1.0000
  H   H2        1.0  0.14396  0.97036  0.39316  1.0000
  H   H3        1.0  0.97035  0.14395  0.89316  1.0000
  H   H4        1.0  0.85605  0.02965  0.60684  1.0000
  H   H5        1.0  0.24081  0.39897  0.10435  1.0000
  H   H6        1.0  0.60102  0.75917  0.39566  1.0000
  H   H7        1.0  0.75918  0.60102  0.89565  1.0000
  H   H8        1.0  0.39897  0.24082  0.60435  1.0000
  H   H9        1.0  0.45541  0.54769  0.12340  1.0000
  H   H10       1.0  0.45231  0.54459  0.37661  1.0000
  H   H11       1.0  0.54459  0.45231  0.87660  1.0000
  H   H12       1.0  0.54769  0.45541  0.62340  1.0000
  H   H13       1.0  0.30022  0.52669  0.96184  1.0000
  H   H14       1.0  0.47330  0.69977  0.53815  1.0000
  H   H15       1.0  0.69978  0.47331  0.03815  1.0000
  H   H16       1.0  0.52669  0.30022  0.46184  1.0000
  C   C1        1.0  0.11892  0.82004  0.17351  1.0000
  C   C2        1.0  0.17997  0.88109  0.32649  1.0000
  C   C3        1.0  0.88108  0.17996  0.82648  1.0000
  C   C4        1.0  0.82003  0.11891  0.67351  1.0000
  C   C5        1.0  0.27983  0.65476  0.17216  1.0000
  C   C6        1.0  0.34524  0.72016  0.32785  1.0000
  C   C7        1.0  0.72016  0.34524  0.82784  1.0000
  C   C8        1.0  0.65476  0.27983  0.67215  1.0000
  C   C9        1.0  0.39648  0.13096  0.02536  1.0000
  C   C10       1.0  0.86906  0.60351  0.47463  1.0000
  C   C11       1.0  0.60351  0.86905  0.97463  1.0000
  C   C12       1.0  0.13095  0.39648  0.52537  1.0000
  C   C13       1.0  0.32316  0.52564  0.08482  1.0000
  C   C14       1.0  0.47435  0.67683  0.41518  1.0000
  C   C15       1.0  0.67683  0.47435  0.91518  1.0000
  C   C16       1.0  0.52564  0.32317  0.58482  1.0000
  S   S1        1.0  0.24872  0.08367  0.87549  1.0000
  S   S2        1.0  0.91635  0.75130  0.62451  1.0000
  S   S3        1.0  0.75129  0.91634  0.12452  1.0000
  S   S4        1.0  0.08366  0.24872  0.37551  1.0000
  N   N1        1.0  0.16799  0.70780  0.09572  1.0000
  N   N2        1.0  0.29220  0.83201  0.40428  1.0000
  N   N3        1.0  0.83201  0.29220  0.90427  1.0000
  N   N4        1.0  0.70780  0.16798  0.59572  1.0000
  N   N5        1.0  0.50336  0.16746  0.13450  1.0000
  N   N6        1.0  0.83256  0.49664  0.36549  1.0000
  N   N7        1.0  0.49664  0.83255  0.86549  1.0000
  N   N8        1.0  0.16745  0.50336  0.63451  1.0000
  O   O1        1.0  0.10474  0.64968  0.95013  1.0000
  O   O2        1.0  0.35032  0.89526  0.54988  1.0000
  O   O3        1.0  0.89526  0.35032  0.04987  1.0000
  O   O4        1.0  0.64968  0.10474  0.45012  1.0000
