data_image0
_chemical_formula_structural       Zn4H56C40O16
_chemical_formula_sum              "Zn4 H56 C40 O16"
_cell_length_a       6.81013
_cell_length_b       12.4067
_cell_length_c       12.7534
_cell_angle_alpha    90.0001
_cell_angle_beta     102.882
_cell_angle_gamma    90.0001

_space_group_name_H-M_alt    "P 1"
_space_group_IT_number       1

loop_
  _space_group_symop_operation_xyz
  'x, y, z'

loop_
  _atom_site_type_symbol
  _atom_site_label
  _atom_site_symmetry_multiplicity
  _atom_site_fract_x
  _atom_site_fract_y
  _atom_site_fract_z
  _atom_site_occupancy
  Zn  Zn1       1.0  0.20558  0.54195  0.26233  1.0000
  Zn  Zn2       1.0  0.79443  0.04195  0.73767  1.0000
  Zn  Zn3       1.0  0.69649  0.44841  0.26061  1.0000
  Zn  Zn4       1.0  0.30351  0.94841  0.73939  1.0000
  H   H1        1.0  0.22735  0.51591  0.66114  1.0000
  H   H2        1.0  0.77265  0.01591  0.33886  1.0000
  H   H3        1.0  0.36570  0.38182  0.79109  1.0000
  H   H4        1.0  0.63431  0.88182  0.20890  1.0000
  H   H5        1.0  0.20138  0.22652  0.71135  1.0000
  H   H6        1.0  0.79862  0.72652  0.28865  1.0000
  H   H7        1.0  0.14084  0.10103  0.50811  1.0000
  H   H8        1.0  0.85915  0.60104  0.49189  1.0000
  H   H9        1.0  0.00397  0.24142  0.24646  1.0000
  H   H10       1.0  0.99603  0.74141  0.75354  1.0000
  H   H11       1.0  0.30820  0.27408  0.39541  1.0000
  H   H12       1.0  0.69181  0.77407  0.60459  1.0000
  H   H13       1.0  0.39676  0.48030  0.58095  1.0000
  H   H14       1.0  0.60324  0.98030  0.41904  1.0000
  H   H15       1.0  0.27284  0.10372  0.26621  1.0000
  H   H16       1.0  0.72715  0.60371  0.73379  1.0000
  H   H17       1.0  0.45780  0.18655  0.48931  1.0000
  H   H18       1.0  0.54220  0.68656  0.51069  1.0000
  H   H19       1.0  0.56206  0.36998  0.72267  1.0000
  H   H20       1.0  0.43795  0.86998  0.27732  1.0000
  H   H21       1.0  0.49116  0.32862  0.50249  1.0000
  H   H22       1.0  0.50884  0.82862  0.49751  1.0000
  H   H23       1.0  0.48252  0.13483  0.21247  1.0000
  H   H24       1.0  0.51748  0.63482  0.78753  1.0000
  H   H25       1.0  0.43333  0.21465  0.91577  1.0000
  H   H26       1.0  0.56669  0.71466  0.08423  1.0000
  H   H27       1.0  0.81245  0.33435  0.54235  1.0000
  H   H28       1.0  0.18755  0.83435  0.45766  1.0000
  H   H29       1.0  0.87762  0.46263  0.60153  1.0000
  H   H30       1.0  0.12238  0.96264  0.39848  1.0000
  H   H31       1.0  0.96127  0.34394  0.67519  1.0000
  H   H32       1.0  0.03873  0.84395  0.32482  1.0000
  H   H33       1.0  0.08241  0.28103  0.86074  1.0000
  H   H34       1.0  0.91760  0.78103  0.13925  1.0000
  H   H35       1.0  0.11839  0.37750  0.96693  1.0000
  H   H36       1.0  0.88163  0.87750  0.03306  1.0000
  H   H37       1.0  0.38778  0.99211  0.08986  1.0000
  H   H38       1.0  0.61224  0.49210  0.91014  1.0000
  H   H39       1.0  0.15613  0.97583  0.12699  1.0000
  H   H40       1.0  0.84388  0.47583  0.87301  1.0000
  H   H41       1.0  0.98546  0.09361  0.99177  1.0000
  H   H42       1.0  0.01453  0.59361  0.00823  1.0000
  H   H43       1.0  0.91718  0.28272  0.94927  1.0000
  H   H44       1.0  0.08284  0.78271  0.05072  1.0000
  H   H45       1.0  0.54020  0.17649  0.05009  1.0000
  H   H46       1.0  0.45980  0.67649  0.94992  1.0000
  H   H47       1.0  0.48460  0.31379  0.01784  1.0000
  H   H48       1.0  0.51542  0.81379  0.98216  1.0000
  H   H49       1.0  0.95379  0.17004  0.55828  1.0000
  H   H50       1.0  0.04620  0.67004  0.44172  1.0000
  H   H51       1.0  0.98142  0.19645  0.42571  1.0000
  H   H52       1.0  0.01858  0.69645  0.57429  1.0000
  H   H53       1.0  0.91689  0.15798  0.13329  1.0000
  H   H54       1.0  0.08311  0.65798  0.86672  1.0000
  H   H55       1.0  0.91300  0.30075  0.11850  1.0000
  H   H56       1.0  0.08700  0.80075  0.88149  1.0000
  C   C1        1.0  0.21939  0.26625  0.54906  1.0000
  C   C2        1.0  0.78060  0.76624  0.45094  1.0000
  C   C3        1.0  0.29144  0.44706  0.62615  1.0000
  C   C4        1.0  0.70857  0.94706  0.37385  1.0000
  C   C5        1.0  0.32055  0.25349  0.67158  1.0000
  C   C6        1.0  0.67944  0.75349  0.32842  1.0000
  C   C7        1.0  0.99897  0.23279  0.16022  1.0000
  C   C8        1.0  0.00102  0.73278  0.83978  1.0000
  C   C9        1.0  0.12434  0.38289  0.55020  1.0000
  C   C10       1.0  0.87566  0.88289  0.44981  1.0000
  C   C11       1.0  0.07351  0.42624  0.43508  1.0000
  C   C12       1.0  0.92647  0.92624  0.56493  1.0000
  C   C13       1.0  0.39806  0.36597  0.71196  1.0000
  C   C14       1.0  0.60195  0.86597  0.28804  1.0000
  C   C15       1.0  0.15012  0.09520  0.00084  1.0000
  C   C16       1.0  0.84989  0.59520  0.99916  1.0000
  C   C17       1.0  0.06410  0.17872  0.50812  1.0000
  C   C18       1.0  0.93589  0.67872  0.49188  1.0000
  C   C19       1.0  0.21457  0.22819  0.14176  1.0000
  C   C20       1.0  0.78542  0.72819  0.85824  1.0000
  C   C21       1.0  0.37885  0.26443  0.48092  1.0000
  C   C22       1.0  0.62115  0.76443  0.51908  1.0000
  C   C23       1.0  0.25657  0.03611  0.10406  1.0000
  C   C24       1.0  0.74344  0.53611  0.89594  1.0000
  C   C25       1.0  0.21667  0.21625  0.01818  1.0000
  C   C26       1.0  0.78333  0.71625  0.98182  1.0000
  C   C27       1.0  0.47487  0.16477  0.69260  1.0000
  C   C28       1.0  0.52512  0.66477  0.30740  1.0000
  C   C29       1.0  0.31885  0.12378  0.19127  1.0000
  C   C30       1.0  0.68116  0.62377  0.80873  1.0000
  C   C31       1.0  0.32547  0.33121  0.18701  1.0000
  C   C32       1.0  0.67453  0.83120  0.81298  1.0000
  C   C33       1.0  0.18545  0.04991  0.89716  1.0000
  C   C34       1.0  0.81455  0.54991  0.10284  1.0000
  C   C35       1.0  0.43102  0.23088  0.00015  1.0000
  C   C36       1.0  0.56899  0.73088  0.99985  1.0000
  C   C37       1.0  0.93250  0.38022  0.59472  1.0000
  C   C38       1.0  0.06750  0.88023  0.40529  1.0000
  C   C39       1.0  0.07494  0.29385  0.94490  1.0000
  C   C40       1.0  0.92508  0.79385  0.05509  1.0000
  O   O1        1.0  0.19853  0.48990  0.40658  1.0000
  O   O2        1.0  0.80146  0.98990  0.59341  1.0000
  O   O3        1.0  0.22698  0.41975  0.16695  1.0000
  O   O4        1.0  0.77301  0.91974  0.83305  1.0000
  O   O5        1.0  0.42050  0.06690  0.66865  1.0000
  O   O6        1.0  0.57948  0.56691  0.33134  1.0000
  O   O7        1.0  0.66041  0.18599  0.73113  1.0000
  O   O8        1.0  0.33956  0.68599  0.26887  1.0000
  O   O9        1.0  0.50680  0.32425  0.23988  1.0000
  O   O10       1.0  0.49319  0.82424  0.76012  1.0000
  O   O11       1.0  0.32460  0.98128  0.89679  1.0000
  O   O12       1.0  0.67540  0.48128  0.10321  1.0000
  O   O13       1.0  0.91176  0.39116  0.37371  1.0000
  O   O14       1.0  0.08822  0.89116  0.62631  1.0000
  O   O15       1.0  0.07743  0.08401  0.80734  1.0000
  O   O16       1.0  0.92257  0.58401  0.19266  1.0000
