data_image0
_chemical_formula_structural       UCuH2C10O10
_chemical_formula_sum              "U1 Cu1 H2 C10 O10"
_cell_length_a       5.02391
_cell_length_b       7.04984
_cell_length_c       8.53831
_cell_angle_alpha    97.9913
_cell_angle_beta     107.04
_cell_angle_gamma    91.2562

_space_group_name_H-M_alt    "P 1"
_space_group_IT_number       1

loop_
  _space_group_symop_operation_xyz
  'x, y, z'

loop_
  _atom_site_type_symbol
  _atom_site_label
  _atom_site_symmetry_multiplicity
  _atom_site_fract_x
  _atom_site_fract_y
  _atom_site_fract_z
  _atom_site_occupancy
  U   U1        1.0  0.49999  0.50001  0.50000  1.0000
  Cu  Cu1       1.0  0.00001  0.99999  0.50000  1.0000
  H   H1        1.0  0.73664  0.69424  0.98586  1.0000
  H   H2        1.0  0.26337  0.30576  0.01414  1.0000
  C   C1        1.0  0.63207  0.82749  0.99235  1.0000
  C   C2        1.0  0.36794  0.17251  0.00765  1.0000
  C   C3        1.0  0.50577  0.87729  0.11619  1.0000
  C   C4        1.0  0.49424  0.12271  0.88381  1.0000
  C   C5        1.0  0.62928  0.95012  0.87654  1.0000
  C   C6        1.0  0.37073  0.04988  0.12346  1.0000
  C   C7        1.0  0.53070  0.74968  0.24446  1.0000
  C   C8        1.0  0.46930  0.25032  0.75554  1.0000
  C   C9        1.0  0.77914  0.89797  0.75051  1.0000
  C   C10       1.0  0.22086  0.10202  0.24948  1.0000
  O   O1        1.0  0.81007  0.72199  0.70610  1.0000
  O   O2        1.0  0.18992  0.27801  0.29390  1.0000
  O   O3        1.0  0.68080  0.80497  0.39618  1.0000
  O   O4        1.0  0.31919  0.19502  0.60382  1.0000
  O   O5        1.0  0.87467  0.03699  0.69732  1.0000
  O   O6        1.0  0.12534  0.96301  0.30268  1.0000
  O   O7        1.0  0.76643  0.34137  0.47479  1.0000
  O   O8        1.0  0.23357  0.65863  0.52521  1.0000
  O   O9        1.0  0.41000  0.58433  0.20905  1.0000
  O   O10       1.0  0.58999  0.41568  0.79095  1.0000
