data_image0
_chemical_formula_structural       UCuH6C10O12
_chemical_formula_sum              "U1 Cu1 H6 C10 O12"
_cell_length_a       7.15386
_cell_length_b       7.06515
_cell_length_c       9.32299
_cell_angle_alpha    95.8969
_cell_angle_beta     91.6348
_cell_angle_gamma    114.282

_space_group_name_H-M_alt    "P 1"
_space_group_IT_number       1

loop_
  _space_group_symop_operation_xyz
  'x, y, z'

loop_
  _atom_site_type_symbol
  _atom_site_label
  _atom_site_symmetry_multiplicity
  _atom_site_fract_x
  _atom_site_fract_y
  _atom_site_fract_z
  _atom_site_occupancy
  U   U1        1.0  0.50000  0.00001  0.50000  1.0000
  Cu  Cu1       1.0  0.99999  0.49999  0.50000  1.0000
  H   H1        1.0  0.17851  0.41607  0.70048  1.0000
  H   H2        1.0  0.82149  0.58394  0.29953  1.0000
  H   H3        1.0  0.02595  0.19881  0.61355  1.0000
  H   H4        1.0  0.97405  0.80119  0.38646  1.0000
  H   H5        1.0  0.31915  0.94333  0.97545  1.0000
  H   H6        1.0  0.68085  0.05667  0.02455  1.0000
  C   C1        1.0  0.26880  0.04997  0.25187  1.0000
  C   C2        1.0  0.73121  0.95003  0.74813  1.0000
  C   C3        1.0  0.13282  0.03176  0.12233  1.0000
  C   C4        1.0  0.86717  0.96824  0.87766  1.0000
  C   C5        1.0  0.18011  0.96994  0.98586  1.0000
  C   C6        1.0  0.81989  0.03006  0.01415  1.0000
  C   C7        1.0  0.95168  0.06273  0.13628  1.0000
  C   C8        1.0  0.04832  0.93727  0.86372  1.0000
  C   C9        1.0  0.89803  0.14163  0.27828  1.0000
  C   C10       1.0  0.10196  0.85835  0.72172  1.0000
  O   O1        1.0  0.36338  0.72110  0.44557  1.0000
  O   O2        1.0  0.63663  0.27893  0.55442  1.0000
  O   O3        1.0  0.76182  0.01019  0.34422  1.0000
  O   O4        1.0  0.23817  0.98978  0.65577  1.0000
  O   O5        1.0  0.18997  0.01680  0.37438  1.0000
  O   O6        1.0  0.81003  0.98321  0.62561  1.0000
  O   O7        1.0  0.45678  0.08708  0.24312  1.0000
  O   O8        1.0  0.54323  0.91291  0.75688  1.0000
  O   O9        1.0  0.12796  0.34437  0.60303  1.0000
  O   O10       1.0  0.87205  0.65563  0.39698  1.0000
  O   O11       1.0  0.99132  0.33840  0.31404  1.0000
  O   O12       1.0  0.00867  0.66159  0.68597  1.0000
