data_image0
_chemical_formula_structural       Li2Sn2H16C20O6F30
_chemical_formula_sum              "Li2 Sn2 H16 C20 O6 F30"
_cell_length_a       9.6668
_cell_length_b       10.51
_cell_length_c       10.7952
_cell_angle_alpha    115.109
_cell_angle_beta     95.7484
_cell_angle_gamma    110.723

_space_group_name_H-M_alt    "P 1"
_space_group_IT_number       1

loop_
  _space_group_symop_operation_xyz
  'x, y, z'

loop_
  _atom_site_type_symbol
  _atom_site_label
  _atom_site_symmetry_multiplicity
  _atom_site_fract_x
  _atom_site_fract_y
  _atom_site_fract_z
  _atom_site_occupancy
  Li  Li1       1.0  0.18540  0.18849  0.34076  1.0000
  Li  Li2       1.0  0.81460  0.81151  0.65924  1.0000
  Sn  Sn1       1.0  0.58178  0.39717  0.41687  1.0000
  Sn  Sn2       1.0  0.41822  0.60283  0.58313  1.0000
  H   H1        1.0  0.25705  0.02808  0.49227  1.0000
  H   H2        1.0  0.74295  0.97192  0.50773  1.0000
  H   H3        1.0  0.08003  0.85185  0.39237  1.0000
  H   H4        1.0  0.91997  0.14815  0.60763  1.0000
  H   H5        1.0  0.85115  0.87549  0.30803  1.0000
  H   H6        1.0  0.14885  0.12451  0.69197  1.0000
  H   H7        1.0  0.87446  0.06725  0.34971  1.0000
  H   H8        1.0  0.12554  0.93275  0.65029  1.0000
  H   H9        1.0  0.84724  0.85050  0.03830  1.0000
  H   H10       1.0  0.15276  0.14950  0.96170  1.0000
  H   H11       1.0  0.02354  0.87096  0.13400  1.0000
  H   H12       1.0  0.97646  0.12904  0.86600  1.0000
  H   H13       1.0  0.01836  0.25892  0.13473  1.0000
  H   H14       1.0  0.98164  0.74108  0.86527  1.0000
  H   H15       1.0  0.84540  0.07957  0.03817  1.0000
  H   H16       1.0  0.15460  0.92043  0.96183  1.0000
  C   C1        1.0  0.70961  0.46778  0.27271  1.0000
  C   C2        1.0  0.29039  0.53221  0.72729  1.0000
  C   C3        1.0  0.63375  0.51026  0.17315  1.0000
  C   C4        1.0  0.36625  0.48974  0.82685  1.0000
  C   C5        1.0  0.78181  0.41480  0.56495  1.0000
  C   C6        1.0  0.21819  0.58520  0.43504  1.0000
  C   C7        1.0  0.75242  0.39425  0.69439  1.0000
  C   C8        1.0  0.24758  0.60575  0.30561  1.0000
  C   C9        1.0  0.45721  0.12897  0.24828  1.0000
  C   C10       1.0  0.54279  0.87103  0.75172  1.0000
  C   C11       1.0  0.52927  0.01531  0.22905  1.0000
  C   C12       1.0  0.47073  0.98469  0.77095  1.0000
  C   C13       1.0  0.13127  0.97720  0.47244  1.0000
  C   C14       1.0  0.86873  0.02280  0.52756  1.0000
  C   C15       1.0  0.90908  0.00028  0.39023  1.0000
  C   C16       1.0  0.09092  0.99972  0.60977  1.0000
  C   C17       1.0  0.97467  0.90775  0.06650  1.0000
  C   C18       1.0  0.02533  0.09225  0.93350  1.0000
  C   C19       1.0  0.97254  0.13227  0.06678  1.0000
  C   C20       1.0  0.02746  0.86773  0.93322  1.0000
  O   O1        1.0  0.36822  0.37108  0.43640  1.0000
  O   O2        1.0  0.63178  0.62892  0.56360  1.0000
  O   O3        1.0  0.07417  0.05649  0.41480  1.0000
  O   O4        1.0  0.92583  0.94351  0.58520  1.0000
  O   O5        1.0  0.02923  0.07523  0.15137  1.0000
  O   O6        1.0  0.97076  0.92477  0.84863  1.0000
  F   F1        1.0  0.74797  0.35122  0.18802  1.0000
  F   F2        1.0  0.25203  0.64878  0.81198  1.0000
  F   F3        1.0  0.84808  0.59910  0.36195  1.0000
  F   F4        1.0  0.15192  0.40089  0.63805  1.0000
  F   F5        1.0  0.49688  0.38892  0.08048  1.0000
  F   F6        1.0  0.50312  0.61108  0.91952  1.0000
  F   F7        1.0  0.60678  0.63516  0.25207  1.0000
  F   F8        1.0  0.39321  0.36484  0.74793  1.0000
  F   F9        1.0  0.72583  0.54968  0.09522  1.0000
  F   F10       1.0  0.27417  0.45032  0.90478  1.0000
  F   F11       1.0  0.90417  0.56204  0.61914  1.0000
  F   F12       1.0  0.09583  0.43796  0.38086  1.0000
  F   F13       1.0  0.83394  0.30716  0.48804  1.0000
  F   F14       1.0  0.16606  0.69284  0.51196  1.0000
  F   F15       1.0  0.72022  0.51014  0.78438  1.0000
  F   F16       1.0  0.27978  0.48986  0.21562  1.0000
  F   F17       1.0  0.87559  0.39807  0.77153  1.0000
  F   F18       1.0  0.12441  0.60194  0.22847  1.0000
  F   F19       1.0  0.62913  0.25491  0.64894  1.0000
  F   F20       1.0  0.37087  0.74509  0.35106  1.0000
  F   F21       1.0  0.31659  0.06104  0.27488  1.0000
  F   F22       1.0  0.68341  0.93897  0.72512  1.0000
  F   F23       1.0  0.41409  0.11549  0.11535  1.0000
  F   F24       1.0  0.58591  0.88451  0.88465  1.0000
  F   F25       1.0  0.66247  0.06043  0.19393  1.0000
  F   F26       1.0  0.33753  0.93957  0.80607  1.0000
  F   F27       1.0  0.56334  0.01365  0.35366  1.0000
  F   F28       1.0  0.43666  0.98635  0.64634  1.0000
  F   F29       1.0  0.43306  0.86630  0.12526  1.0000
  F   F30       1.0  0.56694  0.13370  0.87474  1.0000
